MODEL 1
REMARK VINA RESULT:      -8.7      0.000      0.000
REMARK  7 active torsions:
REMARK  status: ('A' for Active; 'I' for Inactive)
REMARK    1  A    between atoms: O1_1  and  C1_2 
REMARK    2  A    between atoms: C3_4  and  O2_5 
REMARK    3  A    between atoms: O2_5  and  C4_6 
REMARK    4  A    between atoms: C4_6  and  C5_7 
REMARK    5  A    between atoms: C5_7  and  C6_8 
REMARK    6  A    between atoms: C9_11  and  N1_12 
REMARK    7  A    between atoms: N1_12  and  C10_13 
ROOT
HETATM    1  C6  UNL     1      20.717   0.279  51.789  1.00  0.00    -0.012 A 
HETATM    2  C7  UNL     1      22.063   0.270  52.030  1.00  0.00     0.033 A 
HETATM    3  C8  UNL     1      22.606  -0.251  53.158  1.00  0.00     0.047 A 
HETATM    4  C9  UNL     1      23.932  -0.312  53.492  1.00  0.00     0.142 A 
HETATM    5  N2  UNL     1      24.323  -0.858  54.641  1.00  0.00    -0.223 NA
HETATM    6  C16 UNL     1      23.472  -1.375  55.533  1.00  0.00     0.236 A 
HETATM    7  N3  UNL     1      22.156  -1.379  55.328  1.00  0.00    -0.234 NA
HETATM    8  C17 UNL     1      21.684  -0.810  54.120  1.00  0.00     0.113 A 
HETATM    9  S1  UNL     1      20.041  -0.516  53.261  1.00  0.00    -0.074 SA
ENDROOT
BRANCH   1  10
HETATM   10  C5  UNL     1      19.781   0.693  50.810  1.00  0.00     0.073 C 
BRANCH  10  11
HETATM   11  C4  UNL     1      20.477   1.481  49.722  1.00  0.00     0.180 C 
BRANCH  11  12
HETATM   12  O2  UNL     1      20.401   2.876  49.919  1.00  0.00    -0.355 OA
BRANCH  12  13
HETATM   13  C3  UNL     1      21.434   3.588  50.548  1.00  0.00     0.051 C 
HETATM   14  C2  UNL     1      22.756   3.810  49.848  1.00  0.00     0.128 C 
HETATM   15  C1  UNL     1      23.879   4.170  50.617  1.00  0.00     0.166 A 
HETATM   16  C20 UNL     1      23.584   4.899  51.928  1.00  0.00     0.131 A 
HETATM   17  N4  UNL     1      24.837   4.951  51.116  1.00  0.00    -0.370 N 
HETATM   18  C19 UNL     1      22.358   4.714  52.316  1.00  0.00     0.014 C 
HETATM   19  C18 UNL     1      21.194   4.048  51.765  1.00  0.00     0.031 C 
HETATM   20  H16 UNL     1      25.784   5.377  51.079  1.00  0.00     0.157 HD
BRANCH  15  21
HETATM   21  O1  UNL     1      24.359   2.748  51.229  1.00  0.00    -0.368 OA
HETATM   22  H1  UNL     1      25.278   3.047  51.435  1.00  0.00     0.212 HD
ENDBRANCH  15  21
ENDBRANCH  12  13
ENDBRANCH  11  12
ENDBRANCH  10  11
ENDBRANCH   1  10
BRANCH   4  23
HETATM   23  N1  UNL     1      24.963   0.195  52.656  1.00  0.00    -0.340 N 
HETATM   24  H9  UNL     1      24.718   0.762  51.813  1.00  0.00     0.167 HD
BRANCH  23  25
HETATM   25  C10 UNL     1      26.328  -0.062  52.959  1.00  0.00     0.035 A 
HETATM   26  C11 UNL     1      26.875  -1.302  52.694  1.00  0.00     0.032 A 
HETATM   27  C12 UNL     1      28.203  -1.547  52.988  1.00  0.00     0.046 A 
HETATM   28  C13 UNL     1      29.034  -0.585  53.549  1.00  0.00     0.138 A 
HETATM   29  F1  UNL     1      30.336  -0.816  53.840  1.00  0.00    -0.204 F 
HETATM   30  C14 UNL     1      28.455   0.639  53.799  1.00  0.00     0.074 A 
HETATM   31 CL1  UNL     1      29.429   1.921  54.510  1.00  0.00    -0.081 Cl
HETATM   32  C15 UNL     1      27.126   0.912  53.515  1.00  0.00     0.056 A 
ENDBRANCH  23  25
ENDBRANCH   4  23
TORSDOF 7
ENDMDL
MODEL 2
REMARK VINA RESULT:      -8.7      3.461      6.188
REMARK  7 active torsions:
REMARK  status: ('A' for Active; 'I' for Inactive)
REMARK    1  A    between atoms: O1_1  and  C1_2 
REMARK    2  A    between atoms: C3_4  and  O2_5 
REMARK    3  A    between atoms: O2_5  and  C4_6 
REMARK    4  A    between atoms: C4_6  and  C5_7 
REMARK    5  A    between atoms: C5_7  and  C6_8 
REMARK    6  A    between atoms: C9_11  and  N1_12 
REMARK    7  A    between atoms: N1_12  and  C10_13 
ROOT
HETATM    1  C6  UNL     1      22.491   0.399  52.930  1.00  0.00    -0.012 A 
HETATM    2  C7  UNL     1      22.880   1.688  52.693  1.00  0.00     0.033 A 
HETATM    3  C8  UNL     1      22.060   2.615  52.136  1.00  0.00     0.047 A 
HETATM    4  C9  UNL     1      22.350   3.925  51.862  1.00  0.00     0.142 A 
HETATM    5  N2  UNL     1      21.440   4.724  51.311  1.00  0.00    -0.223 NA
HETATM    6  C16 UNL     1      20.206   4.320  50.993  1.00  0.00     0.236 A 
HETATM    7  N3  UNL     1      19.798   3.070  51.210  1.00  0.00    -0.234 NA
HETATM    8  C17 UNL     1      20.727   2.175  51.794  1.00  0.00     0.113 A 
HETATM    9  S1  UNL     1      20.787   0.379  52.336  1.00  0.00    -0.074 SA
ENDROOT
BRANCH   1  10
HETATM   10  C5  UNL     1      22.989  -0.817  53.457  1.00  0.00     0.073 C 
BRANCH  10  11
HETATM   11  C4  UNL     1      24.355  -0.600  54.070  1.00  0.00     0.180 C 
BRANCH  11  12
HETATM   12  O2  UNL     1      25.400  -0.682  53.126  1.00  0.00    -0.355 OA
BRANCH  12  13
HETATM   13  C3  UNL     1      26.704  -0.263  53.431  1.00  0.00     0.051 C 
HETATM   14  C2  UNL     1      26.950   1.073  54.095  1.00  0.00     0.128 C 
HETATM   15  C1  UNL     1      28.241   1.634  54.036  1.00  0.00     0.166 A 
HETATM   16  C20 UNL     1      29.393   0.640  53.883  1.00  0.00     0.131 A 
HETATM   17  N4  UNL     1      29.444   2.015  54.465  1.00  0.00    -0.370 N 
HETATM   18  C19 UNL     1      28.982  -0.507  53.430  1.00  0.00     0.014 C 
HETATM   19  C18 UNL     1      27.691  -1.084  53.112  1.00  0.00     0.031 C 
HETATM   20  H16 UNL     1      30.084   2.708  54.901  1.00  0.00     0.157 HD
BRANCH  15  21
HETATM   21  O1  UNL     1      28.277   2.283  52.552  1.00  0.00    -0.368 OA
HETATM   22  H1  UNL     1      28.934   1.640  52.191  1.00  0.00     0.212 HD
ENDBRANCH  15  21
ENDBRANCH  12  13
ENDBRANCH  11  12
ENDBRANCH  10  11
ENDBRANCH   1  10
BRANCH   4  23
HETATM   23  N1  UNL     1      23.615   4.509  52.135  1.00  0.00    -0.340 N 
HETATM   24  H9  UNL     1      23.810   4.910  53.081  1.00  0.00     0.167 HD
BRANCH  23  25
HETATM   25  C10 UNL     1      24.621   4.552  51.131  1.00  0.00     0.035 A 
HETATM   26  C11 UNL     1      25.418   3.448  50.902  1.00  0.00     0.032 A 
HETATM   27  C12 UNL     1      26.393   3.493  49.924  1.00  0.00     0.046 A 
HETATM   28  C13 UNL     1      26.616   4.619  49.141  1.00  0.00     0.138 A 
HETATM   29  F1  UNL     1      27.568   4.673  48.181  1.00  0.00    -0.204 F 
HETATM   30  C14 UNL     1      25.803   5.700  49.398  1.00  0.00     0.074 A 
HETATM   31 CL1  UNL     1      26.010   7.174  48.458  1.00  0.00    -0.081 Cl
HETATM   32  C15 UNL     1      24.818   5.684  50.373  1.00  0.00     0.056 A 
ENDBRANCH  23  25
ENDBRANCH   4  23
TORSDOF 7
ENDMDL
MODEL 3
REMARK VINA RESULT:      -8.4      4.809      6.253
REMARK  7 active torsions:
REMARK  status: ('A' for Active; 'I' for Inactive)
REMARK    1  A    between atoms: O1_1  and  C1_2 
REMARK    2  A    between atoms: C3_4  and  O2_5 
REMARK    3  A    between atoms: O2_5  and  C4_6 
REMARK    4  A    between atoms: C4_6  and  C5_7 
REMARK    5  A    between atoms: C5_7  and  C6_8 
REMARK    6  A    between atoms: C9_11  and  N1_12 
REMARK    7  A    between atoms: N1_12  and  C10_13 
ROOT
HETATM    1  C6  UNL     1      25.439   4.610  49.720  1.00  0.00    -0.012 A 
HETATM    2  C7  UNL     1      25.577   3.948  50.908  1.00  0.00     0.033 A 
HETATM    3  C8  UNL     1      24.658   3.064  51.371  1.00  0.00     0.047 A 
HETATM    4  C9  UNL     1      24.703   2.351  52.539  1.00  0.00     0.142 A 
HETATM    5  N2  UNL     1      23.723   1.512  52.864  1.00  0.00    -0.223 NA
HETATM    6  C16 UNL     1      22.649   1.307  52.096  1.00  0.00     0.236 A 
HETATM    7  N3  UNL     1      22.485   1.938  50.934  1.00  0.00    -0.234 NA
HETATM    8  C17 UNL     1      23.498   2.844  50.537  1.00  0.00     0.113 A 
HETATM    9  S1  UNL     1      23.863   3.990  49.096  1.00  0.00    -0.074 SA
ENDROOT
BRANCH   1  10
HETATM   10  C5  UNL     1      26.110   5.557  48.908  1.00  0.00     0.073 C 
BRANCH  10  11
HETATM   11  C4  UNL     1      27.515   5.084  48.606  1.00  0.00     0.180 C 
BRANCH  11  12
HETATM   12  O2  UNL     1      28.269   6.030  47.880  1.00  0.00    -0.355 OA
BRANCH  12  13
HETATM   13  C3  UNL     1      29.573   6.381  48.259  1.00  0.00     0.051 C 
HETATM   14  C2  UNL     1      30.668   5.339  48.315  1.00  0.00     0.128 C 
HETATM   15  C1  UNL     1      31.834   5.619  49.054  1.00  0.00     0.166 A 
HETATM   16  C20 UNL     1      32.188   7.099  49.207  1.00  0.00     0.131 A 
HETATM   17  N4  UNL     1      33.112   5.927  49.277  1.00  0.00    -0.370 N 
HETATM   18  C19 UNL     1      31.161   7.864  48.987  1.00  0.00     0.014 C 
HETATM   19  C18 UNL     1      29.792   7.650  48.561  1.00  0.00     0.031 C 
HETATM   20  H16 UNL     1      34.108   5.663  49.414  1.00  0.00     0.157 HD
BRANCH  15  21
HETATM   21  O1  UNL     1      31.370   5.318  50.577  1.00  0.00    -0.368 OA
HETATM   22  H1  UNL     1      31.790   6.128  50.958  1.00  0.00     0.212 HD
ENDBRANCH  15  21
ENDBRANCH  12  13
ENDBRANCH  11  12
ENDBRANCH  10  11
ENDBRANCH   1  10
BRANCH   4  23
HETATM   23  N1  UNL     1      25.773   2.457  53.467  1.00  0.00    -0.340 N 
HETATM   24  H9  UNL     1      25.765   3.215  54.187  1.00  0.00     0.167 HD
BRANCH  23  25
HETATM   25  C10 UNL     1      26.857   1.537  53.425  1.00  0.00     0.035 A 
HETATM   26  C11 UNL     1      28.139   1.964  53.704  1.00  0.00     0.032 A 
HETATM   27  C12 UNL     1      29.188   1.066  53.664  1.00  0.00     0.046 A 
HETATM   28  C13 UNL     1      29.013  -0.277  53.352  1.00  0.00     0.138 A 
HETATM   29  F1  UNL     1      30.035  -1.163  53.311  1.00  0.00    -0.204 F 
HETATM   30  C14 UNL     1      27.721  -0.666  53.080  1.00  0.00     0.074 A 
HETATM   31 CL1  UNL     1      27.398  -2.348  52.673  1.00  0.00    -0.081 Cl
HETATM   32  C15 UNL     1      26.649   0.212  53.111  1.00  0.00     0.056 A 
ENDBRANCH  23  25
ENDBRANCH   4  23
TORSDOF 7
ENDMDL
MODEL 4
REMARK VINA RESULT:      -8.3      1.862      2.529
REMARK  7 active torsions:
REMARK  status: ('A' for Active; 'I' for Inactive)
REMARK    1  A    between atoms: O1_1  and  C1_2 
REMARK    2  A    between atoms: C3_4  and  O2_5 
REMARK    3  A    between atoms: O2_5  and  C4_6 
REMARK    4  A    between atoms: C4_6  and  C5_7 
REMARK    5  A    between atoms: C5_7  and  C6_8 
REMARK    6  A    between atoms: C9_11  and  N1_12 
REMARK    7  A    between atoms: N1_12  and  C10_13 
ROOT
HETATM    1  C6  UNL     1      21.796   1.664  51.143  1.00  0.00    -0.012 A 
HETATM    2  C7  UNL     1      22.831   0.917  51.632  1.00  0.00     0.033 A 
HETATM    3  C8  UNL     1      22.775   0.270  52.823  1.00  0.00     0.047 A 
HETATM    4  C9  UNL     1      23.749  -0.502  53.398  1.00  0.00     0.142 A 
HETATM    5  N2  UNL     1      23.553  -1.081  54.580  1.00  0.00    -0.223 NA
HETATM    6  C16 UNL     1      22.419  -0.957  55.277  1.00  0.00     0.236 A 
HETATM    7  N3  UNL     1      21.393  -0.235  54.828  1.00  0.00    -0.234 NA
HETATM    8  C17 UNL     1      21.548   0.405  53.574  1.00  0.00     0.113 A 
HETATM    9  S1  UNL     1      20.544   1.506  52.433  1.00  0.00    -0.074 SA
ENDROOT
BRANCH   1  10
HETATM   10  C5  UNL     1      21.449   2.456  50.022  1.00  0.00     0.073 C 
BRANCH  10  11
HETATM   11  C4  UNL     1      21.771   3.910  50.289  1.00  0.00     0.180 C 
BRANCH  11  12
HETATM   12  O2  UNL     1      22.977   4.084  51.001  1.00  0.00    -0.355 OA
BRANCH  12  13
HETATM   13  C3  UNL     1      24.138   4.566  50.378  1.00  0.00     0.051 C 
HETATM   14  C2  UNL     1      25.056   3.630  49.625  1.00  0.00     0.128 C 
HETATM   15  C1  UNL     1      26.375   4.044  49.354  1.00  0.00     0.166 A 
HETATM   16  C20 UNL     1      26.594   5.555  49.263  1.00  0.00     0.131 A 
HETATM   17  N4  UNL     1      27.412   4.475  48.636  1.00  0.00    -0.370 N 
HETATM   18  C19 UNL     1      25.635   6.215  49.842  1.00  0.00     0.014 C 
HETATM   19  C18 UNL     1      24.383   5.862  50.481  1.00  0.00     0.031 C 
HETATM   20  H16 UNL     1      28.243   4.306  48.034  1.00  0.00     0.157 HD
BRANCH  15  21
HETATM   21  O1  UNL     1      27.130   3.771  50.762  1.00  0.00    -0.368 OA
HETATM   22  H1  UNL     1      26.375   3.283  51.172  1.00  0.00     0.212 HD
ENDBRANCH  15  21
ENDBRANCH  12  13
ENDBRANCH  11  12
ENDBRANCH  10  11
ENDBRANCH   1  10
BRANCH   4  23
HETATM   23  N1  UNL     1      25.012  -0.730  52.790  1.00  0.00    -0.340 N 
HETATM   24  H9  UNL     1      25.118  -1.489  52.078  1.00  0.00     0.167 HD
BRANCH  23  25
HETATM   25  C10 UNL     1      26.136   0.068  53.141  1.00  0.00     0.035 A 
HETATM   26  C11 UNL     1      25.967   1.399  53.465  1.00  0.00     0.032 A 
HETATM   27  C12 UNL     1      27.060   2.170  53.807  1.00  0.00     0.046 A 
HETATM   28  C13 UNL     1      28.353   1.660  53.843  1.00  0.00     0.138 A 
HETATM   29  F1  UNL     1      29.430   2.408  54.177  1.00  0.00    -0.204 F 
HETATM   30  C14 UNL     1      28.484   0.330  53.514  1.00  0.00     0.074 A 
HETATM   31 CL1  UNL     1      30.083  -0.406  53.531  1.00  0.00    -0.081 Cl
HETATM   32  C15 UNL     1      27.404  -0.467  53.166  1.00  0.00     0.056 A 
ENDBRANCH  23  25
ENDBRANCH   4  23
TORSDOF 7
ENDMDL
MODEL 5
REMARK VINA RESULT:      -8.3      2.436      3.082
REMARK  7 active torsions:
REMARK  status: ('A' for Active; 'I' for Inactive)
REMARK    1  A    between atoms: O1_1  and  C1_2 
REMARK    2  A    between atoms: C3_4  and  O2_5 
REMARK    3  A    between atoms: O2_5  and  C4_6 
REMARK    4  A    between atoms: C4_6  and  C5_7 
REMARK    5  A    between atoms: C5_7  and  C6_8 
REMARK    6  A    between atoms: C9_11  and  N1_12 
REMARK    7  A    between atoms: N1_12  and  C10_13 
ROOT
HETATM    1  C6  UNL     1      22.431   2.133  49.074  1.00  0.00    -0.012 A 
HETATM    2  C7  UNL     1      23.114   2.146  50.259  1.00  0.00     0.033 A 
HETATM    3  C8  UNL     1      22.681   1.494  51.367  1.00  0.00     0.047 A 
HETATM    4  C9  UNL     1      23.288   1.442  52.593  1.00  0.00     0.142 A 
HETATM    5  N2  UNL     1      22.743   0.758  53.595  1.00  0.00    -0.223 NA
HETATM    6  C16 UNL     1      21.594   0.085  53.485  1.00  0.00     0.236 A 
HETATM    7  N3  UNL     1      20.905   0.055  52.345  1.00  0.00    -0.234 NA
HETATM    8  C17 UNL     1      21.437   0.768  51.243  1.00  0.00     0.113 A 
HETATM    9  S1  UNL     1      20.992   1.112  49.453  1.00  0.00    -0.074 SA
ENDROOT
BRANCH   1  10
HETATM   10  C5  UNL     1      22.515   2.641  47.755  1.00  0.00     0.073 C 
BRANCH  10  11
HETATM   11  C4  UNL     1      21.912   4.028  47.691  1.00  0.00     0.180 C 
BRANCH  11  12
HETATM   12  O2  UNL     1      22.882   5.041  47.534  1.00  0.00    -0.355 OA
BRANCH  12  13
HETATM   13  C3  UNL     1      23.421   5.723  48.635  1.00  0.00     0.051 C 
HETATM   14  C2  UNL     1      24.861   6.182  48.629  1.00  0.00     0.128 C 
HETATM   15  C1  UNL     1      25.477   6.501  49.855  1.00  0.00     0.166 A 
HETATM   16  C20 UNL     1      24.540   6.961  50.973  1.00  0.00     0.131 A 
HETATM   17  N4  UNL     1      25.994   7.266  50.817  1.00  0.00    -0.370 N 
HETATM   18  C19 UNL     1      23.312   6.600  50.748  1.00  0.00     0.014 C 
HETATM   19  C18 UNL     1      22.616   5.939  49.662  1.00  0.00     0.031 C 
HETATM   20  H16 UNL     1      26.786   7.776  51.256  1.00  0.00     0.157 HD
BRANCH  15  21
HETATM   21  O1  UNL     1      25.869   5.044  50.446  1.00  0.00    -0.368 OA
HETATM   22  H1  UNL     1      26.086   5.372  51.352  1.00  0.00     0.212 HD
ENDBRANCH  15  21
ENDBRANCH  12  13
ENDBRANCH  11  12
ENDBRANCH  10  11
ENDBRANCH   1  10
BRANCH   4  23
HETATM   23  N1  UNL     1      24.512   2.105  52.877  1.00  0.00    -0.340 N 
HETATM   24  H9  UNL     1      24.529   3.144  52.984  1.00  0.00     0.167 HD
BRANCH  23  25
HETATM   25  C10 UNL     1      25.717   1.362  53.018  1.00  0.00     0.035 A 
HETATM   26  C11 UNL     1      26.841   1.961  53.550  1.00  0.00     0.032 A 
HETATM   27  C12 UNL     1      28.008   1.236  53.687  1.00  0.00     0.046 A 
HETATM   28  C13 UNL     1      28.110  -0.098  53.308  1.00  0.00     0.138 A 
HETATM   29  F1  UNL     1      29.249  -0.816  53.438  1.00  0.00    -0.204 F 
HETATM   30  C14 UNL     1      26.969  -0.661  52.782  1.00  0.00     0.074 A 
HETATM   31 CL1  UNL     1      27.000  -2.345  52.272  1.00  0.00    -0.081 Cl
HETATM   32  C15 UNL     1      25.785   0.043  52.632  1.00  0.00     0.056 A 
ENDBRANCH  23  25
ENDBRANCH   4  23
TORSDOF 7
ENDMDL
MODEL 6
REMARK VINA RESULT:      -8.3      5.388      7.355
REMARK  7 active torsions:
REMARK  status: ('A' for Active; 'I' for Inactive)
REMARK    1  A    between atoms: O1_1  and  C1_2 
REMARK    2  A    between atoms: C3_4  and  O2_5 
REMARK    3  A    between atoms: O2_5  and  C4_6 
REMARK    4  A    between atoms: C4_6  and  C5_7 
REMARK    5  A    between atoms: C5_7  and  C6_8 
REMARK    6  A    between atoms: C9_11  and  N1_12 
REMARK    7  A    between atoms: N1_12  and  C10_13 
ROOT
HETATM    1  C6  UNL     1      26.144   4.805  49.341  1.00  0.00    -0.012 A 
HETATM    2  C7  UNL     1      25.279   3.843  49.784  1.00  0.00     0.033 A 
HETATM    3  C8  UNL     1      24.127   4.132  50.438  1.00  0.00     0.047 A 
HETATM    4  C9  UNL     1      23.197   3.248  50.917  1.00  0.00     0.142 A 
HETATM    5  N2  UNL     1      22.104   3.678  51.542  1.00  0.00    -0.223 NA
HETATM    6  C16 UNL     1      21.838   4.972  51.746  1.00  0.00     0.236 A 
HETATM    7  N3  UNL     1      22.662   5.933  51.328  1.00  0.00    -0.234 NA
HETATM    8  C17 UNL     1      23.841   5.532  50.656  1.00  0.00     0.113 A 
HETATM    9  S1  UNL     1      25.337   6.336  49.855  1.00  0.00    -0.074 SA
ENDROOT
BRANCH   1  10
HETATM   10  C5  UNL     1      27.377   4.941  48.660  1.00  0.00     0.073 C 
BRANCH  10  11
HETATM   11  C4  UNL     1      27.644   6.397  48.348  1.00  0.00     0.180 C 
BRANCH  11  12
HETATM   12  O2  UNL     1      28.726   6.580  47.460  1.00  0.00    -0.355 OA
BRANCH  12  13
HETATM   13  C3  UNL     1      30.048   6.676  47.919  1.00  0.00     0.051 C 
HETATM   14  C2  UNL     1      30.889   5.434  48.115  1.00  0.00     0.128 C 
HETATM   15  C1  UNL     1      32.039   5.514  48.924  1.00  0.00     0.166 A 
HETATM   16  C20 UNL     1      32.691   6.894  49.023  1.00  0.00     0.131 A 
HETATM   17  N4  UNL     1      33.336   5.563  49.228  1.00  0.00    -0.370 N 
HETATM   18  C19 UNL     1      31.866   7.840  48.684  1.00  0.00     0.014 C 
HETATM   19  C18 UNL     1      30.513   7.889  48.167  1.00  0.00     0.031 C 
HETATM   20  H16 UNL     1      34.241   5.106  49.455  1.00  0.00     0.157 HD
BRANCH  15  21
HETATM   21  O1  UNL     1      31.426   5.423  50.422  1.00  0.00    -0.368 OA
HETATM   22  H1  UNL     1      32.290   5.566  50.879  1.00  0.00     0.212 HD
ENDBRANCH  15  21
ENDBRANCH  12  13
ENDBRANCH  11  12
ENDBRANCH  10  11
ENDBRANCH   1  10
BRANCH   4  23
HETATM   23  N1  UNL     1      23.331   1.840  50.786  1.00  0.00    -0.340 N 
HETATM   24  H9  UNL     1      23.100   1.377  49.877  1.00  0.00     0.167 HD
BRANCH  23  25
HETATM   25  C10 UNL     1      23.780   1.054  51.883  1.00  0.00     0.035 A 
HETATM   26  C11 UNL     1      25.131   0.913  52.128  1.00  0.00     0.032 A 
HETATM   27  C12 UNL     1      25.562   0.151  53.196  1.00  0.00     0.046 A 
HETATM   28  C13 UNL     1      24.683  -0.497  54.056  1.00  0.00     0.138 A 
HETATM   29  F1  UNL     1      25.096  -1.246  55.104  1.00  0.00    -0.204 F 
HETATM   30  C14 UNL     1      23.344  -0.334  53.780  1.00  0.00     0.074 A 
HETATM   31 CL1  UNL     1      22.153  -1.117  54.814  1.00  0.00    -0.081 Cl
HETATM   32  C15 UNL     1      22.883   0.424  52.716  1.00  0.00     0.056 A 
ENDBRANCH  23  25
ENDBRANCH   4  23
TORSDOF 7
ENDMDL
MODEL 7
REMARK VINA RESULT:      -8.1      6.178      8.645
REMARK  7 active torsions:
REMARK  status: ('A' for Active; 'I' for Inactive)
REMARK    1  A    between atoms: O1_1  and  C1_2 
REMARK    2  A    between atoms: C3_4  and  O2_5 
REMARK    3  A    between atoms: O2_5  and  C4_6 
REMARK    4  A    between atoms: C4_6  and  C5_7 
REMARK    5  A    between atoms: C5_7  and  C6_8 
REMARK    6  A    between atoms: C9_11  and  N1_12 
REMARK    7  A    between atoms: N1_12  and  C10_13 
ROOT
HETATM    1  C6  UNL     1      28.109   5.930  48.253  1.00  0.00    -0.012 A 
HETATM    2  C7  UNL     1      27.604   4.823  48.876  1.00  0.00     0.033 A 
HETATM    3  C8  UNL     1      26.337   4.761  49.357  1.00  0.00     0.047 A 
HETATM    4  C9  UNL     1      25.737   3.706  49.991  1.00  0.00     0.142 A 
HETATM    5  N2  UNL     1      24.478   3.788  50.410  1.00  0.00    -0.223 NA
HETATM    6  C16 UNL     1      23.721   4.877  50.249  1.00  0.00     0.236 A 
HETATM    7  N3  UNL     1      24.185   5.972  49.647  1.00  0.00    -0.234 NA
HETATM    8  C17 UNL     1      25.521   5.941  49.180  1.00  0.00     0.113 A 
HETATM    9  S1  UNL     1      26.720   7.081  48.294  1.00  0.00    -0.074 SA
ENDROOT
BRANCH   1  10
HETATM   10  C5  UNL     1      29.297   6.396  47.640  1.00  0.00     0.073 C 
BRANCH  10  11
HETATM   11  C4  UNL     1      30.352   6.675  48.688  1.00  0.00     0.180 C 
BRANCH  11  12
HETATM   12  O2  UNL     1      31.051   5.517  49.086  1.00  0.00    -0.355 OA
BRANCH  12  13
HETATM   13  C3  UNL     1      32.260   5.141  48.481  1.00  0.00     0.051 C 
HETATM   14  C2  UNL     1      32.308   3.994  47.498  1.00  0.00     0.128 C 
HETATM   15  C1  UNL     1      33.550   3.395  47.213  1.00  0.00     0.166 A 
HETATM   16  C20 UNL     1      34.779   4.288  47.395  1.00  0.00     0.131 A 
HETATM   17  N4  UNL     1      34.644   3.090  46.514  1.00  0.00    -0.370 N 
HETATM   18  C19 UNL     1      34.522   5.307  48.160  1.00  0.00     0.014 C 
HETATM   19  C18 UNL     1      33.338   5.833  48.811  1.00  0.00     0.031 C 
HETATM   20  H16 UNL     1      35.160   2.500  45.831  1.00  0.00     0.157 HD
BRANCH  15  21
HETATM   21  O1  UNL     1      33.770   2.412  48.482  1.00  0.00    -0.368 OA
HETATM   22  H1  UNL     1      32.906   2.627  48.910  1.00  0.00     0.212 HD
ENDBRANCH  15  21
ENDBRANCH  12  13
ENDBRANCH  11  12
ENDBRANCH  10  11
ENDBRANCH   1  10
BRANCH   4  23
HETATM   23  N1  UNL     1      26.404   2.477  50.243  1.00  0.00    -0.340 N 
HETATM   24  H9  UNL     1      26.869   1.965  49.459  1.00  0.00     0.167 HD
BRANCH  23  25
HETATM   25  C10 UNL     1      26.447   1.938  51.559  1.00  0.00     0.035 A 
HETATM   26  C11 UNL     1      27.456   2.305  52.426  1.00  0.00     0.032 A 
HETATM   27  C12 UNL     1      27.492   1.780  53.703  1.00  0.00     0.046 A 
HETATM   28  C13 UNL     1      26.541   0.881  54.170  1.00  0.00     0.138 A 
HETATM   29  F1  UNL     1      26.568   0.361  55.419  1.00  0.00    -0.204 F 
HETATM   30  C14 UNL     1      25.550   0.537  53.277  1.00  0.00     0.074 A 
HETATM   31 CL1  UNL     1      24.300  -0.597  53.777  1.00  0.00    -0.081 Cl
HETATM   32  C15 UNL     1      25.490   1.047  51.990  1.00  0.00     0.056 A 
ENDBRANCH  23  25
ENDBRANCH   4  23
TORSDOF 7
ENDMDL
MODEL 8
REMARK VINA RESULT:      -8.1      3.807      6.867
REMARK  7 active torsions:
REMARK  status: ('A' for Active; 'I' for Inactive)
REMARK    1  A    between atoms: O1_1  and  C1_2 
REMARK    2  A    between atoms: C3_4  and  O2_5 
REMARK    3  A    between atoms: O2_5  and  C4_6 
REMARK    4  A    between atoms: C4_6  and  C5_7 
REMARK    5  A    between atoms: C5_7  and  C6_8 
REMARK    6  A    between atoms: C9_11  and  N1_12 
REMARK    7  A    between atoms: N1_12  and  C10_13 
ROOT
HETATM    1  C6  UNL     1      24.752   4.103  49.578  1.00  0.00    -0.012 A 
HETATM    2  C7  UNL     1      23.688   3.259  49.740  1.00  0.00     0.033 A 
HETATM    3  C8  UNL     1      22.423   3.700  49.952  1.00  0.00     0.047 A 
HETATM    4  C9  UNL     1      21.295   2.943  50.123  1.00  0.00     0.142 A 
HETATM    5  N2  UNL     1      20.112   3.517  50.322  1.00  0.00    -0.223 NA
HETATM    6  C16 UNL     1      19.938   4.841  50.369  1.00  0.00     0.236 A 
HETATM    7  N3  UNL     1      20.954   5.689  50.216  1.00  0.00    -0.234 NA
HETATM    8  C17 UNL     1      22.239   5.133  50.001  1.00  0.00     0.113 A 
HETATM    9  S1  UNL     1      23.995   5.735  49.723  1.00  0.00    -0.074 SA
ENDROOT
BRANCH   1  10
HETATM   10  C5  UNL     1      26.149   4.075  49.351  1.00  0.00     0.073 C 
BRANCH  10  11
HETATM   11  C4  UNL     1      26.812   3.091  50.290  1.00  0.00     0.180 C 
BRANCH  11  12
HETATM   12  O2  UNL     1      26.173   3.015  51.546  1.00  0.00    -0.355 OA
BRANCH  12  13
HETATM   13  C3  UNL     1      26.160   1.830  52.296  1.00  0.00     0.051 C 
HETATM   14  C2  UNL     1      25.952   1.866  53.793  1.00  0.00     0.128 C 
HETATM   15  C1  UNL     1      26.325   0.743  54.558  1.00  0.00     0.166 A 
HETATM   16  C20 UNL     1      26.312  -0.599  53.823  1.00  0.00     0.131 A 
HETATM   17  N4  UNL     1      26.171  -0.360  55.290  1.00  0.00    -0.370 N 
HETATM   18  C19 UNL     1      26.356  -0.440  52.534  1.00  0.00     0.014 C 
HETATM   19  C18 UNL     1      26.336   0.697  51.635  1.00  0.00     0.031 C 
HETATM   20  H16 UNL     1      26.037  -0.844  56.201  1.00  0.00     0.157 HD
BRANCH  15  21
HETATM   21  O1  UNL     1      27.929   0.928  54.703  1.00  0.00    -0.368 OA
HETATM   22  H1  UNL     1      28.130   0.684  53.767  1.00  0.00     0.212 HD
ENDBRANCH  15  21
ENDBRANCH  12  13
ENDBRANCH  11  12
ENDBRANCH  10  11
ENDBRANCH   1  10
BRANCH   4  23
HETATM   23  N1  UNL     1      21.309   1.523  50.104  1.00  0.00    -0.340 N 
HETATM   24  H9  UNL     1      21.339   1.014  49.192  1.00  0.00     0.167 HD
BRANCH  23  25
HETATM   25  C10 UNL     1      21.284   0.786  51.321  1.00  0.00     0.035 A 
HETATM   26  C11 UNL     1      22.436   0.642  52.068  1.00  0.00     0.032 A 
HETATM   27  C12 UNL     1      22.406  -0.072  53.249  1.00  0.00     0.046 A 
HETATM   28  C13 UNL     1      21.248  -0.667  53.736  1.00  0.00     0.138 A 
HETATM   29  F1  UNL     1      21.210  -1.369  54.892  1.00  0.00    -0.204 F 
HETATM   30  C14 UNL     1      20.119  -0.503  52.964  1.00  0.00     0.074 A 
HETATM   31 CL1  UNL     1      18.603  -1.221  53.498  1.00  0.00    -0.081 Cl
HETATM   32  C15 UNL     1      20.120   0.208  51.774  1.00  0.00     0.056 A 
ENDBRANCH  23  25
ENDBRANCH   4  23
TORSDOF 7
ENDMDL
MODEL 9
REMARK VINA RESULT:      -7.9      3.639      4.671
REMARK  7 active torsions:
REMARK  status: ('A' for Active; 'I' for Inactive)
REMARK    1  A    between atoms: O1_1  and  C1_2 
REMARK    2  A    between atoms: C3_4  and  O2_5 
REMARK    3  A    between atoms: O2_5  and  C4_6 
REMARK    4  A    between atoms: C4_6  and  C5_7 
REMARK    5  A    between atoms: C5_7  and  C6_8 
REMARK    6  A    between atoms: C9_11  and  N1_12 
REMARK    7  A    between atoms: N1_12  and  C10_13 
ROOT
HETATM    1  C6  UNL     1      24.407   3.032  51.258  1.00  0.00    -0.012 A 
HETATM    2  C7  UNL     1      24.478   2.085  52.242  1.00  0.00     0.033 A 
HETATM    3  C8  UNL     1      23.546   1.112  52.398  1.00  0.00     0.047 A 
HETATM    4  C9  UNL     1      23.526   0.121  53.343  1.00  0.00     0.142 A 
HETATM    5  N2  UNL     1      22.541  -0.773  53.374  1.00  0.00    -0.223 NA
HETATM    6  C16 UNL     1      21.523  -0.772  52.507  1.00  0.00     0.236 A 
HETATM    7  N3  UNL     1      21.425   0.137  51.539  1.00  0.00    -0.234 NA
HETATM    8  C17 UNL     1      22.447   1.115  51.459  1.00  0.00     0.113 A 
HETATM    9  S1  UNL     1      22.886   2.594  50.390  1.00  0.00    -0.074 SA
ENDROOT
BRANCH   1  10
HETATM   10  C5  UNL     1      25.113   4.155  50.765  1.00  0.00     0.073 C 
BRANCH  10  11
HETATM   11  C4  UNL     1      25.757   3.825  49.436  1.00  0.00     0.180 C 
BRANCH  11  12
HETATM   12  O2  UNL     1      27.135   4.130  49.402  1.00  0.00    -0.355 OA
BRANCH  12  13
HETATM   13  C3  UNL     1      27.630   5.223  48.675  1.00  0.00     0.051 C 
HETATM   14  C2  UNL     1      29.067   5.250  48.204  1.00  0.00     0.128 C 
HETATM   15  C1  UNL     1      29.637   6.483  47.835  1.00  0.00     0.166 A 
HETATM   16  C20 UNL     1      28.659   7.550  47.342  1.00  0.00     0.131 A 
HETATM   17  N4  UNL     1      30.114   7.433  47.030  1.00  0.00    -0.370 N 
HETATM   18  C19 UNL     1      27.441   7.297  47.720  1.00  0.00     0.014 C 
HETATM   19  C18 UNL     1      26.788   6.213  48.427  1.00  0.00     0.031 C 
HETATM   20  H16 UNL     1      30.888   7.879  46.498  1.00  0.00     0.157 HD
BRANCH  15  21
HETATM   21  O1  UNL     1      30.018   7.141  49.266  1.00  0.00    -0.368 OA
HETATM   22  H1  UNL     1      29.189   7.674  49.340  1.00  0.00     0.212 HD
ENDBRANCH  15  21
ENDBRANCH  12  13
ENDBRANCH  11  12
ENDBRANCH  10  11
ENDBRANCH   1  10
BRANCH   4  23
HETATM   23  N1  UNL     1      24.530  -0.017  54.337  1.00  0.00    -0.340 N 
HETATM   24  H9  UNL     1      24.279   0.076  55.348  1.00  0.00     0.167 HD
BRANCH  23  25
HETATM   25  C10 UNL     1      25.878  -0.282  53.969  1.00  0.00     0.035 A 
HETATM   26  C11 UNL     1      26.174  -1.353  53.151  1.00  0.00     0.032 A 
HETATM   27  C12 UNL     1      27.484  -1.605  52.793  1.00  0.00     0.046 A 
HETATM   28  C13 UNL     1      28.543  -0.816  53.225  1.00  0.00     0.138 A 
HETATM   29  F1  UNL     1      29.830  -1.056  52.881  1.00  0.00    -0.204 F 
HETATM   30  C14 UNL     1      28.210   0.243  54.040  1.00  0.00     0.074 A 
HETATM   31 CL1  UNL     1      29.484   1.300  54.639  1.00  0.00    -0.081 Cl
HETATM   32  C15 UNL     1      26.905   0.520  54.415  1.00  0.00     0.056 A 
ENDBRANCH  23  25
ENDBRANCH   4  23
TORSDOF 7
ENDMDL
