MODEL 1
REMARK VINA RESULT:      -7.3      0.000      0.000
REMARK  7 active torsions:
REMARK  status: ('A' for Active; 'I' for Inactive)
REMARK    1  A    between atoms: O1_2  and  C2_3 
REMARK    2  A    between atoms: C2_3  and  C3_4 
REMARK    3  A    between atoms: C3_4  and  O2_5 
REMARK    4  A    between atoms: O2_5  and  C4_6 
REMARK    5  A    between atoms: C8_12  and  N3_13 
REMARK    6  A    between atoms: N3_13  and  C9_14 
REMARK    7  A    between atoms: C11_16  and  C12_17 
ROOT
HETATM    1  C4  UNL     1      26.063  -0.426  53.464  1.00  0.00     0.107 A 
HETATM    2  C5  UNL     1      24.965  -0.859  54.173  1.00  0.00     0.072 A 
HETATM    3  C6  UNL     1      23.655  -0.473  54.037  1.00  0.00     0.077 A 
HETATM    4  N1  UNL     1      22.690  -1.005  54.813  1.00  0.00    -0.241 NA
HETATM    5  C7  UNL     1      21.414  -0.594  54.635  1.00  0.00     0.236 A 
HETATM    6  N2  UNL     1      21.109   0.340  53.688  1.00  0.00    -0.223 NA
HETATM    7  C8  UNL     1      22.087   0.858  52.924  1.00  0.00     0.144 A 
HETATM    8  C14 UNL     1      23.397   0.471  53.069  1.00  0.00     0.075 A 
HETATM    9  C15 UNL     1      24.409   0.989  52.288  1.00  0.00     0.121 A 
HETATM   10  C16 UNL     1      25.715   0.539  52.494  1.00  0.00     0.136 A 
HETATM   11  O3  UNL     1      26.542   1.213  51.585  1.00  0.00    -0.344 OA
HETATM   12  C17 UNL     1      26.318   2.602  51.298  1.00  0.00     0.202 C 
HETATM   13  C18 UNL     1      24.959   2.737  50.664  1.00  0.00     0.202 C 
HETATM   14  O4  UNL     1      23.991   1.931  51.353  1.00  0.00    -0.345 OA
ENDROOT
BRANCH   7  15
HETATM   15  N3  UNL     1      21.682   1.811  51.983  1.00  0.00    -0.344 N 
HETATM   16  H10 UNL     1      21.922   2.822  52.085  1.00  0.00     0.167 HD
BRANCH  15  17
HETATM   17  C9  UNL     1      20.911   1.369  50.842  1.00  0.00     0.007 C 
HETATM   18  C10 UNL     1      21.322   0.785  49.529  1.00  0.00     0.068 C 
HETATM   19  C11 UNL     1      19.583   1.523  51.012  1.00  0.00     0.025 C 
BRANCH  19  20
HETATM   20  C12 UNL     1      18.632   1.145  49.992  1.00  0.00     0.014 C 
HETATM   21  C13 UNL     1      17.624   0.323  50.202  1.00  0.00     0.084 C 
HETATM   22 CL1  UNL     1      16.653  -0.730  51.206  1.00  0.00    -0.097 Cl
ENDBRANCH  19  20
ENDBRANCH  15  17
ENDBRANCH   7  15
BRANCH   1  23
HETATM   23  O2  UNL     1      27.291  -0.630  53.418  1.00  0.00    -0.346 OA
BRANCH  23  24
HETATM   24  C3  UNL     1      28.563  -0.844  53.388  1.00  0.00     0.201 C 
BRANCH  24  25
HETATM   25  C2  UNL     1      29.516   0.163  53.947  1.00  0.00     0.193 C 
BRANCH  25  26
HETATM   26  O1  UNL     1      29.037   1.268  54.484  1.00  0.00    -0.394 OA
HETATM   27  C1  UNL     1      28.906   2.440  53.857  1.00  0.00     0.201 C 
ENDBRANCH  25  26
ENDBRANCH  24  25
ENDBRANCH  23  24
ENDBRANCH   1  23
TORSDOF 7
ENDMDL
MODEL 2
REMARK VINA RESULT:      -7.2      1.787      2.163
REMARK  7 active torsions:
REMARK  status: ('A' for Active; 'I' for Inactive)
REMARK    1  A    between atoms: O1_2  and  C2_3 
REMARK    2  A    between atoms: C2_3  and  C3_4 
REMARK    3  A    between atoms: C3_4  and  O2_5 
REMARK    4  A    between atoms: O2_5  and  C4_6 
REMARK    5  A    between atoms: C8_12  and  N3_13 
REMARK    6  A    between atoms: N3_13  and  C9_14 
REMARK    7  A    between atoms: C11_16  and  C12_17 
ROOT
HETATM    1  C4  UNL     1      25.896  -0.234  54.476  1.00  0.00     0.107 A 
HETATM    2  C5  UNL     1      24.790  -0.871  54.992  1.00  0.00     0.072 A 
HETATM    3  C6  UNL     1      23.507  -0.878  54.507  1.00  0.00     0.077 A 
HETATM    4  N1  UNL     1      22.532  -1.565  55.135  1.00  0.00    -0.241 NA
HETATM    5  C7  UNL     1      21.284  -1.544  54.612  1.00  0.00     0.236 A 
HETATM    6  N2  UNL     1      21.017  -0.842  53.473  1.00  0.00    -0.223 NA
HETATM    7  C8  UNL     1      22.005  -0.163  52.863  1.00  0.00     0.144 A 
HETATM    8  C14 UNL     1      23.288  -0.156  53.356  1.00  0.00     0.075 A 
HETATM    9  C15 UNL     1      24.311   0.531  52.736  1.00  0.00     0.121 A 
HETATM   10  C16 UNL     1      25.589   0.484  53.299  1.00  0.00     0.136 A 
HETATM   11  O3  UNL     1      26.435   1.254  52.489  1.00  0.00    -0.344 OA
HETATM   12  C17 UNL     1      25.966   2.486  51.921  1.00  0.00     0.202 C 
HETATM   13  C18 UNL     1      24.824   2.170  50.992  1.00  0.00     0.202 C 
HETATM   14  O4  UNL     1      23.934   1.211  51.583  1.00  0.00    -0.345 OA
ENDROOT
BRANCH   7  15
HETATM   15  N3  UNL     1      21.640   0.530  51.704  1.00  0.00    -0.344 N 
HETATM   16  H10 UNL     1      22.322   0.717  50.935  1.00  0.00     0.167 HD
BRANCH  15  17
HETATM   17  C9  UNL     1      20.275   0.994  51.579  1.00  0.00     0.007 C 
HETATM   18  C10 UNL     1      19.021   0.296  51.166  1.00  0.00     0.068 C 
HETATM   19  C11 UNL     1      20.132   2.298  51.891  1.00  0.00     0.025 C 
BRANCH  19  20
HETATM   20  C12 UNL     1      18.850   2.961  51.832  1.00  0.00     0.014 C 
HETATM   21  C13 UNL     1      18.593   3.983  51.042  1.00  0.00     0.084 C 
HETATM   22 CL1  UNL     1      19.028   5.167  49.830  1.00  0.00    -0.097 Cl
ENDBRANCH  19  20
ENDBRANCH  15  17
ENDBRANCH   7  15
BRANCH   1  23
HETATM   23  O2  UNL     1      27.107  -0.096  54.736  1.00  0.00    -0.346 OA
BRANCH  23  24
HETATM   24  C3  UNL     1      28.362   0.061  54.992  1.00  0.00     0.201 C 
BRANCH  24  25
HETATM   25  C2  UNL     1      29.369   0.059  53.887  1.00  0.00     0.193 C 
BRANCH  25  26
HETATM   26  O1  UNL     1      29.924  -1.084  53.530  1.00  0.00    -0.394 OA
HETATM   27  C1  UNL     1      29.265  -2.212  53.255  1.00  0.00     0.201 C 
ENDBRANCH  25  26
ENDBRANCH  24  25
ENDBRANCH  23  24
ENDBRANCH   1  23
TORSDOF 7
ENDMDL
MODEL 3
REMARK VINA RESULT:      -7.1      1.659      3.420
REMARK  7 active torsions:
REMARK  status: ('A' for Active; 'I' for Inactive)
REMARK    1  A    between atoms: O1_2  and  C2_3 
REMARK    2  A    between atoms: C2_3  and  C3_4 
REMARK    3  A    between atoms: C3_4  and  O2_5 
REMARK    4  A    between atoms: O2_5  and  C4_6 
REMARK    5  A    between atoms: C8_12  and  N3_13 
REMARK    6  A    between atoms: N3_13  and  C9_14 
REMARK    7  A    between atoms: C11_16  and  C12_17 
ROOT
HETATM    1  C4  UNL     1      26.610   2.306  52.345  1.00  0.00     0.107 A 
HETATM    2  C5  UNL     1      26.062   2.854  51.207  1.00  0.00     0.072 A 
HETATM    3  C6  UNL     1      24.821   2.631  50.666  1.00  0.00     0.077 A 
HETATM    4  N1  UNL     1      24.433   3.260  49.539  1.00  0.00    -0.241 NA
HETATM    5  C7  UNL     1      23.197   3.010  49.050  1.00  0.00     0.236 A 
HETATM    6  N2  UNL     1      22.360   2.137  49.684  1.00  0.00    -0.223 NA
HETATM    7  C8  UNL     1      22.768   1.520  50.806  1.00  0.00     0.144 A 
HETATM    8  C14 UNL     1      24.014   1.744  51.341  1.00  0.00     0.075 A 
HETATM    9  C15 UNL     1      24.442   1.123  52.496  1.00  0.00     0.121 A 
HETATM   10  C16 UNL     1      25.722   1.408  52.977  1.00  0.00     0.136 A 
HETATM   11  O3  UNL     1      25.910   0.657  54.146  1.00  0.00    -0.344 OA
HETATM   12  C17 UNL     1      25.417  -0.689  54.226  1.00  0.00     0.202 C 
HETATM   13  C18 UNL     1      23.917  -0.647  54.103  1.00  0.00     0.202 C 
HETATM   14  O4  UNL     1      23.514   0.256  53.063  1.00  0.00    -0.345 OA
ENDROOT
BRANCH   7  15
HETATM   15  N3  UNL     1      21.846   0.641  51.386  1.00  0.00    -0.344 N 
HETATM   16  H10 UNL     1      22.089  -0.354  51.594  1.00  0.00     0.167 HD
BRANCH  15  17
HETATM   17  C9  UNL     1      20.524   1.137  51.701  1.00  0.00     0.007 C 
HETATM   18  C10 UNL     1      20.069   2.361  52.426  1.00  0.00     0.068 C 
HETATM   19  C11 UNL     1      19.539   0.333  51.255  1.00  0.00     0.025 C 
BRANCH  19  20
HETATM   20  C12 UNL     1      18.144   0.643  51.465  1.00  0.00     0.014 C 
HETATM   21  C13 UNL     1      17.286  -0.191  52.015  1.00  0.00     0.084 C 
HETATM   22 CL1  UNL     1      16.842  -1.716  52.746  1.00  0.00    -0.097 Cl
ENDBRANCH  19  20
ENDBRANCH  15  17
ENDBRANCH   7  15
BRANCH   1  23
HETATM   23  O2  UNL     1      27.670   2.361  52.998  1.00  0.00    -0.346 OA
BRANCH  23  24
HETATM   24  C3  UNL     1      28.765   2.401  53.679  1.00  0.00     0.201 C 
BRANCH  24  25
HETATM   25  C2  UNL     1      29.324   1.158  54.293  1.00  0.00     0.193 C 
BRANCH  25  26
HETATM   26  O1  UNL     1      29.724   0.179  53.505  1.00  0.00    -0.394 OA
HETATM   27  C1  UNL     1      29.233  -1.063  53.501  1.00  0.00     0.201 C 
ENDBRANCH  25  26
ENDBRANCH  24  25
ENDBRANCH  23  24
ENDBRANCH   1  23
TORSDOF 7
ENDMDL
MODEL 4
REMARK VINA RESULT:      -6.9      3.811      7.774
REMARK  7 active torsions:
REMARK  status: ('A' for Active; 'I' for Inactive)
REMARK    1  A    between atoms: O1_2  and  C2_3 
REMARK    2  A    between atoms: C2_3  and  C3_4 
REMARK    3  A    between atoms: C3_4  and  O2_5 
REMARK    4  A    between atoms: O2_5  and  C4_6 
REMARK    5  A    between atoms: C8_12  and  N3_13 
REMARK    6  A    between atoms: N3_13  and  C9_14 
REMARK    7  A    between atoms: C11_16  and  C12_17 
ROOT
HETATM    1  C4  UNL     1      19.924   1.102  51.821  1.00  0.00     0.107 A 
HETATM    2  C5  UNL     1      20.341   2.358  51.443  1.00  0.00     0.072 A 
HETATM    3  C6  UNL     1      21.543   2.970  51.695  1.00  0.00     0.077 A 
HETATM    4  N1  UNL     1      21.797   4.214  51.242  1.00  0.00    -0.241 NA
HETATM    5  C7  UNL     1      23.000   4.769  51.514  1.00  0.00     0.236 A 
HETATM    6  N2  UNL     1      23.938   4.085  52.231  1.00  0.00    -0.223 NA
HETATM    7  C8  UNL     1      23.664   2.845  52.673  1.00  0.00     0.144 A 
HETATM    8  C14 UNL     1      22.456   2.240  52.422  1.00  0.00     0.075 A 
HETATM    9  C15 UNL     1      22.164   0.966  52.863  1.00  0.00     0.121 A 
HETATM   10  C16 UNL     1      20.915   0.420  52.561  1.00  0.00     0.136 A 
HETATM   11  O3  UNL     1      20.871  -0.866  53.118  1.00  0.00    -0.344 OA
HETATM   12  C17 UNL     1      21.449  -1.114  54.408  1.00  0.00     0.202 C 
HETATM   13  C18 UNL     1      22.928  -0.848  54.319  1.00  0.00     0.202 C 
HETATM   14  O4  UNL     1      23.188   0.356  53.582  1.00  0.00    -0.345 OA
ENDROOT
BRANCH   7  15
HETATM   15  N3  UNL     1      24.682   2.221  53.402  1.00  0.00    -0.344 N 
HETATM   16  H10 UNL     1      24.513   1.819  54.352  1.00  0.00     0.167 HD
BRANCH  15  17
HETATM   17  C9  UNL     1      26.000   2.135  52.811  1.00  0.00     0.007 C 
HETATM   18  C10 UNL     1      26.448   2.025  51.391  1.00  0.00     0.068 C 
HETATM   19  C11 UNL     1      26.990   2.156  53.726  1.00  0.00     0.025 C 
BRANCH  19  20
HETATM   20  C12 UNL     1      28.382   2.080  53.349  1.00  0.00     0.014 C 
HETATM   21  C13 UNL     1      29.138   1.022  53.556  1.00  0.00     0.084 C 
HETATM   22 CL1  UNL     1      29.421  -0.604  54.134  1.00  0.00    -0.097 Cl
ENDBRANCH  19  20
ENDBRANCH  15  17
ENDBRANCH   7  15
BRANCH   1  23
HETATM   23  O2  UNL     1      18.922   0.371  51.707  1.00  0.00    -0.346 OA
BRANCH  23  24
HETATM   24  C3  UNL     1      17.895  -0.401  51.586  1.00  0.00     0.201 C 
BRANCH  24  25
HETATM   25  C2  UNL     1      17.132  -0.847  52.791  1.00  0.00     0.193 C 
BRANCH  25  26
HETATM   26  O1  UNL     1      17.724  -1.635  53.668  1.00  0.00    -0.394 OA
HETATM   27  C1  UNL     1      17.678  -2.969  53.665  1.00  0.00     0.201 C 
ENDBRANCH  25  26
ENDBRANCH  24  25
ENDBRANCH  23  24
ENDBRANCH   1  23
TORSDOF 7
ENDMDL
MODEL 5
REMARK VINA RESULT:      -6.8      2.189      2.396
REMARK  7 active torsions:
REMARK  status: ('A' for Active; 'I' for Inactive)
REMARK    1  A    between atoms: O1_2  and  C2_3 
REMARK    2  A    between atoms: C2_3  and  C3_4 
REMARK    3  A    between atoms: C3_4  and  O2_5 
REMARK    4  A    between atoms: O2_5  and  C4_6 
REMARK    5  A    between atoms: C8_12  and  N3_13 
REMARK    6  A    between atoms: N3_13  and  C9_14 
REMARK    7  A    between atoms: C11_16  and  C12_17 
ROOT
HETATM    1  C4  UNL     1      25.484  -0.663  53.090  1.00  0.00     0.107 A 
HETATM    2  C5  UNL     1      24.230  -0.834  53.632  1.00  0.00     0.072 A 
HETATM    3  C6  UNL     1      23.121  -0.040  53.483  1.00  0.00     0.077 A 
HETATM    4  N1  UNL     1      21.955  -0.356  54.082  1.00  0.00    -0.241 NA
HETATM    5  C7  UNL     1      20.890   0.457  53.898  1.00  0.00     0.236 A 
HETATM    6  N2  UNL     1      20.993   1.576  53.122  1.00  0.00    -0.223 NA
HETATM    7  C8  UNL     1      22.165   1.872  52.534  1.00  0.00     0.144 A 
HETATM    8  C14 UNL     1      23.274   1.075  52.691  1.00  0.00     0.075 A 
HETATM    9  C15 UNL     1      24.480   1.365  52.088  1.00  0.00     0.121 A 
HETATM   10  C16 UNL     1      25.558   0.501  52.293  1.00  0.00     0.136 A 
HETATM   11  O3  UNL     1      26.651   1.014  51.582  1.00  0.00    -0.344 OA
HETATM   12  C17 UNL     1      26.887   2.429  51.542  1.00  0.00     0.202 C 
HETATM   13  C18 UNL     1      25.716   3.081  50.856  1.00  0.00     0.202 C 
HETATM   14  O4  UNL     1      24.477   2.523  51.318  1.00  0.00    -0.345 OA
ENDROOT
BRANCH   7  15
HETATM   15  N3  UNL     1      22.178   3.038  51.760  1.00  0.00    -0.344 N 
HETATM   16  H10 UNL     1      22.915   3.770  51.879  1.00  0.00     0.167 HD
BRANCH  15  17
HETATM   17  C9  UNL     1      21.139   3.221  50.771  1.00  0.00     0.007 C 
HETATM   18  C10 UNL     1      19.909   4.069  50.767  1.00  0.00     0.068 C 
HETATM   19  C11 UNL     1      21.331   2.482  49.661  1.00  0.00     0.025 C 
BRANCH  19  20
HETATM   20  C12 UNL     1      20.409   2.517  48.549  1.00  0.00     0.014 C 
HETATM   21  C13 UNL     1      20.737   2.926  47.341  1.00  0.00     0.084 C 
HETATM   22 CL1  UNL     1      21.862   3.554  46.159  1.00  0.00    -0.097 Cl
ENDBRANCH  19  20
ENDBRANCH  15  17
ENDBRANCH   7  15
BRANCH   1  23
HETATM   23  O2  UNL     1      26.591  -1.233  53.088  1.00  0.00    -0.346 OA
BRANCH  23  24
HETATM   24  C3  UNL     1      27.742  -1.816  53.068  1.00  0.00     0.201 C 
BRANCH  24  25
HETATM   25  C2  UNL     1      28.990  -1.046  53.357  1.00  0.00     0.193 C 
BRANCH  25  26
HETATM   26  O1  UNL     1      29.061  -0.334  54.466  1.00  0.00    -0.394 OA
HETATM   27  C1  UNL     1      28.840   0.980  54.558  1.00  0.00     0.201 C 
ENDBRANCH  25  26
ENDBRANCH  24  25
ENDBRANCH  23  24
ENDBRANCH   1  23
TORSDOF 7
ENDMDL
MODEL 6
REMARK VINA RESULT:      -6.8      3.785      7.646
REMARK  7 active torsions:
REMARK  status: ('A' for Active; 'I' for Inactive)
REMARK    1  A    between atoms: O1_2  and  C2_3 
REMARK    2  A    between atoms: C2_3  and  C3_4 
REMARK    3  A    between atoms: C3_4  and  O2_5 
REMARK    4  A    between atoms: O2_5  and  C4_6 
REMARK    5  A    between atoms: C8_12  and  N3_13 
REMARK    6  A    between atoms: N3_13  and  C9_14 
REMARK    7  A    between atoms: C11_16  and  C12_17 
ROOT
HETATM    1  C4  UNL     1      20.232   2.218  52.522  1.00  0.00     0.107 A 
HETATM    2  C5  UNL     1      20.343   1.206  53.449  1.00  0.00     0.072 A 
HETATM    3  C6  UNL     1      21.450   0.460  53.767  1.00  0.00     0.077 A 
HETATM    4  N1  UNL     1      21.392  -0.498  54.714  1.00  0.00    -0.241 NA
HETATM    5  C7  UNL     1      22.513  -1.202  54.994  1.00  0.00     0.236 A 
HETATM    6  N2  UNL     1      23.679  -0.948  54.331  1.00  0.00    -0.223 NA
HETATM    7  C8  UNL     1      23.714   0.011  53.389  1.00  0.00     0.144 A 
HETATM    8  C14 UNL     1      22.602   0.753  53.072  1.00  0.00     0.075 A 
HETATM    9  C15 UNL     1      22.626   1.744  52.114  1.00  0.00     0.121 A 
HETATM   10  C16 UNL     1      21.453   2.456  51.854  1.00  0.00     0.136 A 
HETATM   11  O3  UNL     1      21.742   3.393  50.851  1.00  0.00    -0.344 OA
HETATM   12  C17 UNL     1      22.602   3.039  49.758  1.00  0.00     0.202 C 
HETATM   13  C18 UNL     1      23.965   2.726  50.316  1.00  0.00     0.202 C 
HETATM   14  O4  UNL     1      23.862   1.923  51.501  1.00  0.00    -0.345 OA
ENDROOT
BRANCH   7  15
HETATM   15  N3  UNL     1      24.949   0.199  52.761  1.00  0.00    -0.344 N 
HETATM   16  H10 UNL     1      25.058   0.122  51.724  1.00  0.00     0.167 HD
BRANCH  15  17
HETATM   17  C9  UNL     1      26.101   0.511  53.580  1.00  0.00     0.007 C 
HETATM   18  C10 UNL     1      26.356   0.340  55.041  1.00  0.00     0.068 C 
HETATM   19  C11 UNL     1      27.114   1.057  52.878  1.00  0.00     0.025 C 
BRANCH  19  20
HETATM   20  C12 UNL     1      28.357   1.443  53.505  1.00  0.00     0.014 C 
HETATM   21  C13 UNL     1      29.363   0.616  53.701  1.00  0.00     0.084 C 
HETATM   22 CL1  UNL     1      30.140  -0.947  53.599  1.00  0.00    -0.097 Cl
ENDBRANCH  19  20
ENDBRANCH  15  17
ENDBRANCH   7  15
BRANCH   1  23
HETATM   23  O2  UNL     1      19.366   3.001  52.086  1.00  0.00    -0.346 OA
BRANCH  23  24
HETATM   24  C3  UNL     1      18.462   3.797  51.624  1.00  0.00     0.201 C 
BRANCH  24  25
HETATM   25  C2  UNL     1      17.060   3.321  51.424  1.00  0.00     0.193 C 
BRANCH  25  26
HETATM   26  O1  UNL     1      16.060   4.121  51.744  1.00  0.00    -0.394 OA
HETATM   27  C1  UNL     1      15.349   4.059  52.872  1.00  0.00     0.201 C 
ENDBRANCH  25  26
ENDBRANCH  24  25
ENDBRANCH  23  24
ENDBRANCH   1  23
TORSDOF 7
ENDMDL
MODEL 7
REMARK VINA RESULT:      -6.7      1.755      3.340
REMARK  7 active torsions:
REMARK  status: ('A' for Active; 'I' for Inactive)
REMARK    1  A    between atoms: O1_2  and  C2_3 
REMARK    2  A    between atoms: C2_3  and  C3_4 
REMARK    3  A    between atoms: C3_4  and  O2_5 
REMARK    4  A    between atoms: O2_5  and  C4_6 
REMARK    5  A    between atoms: C8_12  and  N3_13 
REMARK    6  A    between atoms: N3_13  and  C9_14 
REMARK    7  A    between atoms: C11_16  and  C12_17 
ROOT
HETATM    1  C4  UNL     1      25.252   0.745  52.494  1.00  0.00     0.107 A 
HETATM    2  C5  UNL     1      24.997   1.720  51.556  1.00  0.00     0.072 A 
HETATM    3  C6  UNL     1      23.820   2.380  51.310  1.00  0.00     0.077 A 
HETATM    4  N1  UNL     1      23.740   3.323  50.350  1.00  0.00    -0.241 NA
HETATM    5  C7  UNL     1      22.556   3.947  50.151  1.00  0.00     0.236 A 
HETATM    6  N2  UNL     1      21.465   3.629  50.907  1.00  0.00    -0.223 NA
HETATM    7  C8  UNL     1      21.567   2.685  51.859  1.00  0.00     0.144 A 
HETATM    8  C14 UNL     1      22.748   2.025  52.098  1.00  0.00     0.075 A 
HETATM    9  C15 UNL     1      22.867   1.059  53.075  1.00  0.00     0.121 A 
HETATM   10  C16 UNL     1      24.105   0.438  53.259  1.00  0.00     0.136 A 
HETATM   11  O3  UNL     1      23.961  -0.491  54.298  1.00  0.00    -0.344 OA
HETATM   12  C17 UNL     1      22.762  -1.274  54.406  1.00  0.00     0.202 C 
HETATM   13  C18 UNL     1      21.609  -0.336  54.643  1.00  0.00     0.202 C 
HETATM   14  O4  UNL     1      21.699   0.813  53.789  1.00  0.00    -0.345 OA
ENDROOT
BRANCH   7  15
HETATM   15  N3  UNL     1      20.397   2.423  52.581  1.00  0.00    -0.344 N 
HETATM   16  H10 UNL     1      20.381   2.436  53.626  1.00  0.00     0.167 HD
BRANCH  15  17
HETATM   17  C9  UNL     1      19.185   2.128  51.849  1.00  0.00     0.007 C 
HETATM   18  C10 UNL     1      18.011   2.977  51.485  1.00  0.00     0.068 C 
HETATM   19  C11 UNL     1      19.120   0.848  51.431  1.00  0.00     0.025 C 
BRANCH  19  20
HETATM   20  C12 UNL     1      17.993   0.345  50.682  1.00  0.00     0.014 C 
HETATM   21  C13 UNL     1      17.136  -0.536  51.156  1.00  0.00     0.084 C 
HETATM   22 CL1  UNL     1      16.521  -1.601  52.400  1.00  0.00    -0.097 Cl
ENDBRANCH  19  20
ENDBRANCH  15  17
ENDBRANCH   7  15
BRANCH   1  23
HETATM   23  O2  UNL     1      26.203   0.039  52.880  1.00  0.00    -0.346 OA
BRANCH  23  24
HETATM   24  C3  UNL     1      27.195  -0.677  53.289  1.00  0.00     0.201 C 
BRANCH  24  25
HETATM   25  C2  UNL     1      28.200  -0.112  54.240  1.00  0.00     0.193 C 
BRANCH  25  26
HETATM   26  O1  UNL     1      29.060   0.788  53.802  1.00  0.00    -0.394 OA
HETATM   27  C1  UNL     1      28.869   2.110  53.811  1.00  0.00     0.201 C 
ENDBRANCH  25  26
ENDBRANCH  24  25
ENDBRANCH  23  24
ENDBRANCH   1  23
TORSDOF 7
ENDMDL
MODEL 8
REMARK VINA RESULT:      -6.6      1.411      1.786
REMARK  7 active torsions:
REMARK  status: ('A' for Active; 'I' for Inactive)
REMARK    1  A    between atoms: O1_2  and  C2_3 
REMARK    2  A    between atoms: C2_3  and  C3_4 
REMARK    3  A    between atoms: C3_4  and  O2_5 
REMARK    4  A    between atoms: O2_5  and  C4_6 
REMARK    5  A    between atoms: C8_12  and  N3_13 
REMARK    6  A    between atoms: N3_13  and  C9_14 
REMARK    7  A    between atoms: C11_16  and  C12_17 
ROOT
HETATM    1  C4  UNL     1      25.684   0.529  53.276  1.00  0.00     0.107 A 
HETATM    2  C5  UNL     1      24.743  -0.197  53.970  1.00  0.00     0.072 A 
HETATM    3  C6  UNL     1      23.399  -0.312  53.717  1.00  0.00     0.077 A 
HETATM    4  N1  UNL     1      22.609  -1.077  54.497  1.00  0.00    -0.241 NA
HETATM    5  C7  UNL     1      21.292  -1.161  54.201  1.00  0.00     0.236 A 
HETATM    6  N2  UNL     1      20.772  -0.485  53.135  1.00  0.00    -0.223 NA
HETATM    7  C8  UNL     1      21.578   0.273  52.371  1.00  0.00     0.144 A 
HETATM    8  C14 UNL     1      22.922   0.388  52.632  1.00  0.00     0.075 A 
HETATM    9  C15 UNL     1      23.760   1.156  51.852  1.00  0.00     0.121 A 
HETATM   10  C16 UNL     1      25.116   1.217  52.181  1.00  0.00     0.136 A 
HETATM   11  O3  UNL     1      25.741   2.054  51.246  1.00  0.00    -0.344 OA
HETATM   12  C17 UNL     1      25.079   3.242  50.785  1.00  0.00     0.202 C 
HETATM   13  C18 UNL     1      23.821   2.830  50.066  1.00  0.00     0.202 C 
HETATM   14  O4  UNL     1      23.132   1.801  50.791  1.00  0.00    -0.345 OA
ENDROOT
BRANCH   7  15
HETATM   15  N3  UNL     1      20.958   0.931  51.303  1.00  0.00    -0.344 N 
HETATM   16  H10 UNL     1      21.105   0.633  50.312  1.00  0.00     0.167 HD
BRANCH  15  17
HETATM   17  C9  UNL     1      20.092   2.053  51.593  1.00  0.00     0.007 C 
HETATM   18  C10 UNL     1      20.338   3.339  52.312  1.00  0.00     0.068 C 
HETATM   19  C11 UNL     1      18.839   1.886  51.124  1.00  0.00     0.025 C 
BRANCH  19  20
HETATM   20  C12 UNL     1      17.815   2.888  51.306  1.00  0.00     0.014 C 
HETATM   21  C13 UNL     1      16.586   2.614  51.691  1.00  0.00     0.084 C 
HETATM   22 CL1  UNL     1      15.312   1.520  52.180  1.00  0.00    -0.097 Cl
ENDBRANCH  19  20
ENDBRANCH  15  17
ENDBRANCH   7  15
BRANCH   1  23
HETATM   23  O2  UNL     1      26.906   0.769  53.321  1.00  0.00    -0.346 OA
BRANCH  23  24
HETATM   24  C3  UNL     1      28.168   1.029  53.382  1.00  0.00     0.201 C 
BRANCH  24  25
HETATM   25  C2  UNL     1      29.040   0.336  54.380  1.00  0.00     0.193 C 
BRANCH  25  26
HETATM   26  O1  UNL     1      29.787  -0.676  53.984  1.00  0.00    -0.394 OA
HETATM   27  C1  UNL     1      29.345  -1.762  53.345  1.00  0.00     0.201 C 
ENDBRANCH  25  26
ENDBRANCH  24  25
ENDBRANCH  23  24
ENDBRANCH   1  23
TORSDOF 7
ENDMDL
MODEL 9
REMARK VINA RESULT:      -6.6      1.536      2.039
REMARK  7 active torsions:
REMARK  status: ('A' for Active; 'I' for Inactive)
REMARK    1  A    between atoms: O1_2  and  C2_3 
REMARK    2  A    between atoms: C2_3  and  C3_4 
REMARK    3  A    between atoms: C3_4  and  O2_5 
REMARK    4  A    between atoms: O2_5  and  C4_6 
REMARK    5  A    between atoms: C8_12  and  N3_13 
REMARK    6  A    between atoms: N3_13  and  C9_14 
REMARK    7  A    between atoms: C11_16  and  C12_17 
ROOT
HETATM    1  C4  UNL     1      25.169   1.080  53.268  1.00  0.00     0.107 A 
HETATM    2  C5  UNL     1      24.515  -0.023  53.769  1.00  0.00     0.072 A 
HETATM    3  C6  UNL     1      23.168  -0.283  53.783  1.00  0.00     0.077 A 
HETATM    4  N1  UNL     1      22.687  -1.426  54.311  1.00  0.00    -0.241 NA
HETATM    5  C7  UNL     1      21.351  -1.636  54.294  1.00  0.00     0.236 A 
HETATM    6  N2  UNL     1      20.506  -0.709  53.754  1.00  0.00    -0.223 NA
HETATM    7  C8  UNL     1      21.007   0.424  53.233  1.00  0.00     0.144 A 
HETATM    8  C14 UNL     1      22.357   0.681  53.227  1.00  0.00     0.075 A 
HETATM    9  C15 UNL     1      22.885   1.836  52.689  1.00  0.00     0.121 A 
HETATM   10  C16 UNL     1      24.269   2.019  52.717  1.00  0.00     0.136 A 
HETATM   11  O3  UNL     1      24.544   3.257  52.118  1.00  0.00    -0.344 OA
HETATM   12  C17 UNL     1      23.684   4.381  52.358  1.00  0.00     0.202 C 
HETATM   13  C18 UNL     1      22.318   4.052  51.818  1.00  0.00     0.202 C 
HETATM   14  O4  UNL     1      21.940   2.712  52.164  1.00  0.00    -0.345 OA
ENDROOT
BRANCH   7  15
HETATM   15  N3  UNL     1      20.068   1.317  52.705  1.00  0.00    -0.344 N 
HETATM   16  H10 UNL     1      19.870   2.239  53.155  1.00  0.00     0.167 HD
BRANCH  15  17
HETATM   17  C9  UNL     1      19.360   0.941  51.501  1.00  0.00     0.007 C 
HETATM   18  C10 UNL     1      19.776   0.924  50.066  1.00  0.00     0.068 C 
HETATM   19  C11 UNL     1      18.095   0.539  51.737  1.00  0.00     0.025 C 
BRANCH  19  20
HETATM   20  C12 UNL     1      17.214   0.120  50.672  1.00  0.00     0.014 C 
HETATM   21  C13 UNL     1      16.247  -0.760  50.828  1.00  0.00     0.084 C 
HETATM   22 CL1  UNL     1      15.296  -1.881  51.775  1.00  0.00    -0.097 Cl
ENDBRANCH  19  20
ENDBRANCH  15  17
ENDBRANCH   7  15
BRANCH   1  23
HETATM   23  O2  UNL     1      26.332   1.509  53.151  1.00  0.00    -0.346 OA
BRANCH  23  24
HETATM   24  C3  UNL     1      27.544   1.936  53.031  1.00  0.00     0.201 C 
BRANCH  24  25
HETATM   25  C2  UNL     1      28.685   1.150  53.592  1.00  0.00     0.193 C 
BRANCH  25  26
HETATM   26  O1  UNL     1      28.752  -0.145  53.347  1.00  0.00    -0.394 OA
HETATM   27  C1  UNL     1      29.781  -0.939  53.654  1.00  0.00     0.201 C 
ENDBRANCH  25  26
ENDBRANCH  24  25
ENDBRANCH  23  24
ENDBRANCH   1  23
TORSDOF 7
ENDMDL
