MODEL 1
REMARK VINA RESULT:      -8.7      0.000      0.000
REMARK  6 active torsions:
REMARK  status: ('A' for Active; 'I' for Inactive)
REMARK    1  A    between atoms: N1_1  and  C1_2 
REMARK    2  A    between atoms: C4_5  and  C5_6 
REMARK    3  A    between atoms: C6_7  and  N2_8 
REMARK    4  A    between atoms: N3_10  and  C8_11 
REMARK    5  A    between atoms: C8_11  and  C9_12 
REMARK    6  A    between atoms: C10_13  and  C11_14 
ROOT
HETATM    1  C9  UNL     1      24.866   0.171  53.100  1.00  0.00     0.012 A 
HETATM    2  C10 UNL     1      25.734  -0.363  53.903  1.00  0.00     0.090 A 
HETATM    3  O1  UNL     1      25.325  -1.104  55.015  1.00  0.00    -0.344 OA
HETATM    4  C17 UNL     1      23.986  -1.333  55.376  1.00  0.00     0.227 A 
HETATM    5  C18 UNL     1      23.032  -0.715  54.445  1.00  0.00     0.036 A 
HETATM    6 CL1  UNL     1      21.313  -0.897  54.725  1.00  0.00    -0.087 Cl
HETATM    7  C19 UNL     1      23.457  -0.025  53.402  1.00  0.00     0.037 A 
ENDROOT
BRANCH   1   8
HETATM    8  C8  UNL     1      25.260   0.942  51.933  1.00  0.00     0.104 C 
BRANCH   8   9
HETATM    9  N3  UNL     1      24.424   1.787  51.452  1.00  0.00    -0.159 NA
HETATM   10  C7  UNL     1      24.753   2.900  50.636  1.00  0.00     0.199 A 
HETATM   11  N2  UNL     1      23.676   3.066  51.326  1.00  0.00    -0.276 N 
BRANCH  11  12
HETATM   12  C6  UNL     1      22.853   4.192  51.334  1.00  0.00     0.112 C 
HETATM   13  C5  UNL     1      22.001   5.058  51.843  1.00  0.00     0.020 C 
BRANCH  13  14
HETATM   14  C4  UNL     1      21.559   6.168  51.016  1.00  0.00     0.015 C 
HETATM   15  C3  UNL     1      22.534   6.992  50.717  1.00  0.00    -0.008 A 
HETATM   16  C1  UNL     1      23.894   7.516  50.705  1.00  0.00     0.037 A 
HETATM   17  C2  UNL     1      22.908   8.183  50.039  1.00  0.00     0.043 A 
BRANCH  16  18
HETATM   18  N1  UNL     1      25.237   7.302  51.167  1.00  0.00    -0.398 N 
HETATM   19  H1  UNL     1      25.732   8.214  51.276  1.00  0.00     0.156 HD
HETATM   20  H2  UNL     1      25.387   6.283  51.278  1.00  0.00     0.156 HD
ENDBRANCH  16  18
ENDBRANCH  13  14
ENDBRANCH  11  12
ENDBRANCH   8   9
ENDBRANCH   1   8
BRANCH   2  21
HETATM   21  C11 UNL     1      27.184  -0.293  53.800  1.00  0.00     0.001 A 
HETATM   22  C12 UNL     1      28.021  -1.235  53.283  1.00  0.00     0.014 A 
HETATM   23  C13 UNL     1      29.394  -1.145  53.220  1.00  0.00     0.004 A 
HETATM   24  C14 UNL     1      29.919   0.032  53.743  1.00  0.00     0.042 A 
HETATM   25  C15 UNL     1      29.186   1.055  54.288  1.00  0.00     0.117 A 
HETATM   26  F1  UNL     1      29.733   2.174  54.782  1.00  0.00    -0.206 F 
HETATM   27  C16 UNL     1      27.813   0.856  54.301  1.00  0.00     0.056 A 
ENDBRANCH   2  21
TORSDOF 6
ENDMDL
MODEL 2
REMARK VINA RESULT:      -8.2      3.992      7.717
REMARK  6 active torsions:
REMARK  status: ('A' for Active; 'I' for Inactive)
REMARK    1  A    between atoms: N1_1  and  C1_2 
REMARK    2  A    between atoms: C4_5  and  C5_6 
REMARK    3  A    between atoms: C6_7  and  N2_8 
REMARK    4  A    between atoms: N3_10  and  C8_11 
REMARK    5  A    between atoms: C8_11  and  C9_12 
REMARK    6  A    between atoms: C10_13  and  C11_14 
ROOT
HETATM    1  C9  UNL     1      22.298   2.557  51.052  1.00  0.00     0.012 A 
HETATM    2  C10 UNL     1      21.788   1.365  50.989  1.00  0.00     0.090 A 
HETATM    3  O1  UNL     1      21.384   0.820  49.768  1.00  0.00    -0.344 OA
HETATM    4  C17 UNL     1      21.469   1.478  48.529  1.00  0.00     0.227 A 
HETATM    5  C18 UNL     1      22.050   2.822  48.638  1.00  0.00     0.036 A 
HETATM    6 CL1  UNL     1      22.246   3.797  47.196  1.00  0.00    -0.087 Cl
HETATM    7  C19 UNL     1      22.426   3.303  49.810  1.00  0.00     0.037 A 
ENDROOT
BRANCH   1   8
HETATM    8  C8  UNL     1      22.733   3.150  52.305  1.00  0.00     0.104 C 
BRANCH   8   9
HETATM    9  N3  UNL     1      23.948   2.970  52.674  1.00  0.00    -0.159 NA
HETATM   10  C7  UNL     1      25.052   2.764  51.806  1.00  0.00     0.199 A 
HETATM   11  N2  UNL     1      25.203   2.229  52.971  1.00  0.00    -0.276 N 
BRANCH  11  12
HETATM   12  C6  UNL     1      26.304   1.502  53.420  1.00  0.00     0.112 C 
HETATM   13  C5  UNL     1      26.944   0.451  53.890  1.00  0.00     0.020 C 
BRANCH  13  14
HETATM   14  C4  UNL     1      28.374   0.553  54.124  1.00  0.00     0.015 C 
HETATM   15  C3  UNL     1      29.007  -0.567  53.871  1.00  0.00    -0.008 A 
HETATM   16  C1  UNL     1      29.166  -1.958  53.468  1.00  0.00     0.037 A 
HETATM   17  C2  UNL     1      30.260  -1.236  53.847  1.00  0.00     0.043 A 
BRANCH  16  18
HETATM   18  N1  UNL     1      28.478  -3.133  53.011  1.00  0.00    -0.398 N 
HETATM   19  H1  UNL     1      27.998  -2.941  52.104  1.00  0.00     0.156 HD
HETATM   20  H2  UNL     1      28.627  -3.890  53.701  1.00  0.00     0.156 HD
ENDBRANCH  16  18
ENDBRANCH  13  14
ENDBRANCH  11  12
ENDBRANCH   8   9
ENDBRANCH   1   8
BRANCH   2  21
HETATM   21  C11 UNL     1      21.564   0.448  52.096  1.00  0.00     0.001 A 
HETATM   22  C12 UNL     1      22.507  -0.187  52.847  1.00  0.00     0.014 A 
HETATM   23  C13 UNL     1      22.257  -1.067  53.877  1.00  0.00     0.004 A 
HETATM   24  C14 UNL     1      20.908  -1.291  54.129  1.00  0.00     0.042 A 
HETATM   25  C15 UNL     1      19.866  -0.716  53.449  1.00  0.00     0.117 A 
HETATM   26  F1  UNL     1      18.578  -0.961  53.726  1.00  0.00    -0.206 F 
HETATM   27  C16 UNL     1      20.234   0.153  52.432  1.00  0.00     0.056 A 
ENDBRANCH   2  21
TORSDOF 6
ENDMDL
MODEL 3
REMARK VINA RESULT:      -8.2      1.516      2.014
REMARK  6 active torsions:
REMARK  status: ('A' for Active; 'I' for Inactive)
REMARK    1  A    between atoms: N1_1  and  C1_2 
REMARK    2  A    between atoms: C4_5  and  C5_6 
REMARK    3  A    between atoms: C6_7  and  N2_8 
REMARK    4  A    between atoms: N3_10  and  C8_11 
REMARK    5  A    between atoms: C8_11  and  C9_12 
REMARK    6  A    between atoms: C10_13  and  C11_14 
ROOT
HETATM    1  C9  UNL     1      24.552   0.201  53.146  1.00  0.00     0.012 A 
HETATM    2  C10 UNL     1      25.445  -0.262  53.965  1.00  0.00     0.090 A 
HETATM    3  O1  UNL     1      25.081  -1.069  55.045  1.00  0.00    -0.344 OA
HETATM    4  C17 UNL     1      23.762  -1.443  55.358  1.00  0.00     0.227 A 
HETATM    5  C18 UNL     1      22.779  -0.901  54.410  1.00  0.00     0.036 A 
HETATM    6 CL1  UNL     1      21.079  -1.265  54.630  1.00  0.00    -0.087 Cl
HETATM    7  C19 UNL     1      23.161  -0.145  53.397  1.00  0.00     0.037 A 
ENDROOT
BRANCH   1   8
HETATM    8  C8  UNL     1      24.899   1.040  52.011  1.00  0.00     0.104 C 
BRANCH   8   9
HETATM    9  N3  UNL     1      24.303   2.167  51.883  1.00  0.00    -0.159 NA
HETATM   10  C7  UNL     1      23.661   2.632  50.706  1.00  0.00     0.199 A 
HETATM   11  N2  UNL     1      24.102   3.580  51.462  1.00  0.00    -0.276 N 
BRANCH  11  12
HETATM   12  C6  UNL     1      24.004   4.951  51.228  1.00  0.00     0.112 C 
HETATM   13  C5  UNL     1      23.455   6.060  50.776  1.00  0.00     0.020 C 
BRANCH  13  14
HETATM   14  C4  UNL     1      24.146   7.318  50.999  1.00  0.00     0.015 C 
HETATM   15  C3  UNL     1      25.272   7.400  50.333  1.00  0.00    -0.008 A 
HETATM   16  C1  UNL     1      26.337   6.966  49.437  1.00  0.00     0.037 A 
HETATM   17  C2  UNL     1      26.414   8.191  50.034  1.00  0.00     0.043 A 
BRANCH  16  18
HETATM   18  N1  UNL     1      26.797   5.901  48.591  1.00  0.00    -0.398 N 
HETATM   19  H1  UNL     1      26.040   5.607  47.936  1.00  0.00     0.156 HD
HETATM   20  H2  UNL     1      27.778   5.684  48.842  1.00  0.00     0.156 HD
ENDBRANCH  16  18
ENDBRANCH  13  14
ENDBRANCH  11  12
ENDBRANCH   8   9
ENDBRANCH   1   8
BRANCH   2  21
HETATM   21  C11 UNL     1      26.883  -0.041  53.911  1.00  0.00     0.001 A 
HETATM   22  C12 UNL     1      27.555   1.100  54.227  1.00  0.00     0.014 A 
HETATM   23  C13 UNL     1      28.918   1.282  54.143  1.00  0.00     0.004 A 
HETATM   24  C14 UNL     1      29.620   0.170  53.690  1.00  0.00     0.042 A 
HETATM   25  C15 UNL     1      29.063  -1.034  53.341  1.00  0.00     0.117 A 
HETATM   26  F1  UNL     1      29.779  -2.081  52.909  1.00  0.00    -0.206 F 
HETATM   27  C16 UNL     1      27.683  -1.103  53.464  1.00  0.00     0.056 A 
ENDBRANCH   2  21
TORSDOF 6
ENDMDL
MODEL 4
REMARK VINA RESULT:      -8.0      2.792      3.454
REMARK  6 active torsions:
REMARK  status: ('A' for Active; 'I' for Inactive)
REMARK    1  A    between atoms: N1_1  and  C1_2 
REMARK    2  A    between atoms: C4_5  and  C5_6 
REMARK    3  A    between atoms: C6_7  and  N2_8 
REMARK    4  A    between atoms: N3_10  and  C8_11 
REMARK    5  A    between atoms: C8_11  and  C9_12 
REMARK    6  A    between atoms: C10_13  and  C11_14 
ROOT
HETATM    1  C9  UNL     1      25.289   1.245  51.953  1.00  0.00     0.012 A 
HETATM    2  C10 UNL     1      25.689   0.458  52.905  1.00  0.00     0.090 A 
HETATM    3  O1  UNL     1      24.771  -0.211  53.717  1.00  0.00    -0.344 OA
HETATM    4  C17 UNL     1      23.374  -0.102  53.607  1.00  0.00     0.227 A 
HETATM    5  C18 UNL     1      22.959   0.796  52.521  1.00  0.00     0.036 A 
HETATM    6 CL1  UNL     1      21.252   1.055  52.221  1.00  0.00    -0.087 Cl
HETATM    7  C19 UNL     1      23.856   1.409  51.769  1.00  0.00     0.037 A 
ENDROOT
BRANCH   1   8
HETATM    8  C8  UNL     1      26.219   1.951  51.088  1.00  0.00     0.104 C 
BRANCH   8   9
HETATM    9  N3  UNL     1      25.908   3.131  50.695  1.00  0.00    -0.159 NA
HETATM   10  C7  UNL     1      25.275   3.450  49.465  1.00  0.00     0.199 A 
HETATM   11  N2  UNL     1      26.014   4.401  49.929  1.00  0.00    -0.276 N 
BRANCH  11  12
HETATM   12  C6  UNL     1      26.230   5.650  49.349  1.00  0.00     0.112 C 
HETATM   13  C5  UNL     1      26.809   6.524  48.551  1.00  0.00     0.020 C 
BRANCH  13  14
HETATM   14  C4  UNL     1      26.334   7.897  48.562  1.00  0.00     0.015 C 
HETATM   15  C3  UNL     1      27.267   8.751  48.906  1.00  0.00    -0.008 A 
HETATM   16  C1  UNL     1      28.593   9.200  49.314  1.00  0.00     0.037 A 
HETATM   17  C2  UNL     1      27.595  10.114  49.139  1.00  0.00     0.043 A 
BRANCH  16  18
HETATM   18  N1  UNL     1      29.927   8.777  49.635  1.00  0.00    -0.398 N 
HETATM   19  H1  UNL     1      30.547   8.870  48.801  1.00  0.00     0.156 HD
HETATM   20  H2  UNL     1      29.947   8.478  50.626  1.00  0.00     0.156 HD
ENDBRANCH  16  18
ENDBRANCH  13  14
ENDBRANCH  11  12
ENDBRANCH   8   9
ENDBRANCH   1   8
BRANCH   2  21
HETATM   21  C11 UNL     1      27.064   0.151  53.270  1.00  0.00     0.001 A 
HETATM   22  C12 UNL     1      27.973   0.990  53.841  1.00  0.00     0.014 A 
HETATM   23  C13 UNL     1      29.276   0.673  54.154  1.00  0.00     0.004 A 
HETATM   24  C14 UNL     1      29.643  -0.631  53.840  1.00  0.00     0.042 A 
HETATM   25  C15 UNL     1      28.825  -1.571  53.266  1.00  0.00     0.117 A 
HETATM   26  F1  UNL     1      29.220  -2.818  52.979  1.00  0.00    -0.206 F 
HETATM   27  C16 UNL     1      27.534  -1.140  52.993  1.00  0.00     0.056 A 
ENDBRANCH   2  21
TORSDOF 6
ENDMDL
MODEL 5
REMARK VINA RESULT:      -8.0      3.904      5.710
REMARK  6 active torsions:
REMARK  status: ('A' for Active; 'I' for Inactive)
REMARK    1  A    between atoms: N1_1  and  C1_2 
REMARK    2  A    between atoms: C4_5  and  C5_6 
REMARK    3  A    between atoms: C6_7  and  N2_8 
REMARK    4  A    between atoms: N3_10  and  C8_11 
REMARK    5  A    between atoms: C8_11  and  C9_12 
REMARK    6  A    between atoms: C10_13  and  C11_14 
ROOT
HETATM    1  C9  UNL     1      25.001   1.689  51.736  1.00  0.00     0.012 A 
HETATM    2  C10 UNL     1      26.289   1.850  51.701  1.00  0.00     0.090 A 
HETATM    3  O1  UNL     1      26.878   2.743  50.804  1.00  0.00    -0.344 OA
HETATM    4  C17 UNL     1      26.173   3.523  49.870  1.00  0.00     0.227 A 
HETATM    5  C18 UNL     1      24.721   3.316  49.938  1.00  0.00     0.036 A 
HETATM    6 CL1  UNL     1      23.672   4.209  48.857  1.00  0.00    -0.087 Cl
HETATM    7  C19 UNL     1      24.199   2.466  50.804  1.00  0.00     0.037 A 
ENDROOT
BRANCH   1   8
HETATM    8  C8  UNL     1      24.358   0.772  52.661  1.00  0.00     0.104 C 
BRANCH   8   9
HETATM    9  N3  UNL     1      23.082   0.818  52.774  1.00  0.00    -0.159 NA
HETATM   10  C7  UNL     1      22.210  -0.302  52.753  1.00  0.00     0.199 A 
HETATM   11  N2  UNL     1      21.658   0.790  52.345  1.00  0.00    -0.276 N 
BRANCH  11  12
HETATM   12  C6  UNL     1      20.344   0.949  51.907  1.00  0.00     0.112 C 
HETATM   13  C5  UNL     1      19.182   1.556  51.779  1.00  0.00     0.020 C 
BRANCH  13  14
HETATM   14  C4  UNL     1      18.141   0.909  50.998  1.00  0.00     0.015 C 
HETATM   15  C3  UNL     1      17.611  -0.117  51.618  1.00  0.00    -0.008 A 
HETATM   16  C1  UNL     1      17.411  -1.079  52.694  1.00  0.00     0.037 A 
HETATM   17  C2  UNL     1      16.656  -1.168  51.561  1.00  0.00     0.043 A 
BRANCH  16  18
HETATM   18  N1  UNL     1      17.843  -1.481  54.004  1.00  0.00    -0.398 N 
HETATM   19  H1  UNL     1      17.130  -1.216  54.718  1.00  0.00     0.156 HD
HETATM   20  H2  UNL     1      18.767  -1.940  53.917  1.00  0.00     0.156 HD
ENDBRANCH  16  18
ENDBRANCH  13  14
ENDBRANCH  11  12
ENDBRANCH   8   9
ENDBRANCH   1   8
BRANCH   2  21
HETATM   21  C11 UNL     1      27.278   1.179  52.531  1.00  0.00     0.001 A 
HETATM   22  C12 UNL     1      27.478  -0.163  52.656  1.00  0.00     0.014 A 
HETATM   23  C13 UNL     1      28.412  -0.766  53.469  1.00  0.00     0.004 A 
HETATM   24  C14 UNL     1      29.193   0.119  54.204  1.00  0.00     0.042 A 
HETATM   25  C15 UNL     1      29.093   1.486  54.167  1.00  0.00     0.117 A 
HETATM   26  F1  UNL     1      29.867   2.303  54.894  1.00  0.00    -0.206 F 
HETATM   27  C16 UNL     1      28.118   1.983  53.315  1.00  0.00     0.056 A 
ENDBRANCH   2  21
TORSDOF 6
ENDMDL
MODEL 6
REMARK VINA RESULT:      -7.8      3.502      5.316
REMARK  6 active torsions:
REMARK  status: ('A' for Active; 'I' for Inactive)
REMARK    1  A    between atoms: N1_1  and  C1_2 
REMARK    2  A    between atoms: C4_5  and  C5_6 
REMARK    3  A    between atoms: C6_7  and  N2_8 
REMARK    4  A    between atoms: N3_10  and  C8_11 
REMARK    5  A    between atoms: C8_11  and  C9_12 
REMARK    6  A    between atoms: C10_13  and  C11_14 
ROOT
HETATM    1  C9  UNL     1      25.409   1.346  52.308  1.00  0.00     0.012 A 
HETATM    2  C10 UNL     1      24.745   0.712  53.226  1.00  0.00     0.090 A 
HETATM    3  O1  UNL     1      25.405   0.080  54.283  1.00  0.00    -0.344 OA
HETATM    4  C17 UNL     1      26.800   0.051  54.454  1.00  0.00     0.227 A 
HETATM    5  C18 UNL     1      27.517   0.778  53.398  1.00  0.00     0.036 A 
HETATM    6 CL1  UNL     1      29.266   0.861  53.445  1.00  0.00    -0.087 Cl
HETATM    7  C19 UNL     1      26.859   1.368  52.416  1.00  0.00     0.037 A 
ENDROOT
BRANCH   1   8
HETATM    8  C8  UNL     1      24.752   2.017  51.199  1.00  0.00     0.104 C 
BRANCH   8   9
HETATM    9  N3  UNL     1      25.137   3.201  50.891  1.00  0.00    -0.159 NA
HETATM   10  C7  UNL     1      24.336   4.191  50.264  1.00  0.00     0.199 A 
HETATM   11  N2  UNL     1      25.598   4.318  50.024  1.00  0.00    -0.276 N 
BRANCH  11  12
HETATM   12  C6  UNL     1      26.205   5.297  49.240  1.00  0.00     0.112 C 
HETATM   13  C5  UNL     1      27.210   5.952  48.693  1.00  0.00     0.020 C 
BRANCH  13  14
HETATM   14  C4  UNL     1      26.915   7.078  47.824  1.00  0.00     0.015 C 
HETATM   15  C3  UNL     1      27.012   8.230  48.442  1.00  0.00    -0.008 A 
HETATM   16  C1  UNL     1      27.254   9.142  49.554  1.00  0.00     0.037 A 
HETATM   17  C2  UNL     1      26.899   9.642  48.335  1.00  0.00     0.043 A 
BRANCH  16  18
HETATM   18  N1  UNL     1      27.617   9.230  50.941  1.00  0.00    -0.398 N 
HETATM   19  H1  UNL     1      28.402   8.576  51.152  1.00  0.00     0.156 HD
HETATM   20  H2  UNL     1      27.003   9.929  51.395  1.00  0.00     0.156 HD
ENDBRANCH  16  18
ENDBRANCH  13  14
ENDBRANCH  11  12
ENDBRANCH   8   9
ENDBRANCH   1   8
BRANCH   2  21
HETATM   21  C11 UNL     1      23.301   0.558  53.315  1.00  0.00     0.001 A 
HETATM   22  C12 UNL     1      22.349   1.437  52.895  1.00  0.00     0.014 A 
HETATM   23  C13 UNL     1      20.988   1.268  53.014  1.00  0.00     0.004 A 
HETATM   24  C14 UNL     1      20.607   0.077  53.625  1.00  0.00     0.042 A 
HETATM   25  C15 UNL     1      21.463  -0.887  54.089  1.00  0.00     0.117 A 
HETATM   26  F1  UNL     1      21.052  -2.021  54.672  1.00  0.00    -0.206 F 
HETATM   27  C16 UNL     1      22.812  -0.611  53.917  1.00  0.00     0.056 A 
ENDBRANCH   2  21
TORSDOF 6
ENDMDL
MODEL 7
REMARK VINA RESULT:      -7.7      4.005      5.820
REMARK  6 active torsions:
REMARK  status: ('A' for Active; 'I' for Inactive)
REMARK    1  A    between atoms: N1_1  and  C1_2 
REMARK    2  A    between atoms: C4_5  and  C5_6 
REMARK    3  A    between atoms: C6_7  and  N2_8 
REMARK    4  A    between atoms: N3_10  and  C8_11 
REMARK    5  A    between atoms: C8_11  and  C9_12 
REMARK    6  A    between atoms: C10_13  and  C11_14 
ROOT
HETATM    1  C9  UNL     1      24.632   1.808  53.163  1.00  0.00     0.012 A 
HETATM    2  C10 UNL     1      23.979   0.691  53.260  1.00  0.00     0.090 A 
HETATM    3  O1  UNL     1      24.637  -0.501  53.571  1.00  0.00    -0.344 OA
HETATM    4  C17 UNL     1      26.020  -0.619  53.794  1.00  0.00     0.227 A 
HETATM    5  C18 UNL     1      26.725   0.664  53.677  1.00  0.00     0.036 A 
HETATM    6 CL1  UNL     1      28.458   0.721  53.928  1.00  0.00    -0.087 Cl
HETATM    7  C19 UNL     1      26.069   1.773  53.385  1.00  0.00     0.037 A 
ENDROOT
BRANCH   1   8
HETATM    8  C8  UNL     1      23.976   3.066  52.845  1.00  0.00     0.104 C 
BRANCH   8   9
HETATM    9  N3  UNL     1      24.392   3.729  51.831  1.00  0.00    -0.159 NA
HETATM   10  C7  UNL     1      24.353   3.287  50.483  1.00  0.00     0.199 A 
HETATM   11  N2  UNL     1      25.302   4.128  50.723  1.00  0.00    -0.276 N 
BRANCH  11  12
HETATM   12  C6  UNL     1      26.242   4.611  49.814  1.00  0.00     0.112 C 
HETATM   13  C5  UNL     1      26.665   5.262  48.750  1.00  0.00     0.020 C 
BRANCH  13  14
HETATM   14  C4  UNL     1      28.090   5.274  48.463  1.00  0.00     0.015 C 
HETATM   15  C3  UNL     1      28.481   6.392  47.901  1.00  0.00    -0.008 A 
HETATM   16  C1  UNL     1      28.350   7.733  47.345  1.00  0.00     0.037 A 
HETATM   17  C2  UNL     1      29.572   7.125  47.363  1.00  0.00     0.043 A 
BRANCH  16  18
HETATM   18  N1  UNL     1      27.434   8.802  47.064  1.00  0.00    -0.398 N 
HETATM   19  H1  UNL     1      27.144   8.777  46.062  1.00  0.00     0.156 HD
HETATM   20  H2  UNL     1      27.285   9.342  47.935  1.00  0.00     0.156 HD
ENDBRANCH  16  18
ENDBRANCH  13  14
ENDBRANCH  11  12
ENDBRANCH   8   9
ENDBRANCH   1   8
BRANCH   2  21
HETATM   21  C11 UNL     1      22.549   0.492  53.075  1.00  0.00     0.001 A 
HETATM   22  C12 UNL     1      21.623   0.219  54.036  1.00  0.00     0.014 A 
HETATM   23  C13 UNL     1      20.278   0.014  53.822  1.00  0.00     0.004 A 
HETATM   24  C14 UNL     1      19.885   0.107  52.492  1.00  0.00     0.042 A 
HETATM   25  C15 UNL     1      20.716   0.376  51.435  1.00  0.00     0.117 A 
HETATM   26  F1  UNL     1      20.295   0.456  50.165  1.00  0.00    -0.206 F 
HETATM   27  C16 UNL     1      22.050   0.563  51.766  1.00  0.00     0.056 A 
ENDBRANCH   2  21
TORSDOF 6
ENDMDL
MODEL 8
REMARK VINA RESULT:      -7.7      4.127      6.174
REMARK  6 active torsions:
REMARK  status: ('A' for Active; 'I' for Inactive)
REMARK    1  A    between atoms: N1_1  and  C1_2 
REMARK    2  A    between atoms: C4_5  and  C5_6 
REMARK    3  A    between atoms: C6_7  and  N2_8 
REMARK    4  A    between atoms: N3_10  and  C8_11 
REMARK    5  A    between atoms: C8_11  and  C9_12 
REMARK    6  A    between atoms: C10_13  and  C11_14 
ROOT
HETATM    1  C9  UNL     1      24.825   1.156  52.251  1.00  0.00     0.012 A 
HETATM    2  C10 UNL     1      26.090   1.277  51.986  1.00  0.00     0.090 A 
HETATM    3  O1  UNL     1      26.537   2.166  51.005  1.00  0.00    -0.344 OA
HETATM    4  C17 UNL     1      25.701   2.982  50.222  1.00  0.00     0.227 A 
HETATM    5  C18 UNL     1      24.279   2.818  50.549  1.00  0.00     0.036 A 
HETATM    6 CL1  UNL     1      23.081   3.759  49.684  1.00  0.00    -0.087 Cl
HETATM    7  C19 UNL     1      23.894   1.971  51.487  1.00  0.00     0.037 A 
ENDROOT
BRANCH   1   8
HETATM    8  C8  UNL     1      24.329   0.244  53.268  1.00  0.00     0.104 C 
BRANCH   8   9
HETATM    9  N3  UNL     1      23.076   0.257  53.537  1.00  0.00    -0.159 NA
HETATM   10  C7  UNL     1      22.411  -0.643  54.410  1.00  0.00     0.199 A 
HETATM   11  N2  UNL     1      21.651  -0.165  53.483  1.00  0.00    -0.276 N 
BRANCH  11  12
HETATM   12  C6  UNL     1      20.301  -0.447  53.281  1.00  0.00     0.112 C 
HETATM   13  C5  UNL     1      19.111  -0.311  52.732  1.00  0.00     0.020 C 
BRANCH  13  14
HETATM   14  C4  UNL     1      18.034  -1.177  53.184  1.00  0.00     0.015 C 
HETATM   15  C3  UNL     1      16.994  -1.145  52.386  1.00  0.00    -0.008 A 
HETATM   16  C1  UNL     1      16.197  -0.742  51.234  1.00  0.00     0.037 A 
HETATM   17  C2  UNL     1      15.683  -1.631  52.133  1.00  0.00     0.043 A 
BRANCH  16  18
HETATM   18  N1  UNL     1      16.172   0.073  50.052  1.00  0.00    -0.398 N 
HETATM   19  H1  UNL     1      16.590   1.009  50.249  1.00  0.00     0.156 HD
HETATM   20  H2  UNL     1      15.739  -0.474  49.287  1.00  0.00     0.156 HD
ENDBRANCH  16  18
ENDBRANCH  13  14
ENDBRANCH  11  12
ENDBRANCH   8   9
ENDBRANCH   1   8
BRANCH   2  21
HETATM   21  C11 UNL     1      27.190   0.564  52.616  1.00  0.00     0.001 A 
HETATM   22  C12 UNL     1      28.218   1.099  53.334  1.00  0.00     0.014 A 
HETATM   23  C13 UNL     1      29.258   0.394  53.900  1.00  0.00     0.004 A 
HETATM   24  C14 UNL     1      29.203  -0.979  53.691  1.00  0.00     0.042 A 
HETATM   25  C15 UNL     1      28.226  -1.639  52.991  1.00  0.00     0.117 A 
HETATM   26  F1  UNL     1      28.212  -2.967  52.813  1.00  0.00    -0.206 F 
HETATM   27  C16 UNL     1      27.230  -0.829  52.464  1.00  0.00     0.056 A 
ENDBRANCH   2  21
TORSDOF 6
ENDMDL
MODEL 9
REMARK VINA RESULT:      -7.5      2.294      2.815
REMARK  6 active torsions:
REMARK  status: ('A' for Active; 'I' for Inactive)
REMARK    1  A    between atoms: N1_1  and  C1_2 
REMARK    2  A    between atoms: C4_5  and  C5_6 
REMARK    3  A    between atoms: C6_7  and  N2_8 
REMARK    4  A    between atoms: N3_10  and  C8_11 
REMARK    5  A    between atoms: C8_11  and  C9_12 
REMARK    6  A    between atoms: C10_13  and  C11_14 
ROOT
HETATM    1  C9  UNL     1      23.162   1.379  53.034  1.00  0.00     0.012 A 
HETATM    2  C10 UNL     1      23.958   0.359  53.132  1.00  0.00     0.090 A 
HETATM    3  O1  UNL     1      23.453  -0.937  53.263  1.00  0.00    -0.344 OA
HETATM    4  C17 UNL     1      22.086  -1.263  53.313  1.00  0.00     0.227 A 
HETATM    5  C18 UNL     1      21.216  -0.085  53.199  1.00  0.00     0.036 A 
HETATM    6 CL1  UNL     1      19.477  -0.291  53.233  1.00  0.00    -0.087 Cl
HETATM    7  C19 UNL     1      21.730   1.125  53.072  1.00  0.00     0.037 A 
ENDROOT
BRANCH   1   8
HETATM    8  C8  UNL     1      23.656   2.738  52.892  1.00  0.00     0.104 C 
BRANCH   8   9
HETATM    9  N3  UNL     1      23.420   3.360  51.796  1.00  0.00    -0.159 NA
HETATM   10  C7  UNL     1      23.760   2.901  50.497  1.00  0.00     0.199 A 
HETATM   11  N2  UNL     1      23.701   4.186  50.591  1.00  0.00    -0.276 N 
BRANCH  11  12
HETATM   12  C6  UNL     1      23.934   5.111  49.575  1.00  0.00     0.112 C 
HETATM   13  C5  UNL     1      23.885   5.592  48.349  1.00  0.00     0.020 C 
BRANCH  13  14
HETATM   14  C4  UNL     1      24.490   6.887  48.086  1.00  0.00     0.015 C 
HETATM   15  C3  UNL     1      25.788   6.884  48.272  1.00  0.00    -0.008 A 
HETATM   16  C1  UNL     1      27.095   6.333  48.608  1.00  0.00     0.037 A 
HETATM   17  C2  UNL     1      26.988   7.644  48.242  1.00  0.00     0.043 A 
BRANCH  16  18
HETATM   18  N1  UNL     1      27.799   5.153  49.026  1.00  0.00    -0.398 N 
HETATM   19  H1  UNL     1      28.829   5.322  49.011  1.00  0.00     0.156 HD
HETATM   20  H2  UNL     1      27.104   4.417  49.242  1.00  0.00     0.156 HD
ENDBRANCH  16  18
ENDBRANCH  13  14
ENDBRANCH  11  12
ENDBRANCH   8   9
ENDBRANCH   1   8
BRANCH   2  21
HETATM   21  C11 UNL     1      25.413   0.378  53.123  1.00  0.00     0.001 A 
HETATM   22  C12 UNL     1      26.230   0.555  52.047  1.00  0.00     0.014 A 
HETATM   23  C13 UNL     1      27.607   0.546  52.071  1.00  0.00     0.004 A 
HETATM   24  C14 UNL     1      28.159   0.334  53.329  1.00  0.00     0.042 A 
HETATM   25  C15 UNL     1      27.450   0.144  54.487  1.00  0.00     0.117 A 
HETATM   26  F1  UNL     1      28.024  -0.057  55.681  1.00  0.00    -0.206 F 
HETATM   27  C16 UNL     1      26.070   0.172  54.344  1.00  0.00     0.056 A 
ENDBRANCH   2  21
TORSDOF 6
ENDMDL
