MODEL 1
REMARK VINA RESULT:      -6.3      0.000      0.000
REMARK  7 active torsions:
REMARK  status: ('A' for Active; 'I' for Inactive)
REMARK    1  A    between atoms: N1_2  and  C3_4 
REMARK    2  A    between atoms: C3_4  and  C4_5 
REMARK    3  A    between atoms: C5_6  and  C6_7 
REMARK       I    between atoms: C6_7  and  N2_9 
REMARK    4  A    between atoms: N2_9  and  C7_10 
REMARK    5  A    between atoms: C7_10  and  C8_11 
REMARK    6  A    between atoms: C8_11  and  C9_12 
REMARK    7  A    between atoms: C14_18  and  S1_19 
ROOT
HETATM    1  C7  UNL     1      25.190   4.429  50.686  1.00  0.00     0.127 C 
ENDROOT
BRANCH   1   2
HETATM    2  N2  UNL     1      26.189   3.423  51.087  1.00  0.00    -0.357 N 
HETATM    3  C6  UNL     1      25.731   2.107  51.370  1.00  0.00     0.240 C 
HETATM    4  O1  UNL     1      24.543   1.708  51.313  1.00  0.00    -0.269 OA
HETATM    5  H11 UNL     1      27.228   3.632  51.173  1.00  0.00     0.162 HD
BRANCH   3   6
HETATM    6  C5  UNL     1      26.745   1.109  51.772  1.00  0.00     0.072 C 
HETATM    7  C4  UNL     1      26.453   0.118  52.632  1.00  0.00     0.008 C 
BRANCH   7   8
HETATM    8  C3  UNL     1      27.459  -0.868  53.026  1.00  0.00     0.299 C 
BRANCH   8   9
HETATM    9  N1  UNL     1      28.617  -0.227  53.559  1.00  0.00     0.083 N 
HETATM   10  C1  UNL     1      29.761  -1.157  53.560  1.00  0.00     0.309 C 
HETATM   11  C2  UNL     1      28.456   0.161  54.945  1.00  0.00     0.309 C 
ENDBRANCH   8   9
ENDBRANCH   7   8
ENDBRANCH   3   6
ENDBRANCH   1   2
BRANCH   1  12
HETATM   12  C8  UNL     1      25.356   4.606  49.203  1.00  0.00     0.059 C 
BRANCH  12  13
HETATM   13  C9  UNL     1      26.362   5.591  48.799  1.00  0.00    -0.043 A 
HETATM   14  C10 UNL     1      27.658   5.304  48.585  1.00  0.00    -0.017 A 
HETATM   15  C11 UNL     1      28.843   6.101  48.180  1.00  0.00     0.047 A 
HETATM   16  C12 UNL     1      28.537   7.559  47.955  1.00  0.00     0.085 A 
HETATM   17 BR1  UNL     1      28.849   7.995  46.101  1.00  0.00    -0.087 Br
HETATM   18  C13 UNL     1      27.090   7.760  48.217  1.00  0.00     0.009 A 
HETATM   19  C14 UNL     1      26.082   7.002  48.578  1.00  0.00     0.020 A 
BRANCH  19  20
HETATM   20  S1  UNL     1      24.448   7.631  48.789  1.00  0.00    -0.019 SA
HETATM   21 CL1  UNL     1      24.083   7.907  50.848  1.00  0.00    -0.038 Cl
ENDBRANCH  19  20
ENDBRANCH  12  13
ENDBRANCH   1  12
TORSDOF 7
ENDMDL
MODEL 2
REMARK VINA RESULT:      -6.2      4.300      7.202
REMARK  7 active torsions:
REMARK  status: ('A' for Active; 'I' for Inactive)
REMARK    1  A    between atoms: N1_2  and  C3_4 
REMARK    2  A    between atoms: C3_4  and  C4_5 
REMARK    3  A    between atoms: C5_6  and  C6_7 
REMARK       I    between atoms: C6_7  and  N2_9 
REMARK    4  A    between atoms: N2_9  and  C7_10 
REMARK    5  A    between atoms: C7_10  and  C8_11 
REMARK    6  A    between atoms: C8_11  and  C9_12 
REMARK    7  A    between atoms: C14_18  and  S1_19 
ROOT
HETATM    1  C7  UNL     1      24.902   4.427  50.767  1.00  0.00     0.127 C 
ENDROOT
BRANCH   1   2
HETATM    2  N2  UNL     1      26.157   4.844  50.118  1.00  0.00    -0.357 N 
HETATM    3  C6  UNL     1      26.068   5.715  48.998  1.00  0.00     0.240 C 
HETATM    4  O1  UNL     1      25.013   6.173  48.497  1.00  0.00    -0.269 OA
HETATM    5  H11 UNL     1      27.118   4.528  50.444  1.00  0.00     0.162 HD
BRANCH   3   6
HETATM    6  C5  UNL     1      27.336   6.125  48.356  1.00  0.00     0.072 C 
HETATM    7  C4  UNL     1      28.462   5.403  48.501  1.00  0.00     0.008 C 
BRANCH   7   8
HETATM    8  C3  UNL     1      29.713   5.812  47.864  1.00  0.00     0.299 C 
BRANCH   8   9
HETATM    9  N1  UNL     1      30.760   5.924  48.826  1.00  0.00     0.083 N 
HETATM   10  C1  UNL     1      31.129   7.339  49.018  1.00  0.00     0.309 C 
HETATM   11  C2  UNL     1      31.985   5.277  48.402  1.00  0.00     0.309 C 
ENDBRANCH   8   9
ENDBRANCH   7   8
ENDBRANCH   3   6
ENDBRANCH   1   2
BRANCH   1  12
HETATM   12  C8  UNL     1      24.646   3.020  50.303  1.00  0.00     0.059 C 
BRANCH  12  13
HETATM   13  C9  UNL     1      25.047   1.969  51.240  1.00  0.00    -0.043 A 
HETATM   14  C10 UNL     1      26.309   1.529  51.389  1.00  0.00    -0.017 A 
HETATM   15  C11 UNL     1      26.955   0.505  52.247  1.00  0.00     0.047 A 
HETATM   16  C12 UNL     1      25.993  -0.207  53.160  1.00  0.00     0.085 A 
HETATM   17 BR1  UNL     1      26.448   0.183  54.995  1.00  0.00    -0.087 Br
HETATM   18  C13 UNL     1      24.641   0.354  52.913  1.00  0.00     0.009 A 
HETATM   19  C14 UNL     1      24.128   1.272  52.129  1.00  0.00     0.020 A 
BRANCH  19  20
HETATM   20  S1  UNL     1      22.411   1.672  52.129  1.00  0.00    -0.019 SA
HETATM   21 CL1  UNL     1      21.452   0.563  50.612  1.00  0.00    -0.038 Cl
ENDBRANCH  19  20
ENDBRANCH  12  13
ENDBRANCH   1  12
TORSDOF 7
ENDMDL
MODEL 3
REMARK VINA RESULT:      -6.2      4.191      7.568
REMARK  7 active torsions:
REMARK  status: ('A' for Active; 'I' for Inactive)
REMARK    1  A    between atoms: N1_2  and  C3_4 
REMARK    2  A    between atoms: C3_4  and  C4_5 
REMARK    3  A    between atoms: C5_6  and  C6_7 
REMARK       I    between atoms: C6_7  and  N2_9 
REMARK    4  A    between atoms: N2_9  and  C7_10 
REMARK    5  A    between atoms: C7_10  and  C8_11 
REMARK    6  A    between atoms: C8_11  and  C9_12 
REMARK    7  A    between atoms: C14_18  and  S1_19 
ROOT
HETATM    1  C7  UNL     1      26.711   1.922  51.597  1.00  0.00     0.127 C 
ENDROOT
BRANCH   1   2
HETATM    2  N2  UNL     1      26.906   3.255  51.003  1.00  0.00    -0.357 N 
HETATM    3  C6  UNL     1      26.077   3.624  49.908  1.00  0.00     0.240 C 
HETATM    4  O1  UNL     1      25.180   2.917  49.387  1.00  0.00    -0.269 OA
HETATM    5  H11 UNL     1      27.632   3.950  51.351  1.00  0.00     0.162 HD
BRANCH   3   6
HETATM    6  C5  UNL     1      26.286   4.965  49.321  1.00  0.00     0.072 C 
HETATM    7  C4  UNL     1      27.428   5.284  48.687  1.00  0.00     0.008 C 
BRANCH   7   8
HETATM    8  C3  UNL     1      27.630   6.611  48.107  1.00  0.00     0.299 C 
BRANCH   8   9
HETATM    9  N1  UNL     1      28.948   6.738  47.575  1.00  0.00     0.083 N 
HETATM   10  C1  UNL     1      29.808   5.649  48.071  1.00  0.00     0.309 C 
HETATM   11  C2  UNL     1      29.610   7.954  48.000  1.00  0.00     0.309 C 
ENDBRANCH   8   9
ENDBRANCH   7   8
ENDBRANCH   3   6
ENDBRANCH   1   2
BRANCH   1  12
HETATM   12  C8  UNL     1      25.920   2.144  52.856  1.00  0.00     0.059 C 
BRANCH  12  13
HETATM   13  C9  UNL     1      24.590   1.531  52.876  1.00  0.00    -0.043 A 
HETATM   14  C10 UNL     1      24.364   0.221  53.078  1.00  0.00    -0.017 A 
HETATM   15  C11 UNL     1      23.144  -0.621  53.142  1.00  0.00     0.047 A 
HETATM   16  C12 UNL     1      21.868   0.152  52.941  1.00  0.00     0.085 A 
HETATM   17 BR1  UNL     1      20.810   0.067  54.552  1.00  0.00    -0.087 Br
HETATM   18  C13 UNL     1      22.235   1.576  52.730  1.00  0.00     0.009 A 
HETATM   19  C14 UNL     1      23.349   2.266  52.683  1.00  0.00     0.020 A 
BRANCH  19  20
HETATM   20  S1  UNL     1      23.377   4.007  52.405  1.00  0.00    -0.019 SA
HETATM   21 CL1  UNL     1      22.383   4.427  50.593  1.00  0.00    -0.038 Cl
ENDBRANCH  19  20
ENDBRANCH  12  13
ENDBRANCH   1  12
TORSDOF 7
ENDMDL
MODEL 4
REMARK VINA RESULT:      -6.1      2.933      3.745
REMARK  7 active torsions:
REMARK  status: ('A' for Active; 'I' for Inactive)
REMARK    1  A    between atoms: N1_2  and  C3_4 
REMARK    2  A    between atoms: C3_4  and  C4_5 
REMARK    3  A    between atoms: C5_6  and  C6_7 
REMARK       I    between atoms: C6_7  and  N2_9 
REMARK    4  A    between atoms: N2_9  and  C7_10 
REMARK    5  A    between atoms: C7_10  and  C8_11 
REMARK    6  A    between atoms: C8_11  and  C9_12 
REMARK    7  A    between atoms: C14_18  and  S1_19 
ROOT
HETATM    1  C7  UNL     1      26.633   2.572  50.950  1.00  0.00     0.127 C 
ENDROOT
BRANCH   1   2
HETATM    2  N2  UNL     1      25.643   1.685  51.583  1.00  0.00    -0.357 N 
HETATM    3  C6  UNL     1      26.122   0.670  52.456  1.00  0.00     0.240 C 
HETATM    4  O1  UNL     1      27.323   0.449  52.747  1.00  0.00    -0.269 OA
HETATM    5  H11 UNL     1      24.596   1.767  51.421  1.00  0.00     0.162 HD
BRANCH   3   6
HETATM    6  C5  UNL     1      25.116  -0.214  53.084  1.00  0.00     0.072 C 
HETATM    7  C4  UNL     1      23.816   0.126  53.133  1.00  0.00     0.008 C 
BRANCH   7   8
HETATM    8  C3  UNL     1      22.825  -0.751  53.755  1.00  0.00     0.299 C 
BRANCH   8   9
HETATM    9  N1  UNL     1      21.521  -0.492  53.236  1.00  0.00     0.083 N 
HETATM   10  C1  UNL     1      21.611   0.295  51.993  1.00  0.00     0.309 C 
HETATM   11  C2  UNL     1      20.713   0.316  54.127  1.00  0.00     0.309 C 
ENDBRANCH   8   9
ENDBRANCH   7   8
ENDBRANCH   3   6
ENDBRANCH   1   2
BRANCH   1  12
HETATM   12  C8  UNL     1      25.940   3.185  49.765  1.00  0.00     0.059 C 
BRANCH  12  13
HETATM   13  C9  UNL     1      26.383   4.535  49.410  1.00  0.00    -0.043 A 
HETATM   14  C10 UNL     1      27.498   4.805  48.709  1.00  0.00    -0.017 A 
HETATM   15  C11 UNL     1      28.146   6.052  48.234  1.00  0.00     0.047 A 
HETATM   16  C12 UNL     1      27.396   7.302  48.614  1.00  0.00     0.085 A 
HETATM   17 BR1  UNL     1      26.781   8.187  47.013  1.00  0.00    -0.087 Br
HETATM   18  C13 UNL     1      26.192   6.887  49.377  1.00  0.00     0.009 A 
HETATM   19  C14 UNL     1      25.668   5.751  49.770  1.00  0.00     0.020 A 
BRANCH  19  20
HETATM   20  S1  UNL     1      24.167   5.664  50.690  1.00  0.00    -0.019 SA
HETATM   21 CL1  UNL     1      22.673   4.794  49.481  1.00  0.00    -0.038 Cl
ENDBRANCH  19  20
ENDBRANCH  12  13
ENDBRANCH   1  12
TORSDOF 7
ENDMDL
MODEL 5
REMARK VINA RESULT:      -6.1      4.716      7.620
REMARK  7 active torsions:
REMARK  status: ('A' for Active; 'I' for Inactive)
REMARK    1  A    between atoms: N1_2  and  C3_4 
REMARK    2  A    between atoms: C3_4  and  C4_5 
REMARK    3  A    between atoms: C5_6  and  C6_7 
REMARK       I    between atoms: C6_7  and  N2_9 
REMARK    4  A    between atoms: N2_9  and  C7_10 
REMARK    5  A    between atoms: C7_10  and  C8_11 
REMARK    6  A    between atoms: C8_11  and  C9_12 
REMARK    7  A    between atoms: C14_18  and  S1_19 
ROOT
HETATM    1  C7  UNL     1      26.041   4.169  49.729  1.00  0.00     0.127 C 
ENDROOT
BRANCH   1   2
HETATM    2  N2  UNL     1      27.338   4.691  49.267  1.00  0.00    -0.357 N 
HETATM    3  C6  UNL     1      27.341   5.904  48.525  1.00  0.00     0.240 C 
HETATM    4  O1  UNL     1      26.334   6.587  48.219  1.00  0.00    -0.269 OA
HETATM    5  H11 UNL     1      28.266   4.209  49.460  1.00  0.00     0.162 HD
BRANCH   3   6
HETATM    6  C5  UNL     1      28.651   6.416  48.067  1.00  0.00     0.072 C 
HETATM    7  C4  UNL     1      29.772   5.683  48.187  1.00  0.00     0.008 C 
BRANCH   7   8
HETATM    8  C3  UNL     1      31.065   6.192  47.732  1.00  0.00     0.299 C 
BRANCH   8   9
HETATM    9  N1  UNL     1      31.972   6.326  48.826  1.00  0.00     0.083 N 
HETATM   10  C1  UNL     1      32.020   7.726  49.283  1.00  0.00     0.309 C 
HETATM   11  C2  UNL     1      33.339   6.009  48.463  1.00  0.00     0.309 C 
ENDBRANCH   8   9
ENDBRANCH   7   8
ENDBRANCH   3   6
ENDBRANCH   1   2
BRANCH   1  12
HETATM   12  C8  UNL     1      26.325   2.811  50.306  1.00  0.00     0.059 C 
BRANCH  12  13
HETATM   13  C9  UNL     1      25.313   2.300  51.233  1.00  0.00    -0.043 A 
HETATM   14  C10 UNL     1      24.001   2.585  51.153  1.00  0.00    -0.017 A 
HETATM   15  C11 UNL     1      22.808   2.203  51.948  1.00  0.00     0.047 A 
HETATM   16  C12 UNL     1      23.123   1.292  53.105  1.00  0.00     0.085 A 
HETATM   17 BR1  UNL     1      22.255  -0.410  52.830  1.00  0.00    -0.087 Br
HETATM   18  C13 UNL     1      24.587   1.046  53.096  1.00  0.00     0.009 A 
HETATM   19  C14 UNL     1      25.603   1.419  52.355  1.00  0.00     0.020 A 
BRANCH  19  20
HETATM   20  S1  UNL     1      27.255   0.893  52.673  1.00  0.00    -0.019 SA
HETATM   21 CL1  UNL     1      28.336   2.501  53.508  1.00  0.00    -0.038 Cl
ENDBRANCH  19  20
ENDBRANCH  12  13
ENDBRANCH   1  12
TORSDOF 7
ENDMDL
MODEL 6
REMARK VINA RESULT:      -6.0      5.671      8.112
REMARK  7 active torsions:
REMARK  status: ('A' for Active; 'I' for Inactive)
REMARK    1  A    between atoms: N1_2  and  C3_4 
REMARK    2  A    between atoms: C3_4  and  C4_5 
REMARK    3  A    between atoms: C5_6  and  C6_7 
REMARK       I    between atoms: C6_7  and  N2_9 
REMARK    4  A    between atoms: N2_9  and  C7_10 
REMARK    5  A    between atoms: C7_10  and  C8_11 
REMARK    6  A    between atoms: C8_11  and  C9_12 
REMARK    7  A    between atoms: C14_18  and  S1_19 
ROOT
HETATM    1  C7  UNL     1      23.514  -0.475  53.542  1.00  0.00     0.127 C 
ENDROOT
BRANCH   1   2
HETATM    2  N2  UNL     1      22.113  -0.295  53.123  1.00  0.00    -0.357 N 
HETATM    3  C6  UNL     1      21.099  -0.903  53.913  1.00  0.00     0.240 C 
HETATM    4  O1  UNL     1      21.279  -1.590  54.948  1.00  0.00    -0.269 OA
HETATM    5  H11 UNL     1      21.827   0.265  52.266  1.00  0.00     0.162 HD
BRANCH   3   6
HETATM    6  C5  UNL     1      19.698  -0.713  53.480  1.00  0.00     0.072 C 
HETATM    7  C4  UNL     1      19.399  -0.143  52.299  1.00  0.00     0.008 C 
BRANCH   7   8
HETATM    8  C3  UNL     1      18.012   0.042  51.875  1.00  0.00     0.299 C 
BRANCH   8   9
HETATM    9  N1  UNL     1      17.931   0.966  50.790  1.00  0.00     0.083 N 
HETATM   10  C1  UNL     1      19.247   1.111  50.142  1.00  0.00     0.309 C 
HETATM   11  C2  UNL     1      17.581   2.305  51.219  1.00  0.00     0.309 C 
ENDBRANCH   8   9
ENDBRANCH   7   8
ENDBRANCH   3   6
ENDBRANCH   1   2
BRANCH   1  12
HETATM   12  C8  UNL     1      24.299   0.583  52.819  1.00  0.00     0.059 C 
BRANCH  12  13
HETATM   13  C9  UNL     1      25.697   0.719  53.237  1.00  0.00    -0.043 A 
HETATM   14  C10 UNL     1      26.217   0.146  54.336  1.00  0.00    -0.017 A 
HETATM   15  C11 UNL     1      27.565   0.131  54.957  1.00  0.00     0.047 A 
HETATM   16  C12 UNL     1      28.587   0.932  54.195  1.00  0.00     0.085 A 
HETATM   17 BR1  UNL     1      29.964  -0.250  53.541  1.00  0.00    -0.087 Br
HETATM   18  C13 UNL     1      27.908   1.514  53.010  1.00  0.00     0.009 A 
HETATM   19  C14 UNL     1      26.695   1.490  52.510  1.00  0.00     0.020 A 
BRANCH  19  20
HETATM   20  S1  UNL     1      26.263   2.336  51.025  1.00  0.00    -0.019 SA
HETATM   21 CL1  UNL     1      24.730   3.721  51.449  1.00  0.00    -0.038 Cl
ENDBRANCH  19  20
ENDBRANCH  12  13
ENDBRANCH   1  12
TORSDOF 7
ENDMDL
MODEL 7
REMARK VINA RESULT:      -5.9      4.552      8.112
REMARK  7 active torsions:
REMARK  status: ('A' for Active; 'I' for Inactive)
REMARK    1  A    between atoms: N1_2  and  C3_4 
REMARK    2  A    between atoms: C3_4  and  C4_5 
REMARK    3  A    between atoms: C5_6  and  C6_7 
REMARK       I    between atoms: C6_7  and  N2_9 
REMARK    4  A    between atoms: N2_9  and  C7_10 
REMARK    5  A    between atoms: C7_10  and  C8_11 
REMARK    6  A    between atoms: C8_11  and  C9_12 
REMARK    7  A    between atoms: C14_18  and  S1_19 
ROOT
HETATM    1  C7  UNL     1      25.763   2.791  50.739  1.00  0.00     0.127 C 
ENDROOT
BRANCH   1   2
HETATM    2  N2  UNL     1      26.310   4.134  50.484  1.00  0.00    -0.357 N 
HETATM    3  C6  UNL     1      25.630   4.963  49.550  1.00  0.00     0.240 C 
HETATM    4  O1  UNL     1      24.593   4.662  48.910  1.00  0.00    -0.269 OA
HETATM    5  H11 UNL     1      27.181   4.512  50.962  1.00  0.00     0.162 HD
BRANCH   3   6
HETATM    6  C5  UNL     1      26.191   6.309  49.304  1.00  0.00     0.072 C 
HETATM    7  C4  UNL     1      27.046   6.539  48.292  1.00  0.00     0.008 C 
BRANCH   7   8
HETATM    8  C3  UNL     1      27.598   7.872  48.052  1.00  0.00     0.299 C 
BRANCH   8   9
HETATM    9  N1  UNL     1      28.350   8.321  49.178  1.00  0.00     0.083 N 
HETATM   10  C1  UNL     1      27.827   9.613  49.660  1.00  0.00     0.309 C 
HETATM   11  C2  UNL     1      29.739   8.581  48.859  1.00  0.00     0.309 C 
ENDBRANCH   8   9
ENDBRANCH   7   8
ENDBRANCH   3   6
ENDBRANCH   1   2
BRANCH   1  12
HETATM   12  C8  UNL     1      24.840   2.938  51.916  1.00  0.00     0.059 C 
BRANCH  12  13
HETATM   13  C9  UNL     1      24.111   1.726  52.295  1.00  0.00    -0.043 A 
HETATM   14  C10 UNL     1      24.597   0.774  53.111  1.00  0.00    -0.017 A 
HETATM   15  C11 UNL     1      24.070  -0.511  53.633  1.00  0.00     0.047 A 
HETATM   16  C12 UNL     1      22.681  -0.831  53.150  1.00  0.00     0.085 A 
HETATM   17 BR1  UNL     1      21.475  -0.866  54.657  1.00  0.00    -0.087 Br
HETATM   18  C13 UNL     1      22.246   0.279  52.265  1.00  0.00     0.009 A 
HETATM   19  C14 UNL     1      22.768   1.403  51.836  1.00  0.00     0.020 A 
BRANCH  19  20
HETATM   20  S1  UNL     1      21.906   2.500  50.757  1.00  0.00    -0.019 SA
HETATM   21 CL1  UNL     1      22.393   2.018  48.762  1.00  0.00    -0.038 Cl
ENDBRANCH  19  20
ENDBRANCH  12  13
ENDBRANCH   1  12
TORSDOF 7
ENDMDL
MODEL 8
REMARK VINA RESULT:      -5.8      4.734      7.763
REMARK  7 active torsions:
REMARK  status: ('A' for Active; 'I' for Inactive)
REMARK    1  A    between atoms: N1_2  and  C3_4 
REMARK    2  A    between atoms: C3_4  and  C4_5 
REMARK    3  A    between atoms: C5_6  and  C6_7 
REMARK       I    between atoms: C6_7  and  N2_9 
REMARK    4  A    between atoms: N2_9  and  C7_10 
REMARK    5  A    between atoms: C7_10  and  C8_11 
REMARK    6  A    between atoms: C8_11  and  C9_12 
REMARK    7  A    between atoms: C14_18  and  S1_19 
ROOT
HETATM    1  C7  UNL     1      23.008   4.023  52.402  1.00  0.00     0.127 C 
ENDROOT
BRANCH   1   2
HETATM    2  N2  UNL     1      23.912   5.067  51.891  1.00  0.00    -0.357 N 
HETATM    3  C6  UNL     1      23.336   6.162  51.191  1.00  0.00     0.240 C 
HETATM    4  O1  UNL     1      22.114   6.333  50.961  1.00  0.00    -0.269 OA
HETATM    5  H11 UNL     1      24.967   5.041  52.020  1.00  0.00     0.162 HD
BRANCH   3   6
HETATM    6  C5  UNL     1      24.257   7.202  50.683  1.00  0.00     0.072 C 
HETATM    7  C4  UNL     1      25.515   6.906  50.315  1.00  0.00     0.008 C 
BRANCH   7   8
HETATM    8  C3  UNL     1      26.422   7.938  49.813  1.00  0.00     0.299 C 
BRANCH   8   9
HETATM    9  N1  UNL     1      27.063   7.510  48.612  1.00  0.00     0.083 N 
HETATM   10  C1  UNL     1      26.236   7.853  47.440  1.00  0.00     0.309 C 
HETATM   11  C2  UNL     1      27.223   6.072  48.542  1.00  0.00     0.309 C 
ENDBRANCH   8   9
ENDBRANCH   7   8
ENDBRANCH   3   6
ENDBRANCH   1   2
BRANCH   1  12
HETATM   12  C8  UNL     1      23.182   2.843  51.487  1.00  0.00     0.059 C 
BRANCH  12  13
HETATM   13  C9  UNL     1      24.183   1.863  51.914  1.00  0.00    -0.043 A 
HETATM   14  C10 UNL     1      25.486   1.921  51.584  1.00  0.00    -0.017 A 
HETATM   15  C11 UNL     1      26.668   1.075  51.882  1.00  0.00     0.047 A 
HETATM   16  C12 UNL     1      26.352  -0.117  52.747  1.00  0.00     0.085 A 
HETATM   17 BR1  UNL     1      27.288   0.048  54.426  1.00  0.00    -0.087 Br
HETATM   18  C13 UNL     1      24.898  -0.080  53.048  1.00  0.00     0.009 A 
HETATM   19  C14 UNL     1      23.892   0.707  52.749  1.00  0.00     0.020 A 
BRANCH  19  20
HETATM   20  S1  UNL     1      22.251   0.410  53.321  1.00  0.00    -0.019 SA
HETATM   21 CL1  UNL     1      22.331  -0.872  54.994  1.00  0.00    -0.038 Cl
ENDBRANCH  19  20
ENDBRANCH  12  13
ENDBRANCH   1  12
TORSDOF 7
ENDMDL
MODEL 9
REMARK VINA RESULT:      -5.7      4.952      8.102
REMARK  7 active torsions:
REMARK  status: ('A' for Active; 'I' for Inactive)
REMARK    1  A    between atoms: N1_2  and  C3_4 
REMARK    2  A    between atoms: C3_4  and  C4_5 
REMARK    3  A    between atoms: C5_6  and  C6_7 
REMARK       I    between atoms: C6_7  and  N2_9 
REMARK    4  A    between atoms: N2_9  and  C7_10 
REMARK    5  A    between atoms: C7_10  and  C8_11 
REMARK    6  A    between atoms: C8_11  and  C9_12 
REMARK    7  A    between atoms: C14_18  and  S1_19 
ROOT
HETATM    1  C7  UNL     1      26.135   4.284  49.630  1.00  0.00     0.127 C 
ENDROOT
BRANCH   1   2
HETATM    2  N2  UNL     1      27.424   4.643  49.016  1.00  0.00    -0.357 N 
HETATM    3  C6  UNL     1      27.561   5.950  48.473  1.00  0.00     0.240 C 
HETATM    4  O1  UNL     1      26.679   6.844  48.462  1.00  0.00    -0.269 OA
HETATM    5  H11 UNL     1      28.252   3.978  48.961  1.00  0.00     0.162 HD
BRANCH   3   6
HETATM    6  C5  UNL     1      28.861   6.297  47.859  1.00  0.00     0.072 C 
HETATM    7  C4  UNL     1      29.483   7.455  48.139  1.00  0.00     0.008 C 
BRANCH   7   8
HETATM    8  C3  UNL     1      30.769   7.793  47.531  1.00  0.00     0.299 C 
BRANCH   8   9
HETATM    9  N1  UNL     1      31.501   8.696  48.358  1.00  0.00     0.083 N 
HETATM   10  C1  UNL     1      31.774   8.082  49.670  1.00  0.00     0.309 C 
HETATM   11  C2  UNL     1      30.761   9.904  48.662  1.00  0.00     0.309 C 
ENDBRANCH   8   9
ENDBRANCH   7   8
ENDBRANCH   3   6
ENDBRANCH   1   2
BRANCH   1  12
HETATM   12  C8  UNL     1      26.346   2.944  50.277  1.00  0.00     0.059 C 
BRANCH  12  13
HETATM   13  C9  UNL     1      25.241   2.472  51.115  1.00  0.00    -0.043 A 
HETATM   14  C10 UNL     1      23.978   2.922  51.024  1.00  0.00    -0.017 A 
HETATM   15  C11 UNL     1      22.714   2.613  51.737  1.00  0.00     0.047 A 
HETATM   16  C12 UNL     1      22.867   1.560  52.802  1.00  0.00     0.085 A 
HETATM   17 BR1  UNL     1      21.816   0.014  52.326  1.00  0.00    -0.087 Br
HETATM   18  C13 UNL     1      24.291   1.137  52.814  1.00  0.00     0.009 A 
HETATM   19  C14 UNL     1      25.375   1.455  52.148  1.00  0.00     0.020 A 
BRANCH  19  20
HETATM   20  S1  UNL     1      26.937   0.701  52.460  1.00  0.00    -0.019 SA
HETATM   21 CL1  UNL     1      26.708  -1.395  52.404  1.00  0.00    -0.038 Cl
ENDBRANCH  19  20
ENDBRANCH  12  13
ENDBRANCH   1  12
TORSDOF 7
ENDMDL
