MODEL 1
REMARK VINA RESULT:      -8.8      0.000      0.000
REMARK  2 active torsions:
REMARK  status: ('A' for Active; 'I' for Inactive)
REMARK    1  A    between atoms: C5_6  and  N1_7 
REMARK    2  A    between atoms: N1_7  and  C6_8 
ROOT
HETATM    1  C6  UNL     1      25.197   1.582  51.990  1.00  0.00     0.264 C 
HETATM    2  C7  UNL     1      26.527   2.126  51.616  1.00  0.00     0.303 C 
HETATM    3  N2  UNL     1      27.638   2.473  52.101  1.00  0.00    -0.400 NA
HETATM    4  C8  UNL     1      28.046   2.444  53.453  1.00  0.00     0.287 C 
HETATM    5  O1  UNL     1      27.635   1.289  54.133  1.00  0.00    -0.331 OA
HETATM    6  C9  UNL     1      27.999   0.004  53.763  1.00  0.00     0.097 A 
HETATM    7  C10 UNL     1      29.323  -0.268  54.025  1.00  0.00     0.039 A 
HETATM    8  C11 UNL     1      29.909  -1.484  53.741  1.00  0.00     0.003 A 
HETATM    9  C12 UNL     1      29.159  -2.490  53.169  1.00  0.00     0.002 A 
HETATM   10  C13 UNL     1      27.839  -2.178  52.922  1.00  0.00     0.032 A 
HETATM   11  C14 UNL     1      27.213  -0.971  53.190  1.00  0.00     0.063 A 
HETATM   12  N3  UNL     1      25.854  -0.883  52.852  1.00  0.00    -0.366 N 
HETATM   13  C15 UNL     1      24.854  -0.041  53.476  1.00  0.00     0.293 C 
HETATM   14  O2  UNL     1      25.148   1.306  53.347  1.00  0.00    -0.343 OA
HETATM   15  H13 UNL     1      25.513  -1.496  52.054  1.00  0.00     0.162 HD
ENDROOT
BRANCH   1  16
HETATM   16  N1  UNL     1      24.151   2.491  51.593  1.00  0.00    -0.359 N 
HETATM   17  H4  UNL     1      24.105   3.442  52.013  1.00  0.00     0.162 HD
BRANCH  16  18
HETATM   18  C5  UNL     1      23.168   2.134  50.637  1.00  0.00     0.031 A 
HETATM   19  C4  UNL     1      22.254   1.108  50.887  1.00  0.00     0.029 A 
HETATM   20  C3  UNL     1      21.290   0.739  49.977  1.00  0.00     0.004 A 
HETATM   21  C2  UNL     1      21.182   1.370  48.772  1.00  0.00     0.019 A 
HETATM   22  C1  UNL     1      22.082   2.383  48.523  1.00  0.00     0.013 A 
HETATM   23 BR1  UNL     1      21.961   3.294  46.839  1.00  0.00    -0.051 Br
HETATM   24  C16 UNL     1      23.049   2.763  49.417  1.00  0.00     0.048 A 
ENDBRANCH  16  18
ENDBRANCH   1  16
TORSDOF 2
ENDMDL
MODEL 2
REMARK VINA RESULT:      -8.6      1.169      1.801
REMARK  2 active torsions:
REMARK  status: ('A' for Active; 'I' for Inactive)
REMARK    1  A    between atoms: C5_6  and  N1_7 
REMARK    2  A    between atoms: N1_7  and  C6_8 
ROOT
HETATM    1  C6  UNL     1      25.625   2.179  52.442  1.00  0.00     0.264 C 
HETATM    2  C7  UNL     1      27.018   2.484  52.030  1.00  0.00     0.303 C 
HETATM    3  N2  UNL     1      28.200   2.547  52.466  1.00  0.00    -0.400 NA
HETATM    4  C8  UNL     1      28.661   2.286  53.776  1.00  0.00     0.287 C 
HETATM    5  O1  UNL     1      28.055   1.168  54.366  1.00  0.00    -0.331 OA
HETATM    6  C9  UNL     1      28.127  -0.114  53.845  1.00  0.00     0.097 A 
HETATM    7  C10 UNL     1      29.377  -0.673  53.984  1.00  0.00     0.039 A 
HETATM    8  C11 UNL     1      29.685  -1.942  53.540  1.00  0.00     0.003 A 
HETATM    9  C12 UNL     1      28.715  -2.707  52.927  1.00  0.00     0.002 A 
HETATM   10  C13 UNL     1      27.478  -2.112  52.807  1.00  0.00     0.032 A 
HETATM   11  C14 UNL     1      27.128  -0.843  53.237  1.00  0.00     0.063 A 
HETATM   12  N3  UNL     1      25.801  -0.447  53.008  1.00  0.00    -0.366 N 
HETATM   13  C15 UNL     1      25.030   0.503  53.783  1.00  0.00     0.293 C 
HETATM   14  O2  UNL     1      25.589   1.769  53.766  1.00  0.00    -0.343 OA
HETATM   15  H13 UNL     1      25.302  -0.887  52.180  1.00  0.00     0.162 HD
ENDROOT
BRANCH   1  16
HETATM   16  N1  UNL     1      24.772   3.318  52.214  1.00  0.00    -0.359 N 
HETATM   17  H4  UNL     1      24.587   3.990  52.986  1.00  0.00     0.162 HD
BRANCH  16  18
HETATM   18  C5  UNL     1      24.164   3.561  50.956  1.00  0.00     0.031 A 
HETATM   19  C4  UNL     1      24.462   4.707  50.217  1.00  0.00     0.029 A 
HETATM   20  C3  UNL     1      23.886   4.969  48.995  1.00  0.00     0.004 A 
HETATM   21  C2  UNL     1      22.986   4.105  48.442  1.00  0.00     0.019 A 
HETATM   22  C1  UNL     1      22.691   2.972  49.169  1.00  0.00     0.013 A 
HETATM   23 BR1  UNL     1      21.429   1.734  48.423  1.00  0.00    -0.051 Br
HETATM   24  C16 UNL     1      23.253   2.696  50.388  1.00  0.00     0.048 A 
ENDBRANCH  16  18
ENDBRANCH   1  16
TORSDOF 2
ENDMDL
MODEL 3
REMARK VINA RESULT:      -7.8      3.045      4.229
REMARK  2 active torsions:
REMARK  status: ('A' for Active; 'I' for Inactive)
REMARK    1  A    between atoms: C5_6  and  N1_7 
REMARK    2  A    between atoms: N1_7  and  C6_8 
ROOT
HETATM    1  C6  UNL     1      24.506   3.280  51.701  1.00  0.00     0.264 C 
HETATM    2  C7  UNL     1      24.025   2.551  52.901  1.00  0.00     0.303 C 
HETATM    3  N2  UNL     1      23.950   1.399  53.409  1.00  0.00    -0.400 NA
HETATM    4  C8  UNL     1      24.406   0.176  52.867  1.00  0.00     0.287 C 
HETATM    5  O1  UNL     1      25.655   0.278  52.239  1.00  0.00    -0.331 OA
HETATM    6  C9  UNL     1      26.814   0.680  52.884  1.00  0.00     0.097 A 
HETATM    7  C10 UNL     1      27.290  -0.270  53.760  1.00  0.00     0.039 A 
HETATM    8  C11 UNL     1      28.431  -0.090  54.513  1.00  0.00     0.003 A 
HETATM    9  C12 UNL     1      29.146   1.085  54.404  1.00  0.00     0.002 A 
HETATM   10  C13 UNL     1      28.637   2.009  53.518  1.00  0.00     0.032 A 
HETATM   11  C14 UNL     1      27.496   1.869  52.745  1.00  0.00     0.063 A 
HETATM   12  N3  UNL     1      27.169   2.947  51.909  1.00  0.00    -0.366 N 
HETATM   13  C15 UNL     1      26.437   2.891  50.661  1.00  0.00     0.293 C 
HETATM   14  O2  UNL     1      25.149   2.414  50.830  1.00  0.00    -0.343 OA
HETATM   15  H13 UNL     1      27.491   3.912  52.217  1.00  0.00     0.162 HD
ENDROOT
BRANCH   1  16
HETATM   16  N1  UNL     1      23.414   3.968  51.058  1.00  0.00    -0.359 N 
HETATM   17  H4  UNL     1      22.570   3.437  50.762  1.00  0.00     0.162 HD
BRANCH  16  18
HETATM   18  C5  UNL     1      23.447   5.363  50.811  1.00  0.00     0.031 A 
HETATM   19  C4  UNL     1      22.279   6.128  50.816  1.00  0.00     0.029 A 
HETATM   20  C3  UNL     1      22.281   7.483  50.578  1.00  0.00     0.004 A 
HETATM   21  C2  UNL     1      23.445   8.150  50.324  1.00  0.00     0.019 A 
HETATM   22  C1  UNL     1      24.599   7.399  50.319  1.00  0.00     0.013 A 
HETATM   23 BR1  UNL     1      26.254   8.303  49.965  1.00  0.00    -0.051 Br
HETATM   24  C16 UNL     1      24.616   6.048  50.553  1.00  0.00     0.048 A 
ENDBRANCH  16  18
ENDBRANCH   1  16
TORSDOF 2
ENDMDL
MODEL 4
REMARK VINA RESULT:      -7.8      1.512      2.683
REMARK  2 active torsions:
REMARK  status: ('A' for Active; 'I' for Inactive)
REMARK    1  A    between atoms: C5_6  and  N1_7 
REMARK    2  A    between atoms: N1_7  and  C6_8 
ROOT
HETATM    1  C6  UNL     1      24.467   3.055  51.801  1.00  0.00     0.264 C 
HETATM    2  C7  UNL     1      24.064   2.259  52.988  1.00  0.00     0.303 C 
HETATM    3  N2  UNL     1      24.105   1.096  53.473  1.00  0.00    -0.400 NA
HETATM    4  C8  UNL     1      24.676  -0.066  52.907  1.00  0.00     0.287 C 
HETATM    5  O1  UNL     1      25.907   0.170  52.279  1.00  0.00    -0.331 OA
HETATM    6  C9  UNL     1      27.023   0.672  52.930  1.00  0.00     0.097 A 
HETATM    7  C10 UNL     1      27.593  -0.244  53.786  1.00  0.00     0.039 A 
HETATM    8  C11 UNL     1      28.713   0.033  54.541  1.00  0.00     0.003 A 
HETATM    9  C12 UNL     1      29.310   1.274  54.454  1.00  0.00     0.002 A 
HETATM   10  C13 UNL     1      28.709   2.161  53.587  1.00  0.00     0.032 A 
HETATM   11  C14 UNL     1      27.585   1.924  52.813  1.00  0.00     0.063 A 
HETATM   12  N3  UNL     1      27.151   2.981  51.998  1.00  0.00    -0.366 N 
HETATM   13  C15 UNL     1      26.424   2.878  50.751  1.00  0.00     0.293 C 
HETATM   14  O2  UNL     1      25.189   2.273  50.913  1.00  0.00    -0.343 OA
HETATM   15  H13 UNL     1      27.378   3.967  52.326  1.00  0.00     0.162 HD
ENDROOT
BRANCH   1  16
HETATM   16  N1  UNL     1      23.311   3.644  51.174  1.00  0.00    -0.359 N 
HETATM   17  H4  UNL     1      22.938   4.551  51.522  1.00  0.00     0.162 HD
BRANCH  16  18
HETATM   18  C5  UNL     1      22.652   3.025  50.082  1.00  0.00     0.031 A 
HETATM   19  C4  UNL     1      22.027   1.784  50.223  1.00  0.00     0.029 A 
HETATM   20  C3  UNL     1      21.382   1.159  49.181  1.00  0.00     0.004 A 
HETATM   21  C2  UNL     1      21.322   1.734  47.945  1.00  0.00     0.019 A 
HETATM   22  C1  UNL     1      21.936   2.959  47.803  1.00  0.00     0.013 A 
HETATM   23 BR1  UNL     1      21.873   3.798  46.079  1.00  0.00    -0.051 Br
HETATM   24  C16 UNL     1      22.585   3.595  48.829  1.00  0.00     0.048 A 
ENDBRANCH  16  18
ENDBRANCH   1  16
TORSDOF 2
ENDMDL
MODEL 5
REMARK VINA RESULT:      -7.5      4.219      6.078
REMARK  2 active torsions:
REMARK  status: ('A' for Active; 'I' for Inactive)
REMARK    1  A    between atoms: C5_6  and  N1_7 
REMARK    2  A    between atoms: N1_7  and  C6_8 
ROOT
HETATM    1  C6  UNL     1      22.179   3.584  51.331  1.00  0.00     0.264 C 
HETATM    2  C7  UNL     1      21.085   3.631  52.334  1.00  0.00     0.303 C 
HETATM    3  N2  UNL     1      20.043   3.027  52.706  1.00  0.00    -0.400 NA
HETATM    4  C8  UNL     1      19.470   1.858  52.158  1.00  0.00     0.287 C 
HETATM    5  O1  UNL     1      20.417   0.884  51.813  1.00  0.00    -0.331 OA
HETATM    6  C9  UNL     1      21.291   0.301  52.717  1.00  0.00     0.097 A 
HETATM    7  C10 UNL     1      20.660  -0.567  53.580  1.00  0.00     0.039 A 
HETATM    8  C11 UNL     1      21.328  -1.263  54.565  1.00  0.00     0.003 A 
HETATM    9  C12 UNL     1      22.690  -1.101  54.715  1.00  0.00     0.002 A 
HETATM   10  C13 UNL     1      23.284  -0.225  53.833  1.00  0.00     0.032 A 
HETATM   11  C14 UNL     1      22.650   0.494  52.831  1.00  0.00     0.063 A 
HETATM   12  N3  UNL     1      23.463   1.329  52.050  1.00  0.00    -0.366 N 
HETATM   13  C15 UNL     1      23.233   1.733  50.679  1.00  0.00     0.293 C 
HETATM   14  O2  UNL     1      22.061   2.456  50.535  1.00  0.00    -0.343 OA
HETATM   15  H13 UNL     1      24.344   1.710  52.506  1.00  0.00     0.162 HD
ENDROOT
BRANCH   1  16
HETATM   16  N1  UNL     1      22.193   4.791  50.544  1.00  0.00    -0.359 N 
HETATM   17  H4  UNL     1      21.323   5.114  50.075  1.00  0.00     0.162 HD
BRANCH  16  18
HETATM   18  C5  UNL     1      23.368   5.569  50.384  1.00  0.00     0.031 A 
HETATM   19  C4  UNL     1      23.410   6.907  50.780  1.00  0.00     0.029 A 
HETATM   20  C3  UNL     1      24.535   7.686  50.635  1.00  0.00     0.004 A 
HETATM   21  C2  UNL     1      25.678   7.176  50.091  1.00  0.00     0.019 A 
HETATM   22  C1  UNL     1      25.640   5.856  49.699  1.00  0.00     0.013 A 
HETATM   23 BR1  UNL     1      27.227   5.104  48.928  1.00  0.00    -0.051 Br
HETATM   24  C16 UNL     1      24.528   5.066  49.835  1.00  0.00     0.048 A 
ENDBRANCH  16  18
ENDBRANCH   1  16
TORSDOF 2
ENDMDL
MODEL 6
REMARK VINA RESULT:      -7.4      4.123      7.122
REMARK  2 active torsions:
REMARK  status: ('A' for Active; 'I' for Inactive)
REMARK    1  A    between atoms: C5_6  and  N1_7 
REMARK    2  A    between atoms: N1_7  and  C6_8 
ROOT
HETATM    1  C6  UNL     1      23.401   2.274  51.454  1.00  0.00     0.264 C 
HETATM    2  C7  UNL     1      22.538   2.568  50.282  1.00  0.00     0.303 C 
HETATM    3  N2  UNL     1      21.490   3.179  49.939  1.00  0.00    -0.400 NA
HETATM    4  C8  UNL     1      20.621   3.943  50.750  1.00  0.00     0.287 C 
HETATM    5  O1  UNL     1      21.294   4.752  51.677  1.00  0.00    -0.331 OA
HETATM    6  C9  UNL     1      22.198   5.742  51.325  1.00  0.00     0.097 A 
HETATM    7  C10 UNL     1      21.589   6.837  50.755  1.00  0.00     0.039 A 
HETATM    8  C11 UNL     1      22.289   7.946  50.327  1.00  0.00     0.003 A 
HETATM    9  C12 UNL     1      23.661   7.985  50.464  1.00  0.00     0.002 A 
HETATM   10  C13 UNL     1      24.232   6.870  51.038  1.00  0.00     0.032 A 
HETATM   11  C14 UNL     1      23.567   5.738  51.480  1.00  0.00     0.063 A 
HETATM   12  N3  UNL     1      24.360   4.722  52.035  1.00  0.00    -0.366 N 
HETATM   13  C15 UNL     1      23.958   3.748  53.028  1.00  0.00     0.293 C 
HETATM   14  O2  UNL     1      22.932   2.934  52.580  1.00  0.00    -0.343 OA
HETATM   15  H13 UNL     1      25.365   4.654  51.695  1.00  0.00     0.162 HD
ENDROOT
BRANCH   1  16
HETATM   16  N1  UNL     1      23.490   0.852  51.670  1.00  0.00    -0.359 N 
HETATM   17  H4  UNL     1      24.168   0.286  51.121  1.00  0.00     0.162 HD
BRANCH  16  18
HETATM   18  C5  UNL     1      22.675   0.184  52.618  1.00  0.00     0.031 A 
HETATM   19  C4  UNL     1      23.215  -0.349  53.791  1.00  0.00     0.029 A 
HETATM   20  C3  UNL     1      22.449  -1.003  54.727  1.00  0.00     0.004 A 
HETATM   21  C2  UNL     1      21.105  -1.162  54.549  1.00  0.00     0.019 A 
HETATM   22  C1  UNL     1      20.569  -0.637  53.394  1.00  0.00     0.013 A 
HETATM   23 BR1  UNL     1      18.683  -0.842  53.109  1.00  0.00    -0.051 Br
HETATM   24  C16 UNL     1      21.317   0.016  52.450  1.00  0.00     0.048 A 
ENDBRANCH  16  18
ENDBRANCH   1  16
TORSDOF 2
ENDMDL
MODEL 7
REMARK VINA RESULT:      -7.3      4.311      5.753
REMARK  2 active torsions:
REMARK  status: ('A' for Active; 'I' for Inactive)
REMARK    1  A    between atoms: C5_6  and  N1_7 
REMARK    2  A    between atoms: N1_7  and  C6_8 
ROOT
HETATM    1  C6  UNL     1      20.449   0.240  52.299  1.00  0.00     0.264 C 
HETATM    2  C7  UNL     1      21.073   0.557  50.990  1.00  0.00     0.303 C 
HETATM    3  N2  UNL     1      21.872   1.356  50.429  1.00  0.00    -0.400 NA
HETATM    4  C8  UNL     1      22.573   2.437  51.009  1.00  0.00     0.287 C 
HETATM    5  O1  UNL     1      23.093   2.146  52.278  1.00  0.00    -0.331 OA
HETATM    6  C9  UNL     1      24.004   1.132  52.526  1.00  0.00     0.097 A 
HETATM    7  C10 UNL     1      25.259   1.416  52.037  1.00  0.00     0.039 A 
HETATM    8  C11 UNL     1      26.327   0.553  52.166  1.00  0.00     0.003 A 
HETATM    9  C12 UNL     1      26.158  -0.655  52.811  1.00  0.00     0.002 A 
HETATM   10  C13 UNL     1      24.888  -0.901  53.285  1.00  0.00     0.032 A 
HETATM   11  C14 UNL     1      23.789  -0.064  53.175  1.00  0.00     0.063 A 
HETATM   12  N3  UNL     1      22.590  -0.527  53.739  1.00  0.00    -0.366 N 
HETATM   13  C15 UNL     1      21.506   0.278  54.259  1.00  0.00     0.293 C 
HETATM   14  O2  UNL     1      20.935   1.082  53.286  1.00  0.00    -0.343 OA
HETATM   15  H13 UNL     1      22.457  -1.580  53.793  1.00  0.00     0.162 HD
ENDROOT
BRANCH   1  16
HETATM   16  N1  UNL     1      19.012   0.309  52.201  1.00  0.00    -0.359 N 
HETATM   17  H4  UNL     1      18.557   1.185  51.875  1.00  0.00     0.162 HD
BRANCH  16  18
HETATM   18  C5  UNL     1      18.184  -0.791  52.537  1.00  0.00     0.031 A 
HETATM   19  C4  UNL     1      18.618  -1.784  53.418  1.00  0.00     0.029 A 
HETATM   20  C3  UNL     1      17.837  -2.862  53.760  1.00  0.00     0.004 A 
HETATM   21  C2  UNL     1      16.580  -3.011  53.248  1.00  0.00     0.019 A 
HETATM   22  C1  UNL     1      16.148  -2.034  52.379  1.00  0.00     0.013 A 
HETATM   23 BR1  UNL     1      14.387  -2.210  51.637  1.00  0.00    -0.051 Br
HETATM   24  C16 UNL     1      16.914  -0.953  52.025  1.00  0.00     0.048 A 
ENDBRANCH  16  18
ENDBRANCH   1  16
TORSDOF 2
ENDMDL
MODEL 8
REMARK VINA RESULT:      -7.3      4.433      6.246
REMARK  2 active torsions:
REMARK  status: ('A' for Active; 'I' for Inactive)
REMARK    1  A    between atoms: C5_6  and  N1_7 
REMARK    2  A    between atoms: N1_7  and  C6_8 
ROOT
HETATM    1  C6  UNL     1      23.338   4.168  50.543  1.00  0.00     0.264 C 
HETATM    2  C7  UNL     1      22.622   4.680  51.739  1.00  0.00     0.303 C 
HETATM    3  N2  UNL     1      21.517   4.621  52.345  1.00  0.00    -0.400 NA
HETATM    4  C8  UNL     1      20.367   3.881  51.991  1.00  0.00     0.287 C 
HETATM    5  O1  UNL     1      20.657   2.593  51.521  1.00  0.00    -0.331 OA
HETATM    6  C9  UNL     1      21.319   1.630  52.266  1.00  0.00     0.097 A 
HETATM    7  C10 UNL     1      20.545   1.124  53.286  1.00  0.00     0.039 A 
HETATM    8  C11 UNL     1      20.994   0.154  54.158  1.00  0.00     0.003 A 
HETATM    9  C12 UNL     1      22.271  -0.349  54.025  1.00  0.00     0.002 A 
HETATM   10  C13 UNL     1      23.014   0.184  52.993  1.00  0.00     0.032 A 
HETATM   11  C14 UNL     1      22.602   1.157  52.097  1.00  0.00     0.063 A 
HETATM   12  N3  UNL     1      23.534   1.547  51.123  1.00  0.00    -0.366 N 
HETATM   13  C15 UNL     1      23.247   2.069  49.804  1.00  0.00     0.293 C 
HETATM   14  O2  UNL     1      22.547   3.263  49.853  1.00  0.00    -0.343 OA
HETATM   15  H13 UNL     1      24.562   1.450  51.373  1.00  0.00     0.162 HD
ENDROOT
BRANCH   1  16
HETATM   16  N1  UNL     1      23.756   5.261  49.701  1.00  0.00    -0.359 N 
HETATM   17  H4  UNL     1      23.065   5.980  49.405  1.00  0.00     0.162 HD
BRANCH  16  18
HETATM   18  C5  UNL     1      25.094   5.394  49.253  1.00  0.00     0.031 A 
HETATM   19  C4  UNL     1      26.024   4.368  49.433  1.00  0.00     0.029 A 
HETATM   20  C3  UNL     1      27.329   4.470  49.010  1.00  0.00     0.004 A 
HETATM   21  C2  UNL     1      27.779   5.597  48.385  1.00  0.00     0.019 A 
HETATM   22  C1  UNL     1      26.864   6.611  48.205  1.00  0.00     0.013 A 
HETATM   23 BR1  UNL     1      27.461   8.211  47.330  1.00  0.00    -0.051 Br
HETATM   24  C16 UNL     1      25.561   6.527  48.621  1.00  0.00     0.048 A 
ENDBRANCH  16  18
ENDBRANCH   1  16
TORSDOF 2
ENDMDL
MODEL 9
REMARK VINA RESULT:      -7.3      3.834      7.380
REMARK  2 active torsions:
REMARK  status: ('A' for Active; 'I' for Inactive)
REMARK    1  A    between atoms: C5_6  and  N1_7 
REMARK    2  A    between atoms: N1_7  and  C6_8 
ROOT
HETATM    1  C6  UNL     1      24.054   4.034  51.816  1.00  0.00     0.264 C 
HETATM    2  C7  UNL     1      23.585   5.440  51.902  1.00  0.00     0.303 C 
HETATM    3  N2  UNL     1      23.826   6.603  51.478  1.00  0.00    -0.400 NA
HETATM    4  C8  UNL     1      24.848   7.014  50.593  1.00  0.00     0.287 C 
HETATM    5  O1  UNL     1      25.046   6.129  49.524  1.00  0.00    -0.331 OA
HETATM    6  C9  UNL     1      24.066   5.804  48.598  1.00  0.00     0.097 A 
HETATM    7  C10 UNL     1      23.787   6.840  47.736  1.00  0.00     0.039 A 
HETATM    8  C11 UNL     1      22.847   6.747  46.732  1.00  0.00     0.003 A 
HETATM    9  C12 UNL     1      22.141   5.574  46.560  1.00  0.00     0.002 A 
HETATM   10  C13 UNL     1      22.450   4.562  47.443  1.00  0.00     0.032 A 
HETATM   11  C14 UNL     1      23.384   4.614  48.464  1.00  0.00     0.063 A 
HETATM   12  N3  UNL     1      23.530   3.454  49.240  1.00  0.00    -0.366 N 
HETATM   13  C15 UNL     1      24.718   3.023  49.946  1.00  0.00     0.293 C 
HETATM   14  O2  UNL     1      25.106   3.926  50.920  1.00  0.00    -0.343 OA
HETATM   15  H13 UNL     1      22.682   2.819  49.323  1.00  0.00     0.162 HD
ENDROOT
BRANCH   1  16
HETATM   16  N1  UNL     1      24.415   3.543  53.123  1.00  0.00    -0.359 N 
HETATM   17  H4  UNL     1      24.359   4.175  53.947  1.00  0.00     0.162 HD
BRANCH  16  18
HETATM   18  C5  UNL     1      24.851   2.210  53.330  1.00  0.00     0.031 A 
HETATM   19  C4  UNL     1      24.018   1.124  53.051  1.00  0.00     0.029 A 
HETATM   20  C3  UNL     1      24.413  -0.179  53.244  1.00  0.00     0.004 A 
HETATM   21  C2  UNL     1      25.657  -0.473  53.722  1.00  0.00     0.019 A 
HETATM   22  C1  UNL     1      26.482   0.596  53.997  1.00  0.00     0.013 A 
HETATM   23 BR1  UNL     1      28.238   0.221  54.672  1.00  0.00    -0.051 Br
HETATM   24  C16 UNL     1      26.104   1.900  53.813  1.00  0.00     0.048 A 
ENDBRANCH  16  18
ENDBRANCH   1  16
TORSDOF 2
ENDMDL
