MODEL 1
REMARK VINA RESULT:     -10.5      0.000      0.000
REMARK  5 active torsions:
REMARK  status: ('A' for Active; 'I' for Inactive)
REMARK    1  A    between atoms: N1_3  and  C2_4 
REMARK    2  A    between atoms: C12_15  and  N3_16 
REMARK    3  A    between atoms: N3_16  and  C13_17 
REMARK    4  A    between atoms: N5_26  and  C20_27 
REMARK    5  A    between atoms: C23_30  and  O2_31 
ROOT
HETATM    1  O1  UNL     1      25.612   1.358  51.922  1.00  0.00    -0.246 OA
HETATM    2  C1  UNL     1      24.836   0.649  52.620  1.00  0.00     0.331 A 
HETATM    3  N1  UNL     1      25.340  -0.257  53.589  1.00  0.00    -0.295 N 
HETATM    4  C9  UNL     1      24.520  -1.089  54.414  1.00  0.00     0.178 A 
HETATM    5  C10 UNL     1      23.082  -0.910  54.153  1.00  0.00     0.025 A 
HETATM    6  C11 UNL     1      22.156  -1.635  54.861  1.00  0.00     0.149 A 
HETATM    7  N2  UNL     1      20.832  -1.538  54.692  1.00  0.00    -0.074 NA
HETATM    8  C12 UNL     1      20.322  -0.700  53.794  1.00  0.00     0.728 A 
HETATM    9  N4  UNL     1      21.194   0.030  53.078  1.00  0.00    -0.044 NA
HETATM   10  C19 UNL     1      22.520  -0.055  53.234  1.00  0.00     0.162 A 
HETATM   11  N5  UNL     1      23.413   0.754  52.439  1.00  0.00    -0.278 N 
ENDROOT
BRANCH   8  12
HETATM   12  N3  UNL     1      18.943  -0.543  53.559  1.00  0.00    -0.188 N 
HETATM   13  H11 UNL     1      18.571   0.458  53.552  1.00  0.00     0.184 HD
BRANCH  12  14
HETATM   14  C13 UNL     1      17.972  -1.518  53.331  1.00  0.00     0.049 A 
HETATM   15  C14 UNL     1      17.988  -2.824  53.767  1.00  0.00     0.033 A 
HETATM   16  C15 UNL     1      17.031  -3.782  53.542  1.00  0.00     0.044 A 
HETATM   17  C16 UNL     1      15.927  -3.430  52.805  1.00  0.00     0.116 A 
HETATM   18  F1  UNL     1      14.942  -4.298  52.533  1.00  0.00    -0.206 F 
HETATM   19  C17 UNL     1      15.831  -2.143  52.328  1.00  0.00     0.044 A 
HETATM   20  C18 UNL     1      16.835  -1.245  52.601  1.00  0.00     0.033 A 
ENDBRANCH  12  14
ENDBRANCH   8  12
BRANCH  11  21
HETATM   21  C20 UNL     1      22.931   1.667  51.463  1.00  0.00     0.099 C 
HETATM   22  C21 UNL     1      22.028   1.050  50.416  1.00  0.00     0.028 C 
HETATM   23  C22 UNL     1      21.453   2.309  49.776  1.00  0.00     0.034 C 
HETATM   24  C23 UNL     1      21.084   3.136  50.984  1.00  0.00     0.120 C 
HETATM   25  C24 UNL     1      22.196   2.867  51.994  1.00  0.00     0.057 C 
BRANCH  24  26
HETATM   26  O2  UNL     1      19.845   2.705  51.447  1.00  0.00    -0.396 OA
HETATM   27  H22 UNL     1      19.184   3.438  51.378  1.00  0.00     0.210 HD
ENDBRANCH  24  26
ENDBRANCH  11  21
BRANCH   3  28
HETATM   28  C2  UNL     1      26.749  -0.359  53.768  1.00  0.00     0.038 C 
HETATM   29  C3  UNL     1      27.259  -1.399  53.094  1.00  0.00     0.029 C 
HETATM   30  C4  UNL     1      28.665  -1.828  53.031  1.00  0.00    -0.001 C 
HETATM   31  C5  UNL     1      29.696  -1.045  53.293  1.00  0.00    -0.023 C 
HETATM   32  C6  UNL     1      29.849   0.377  53.699  1.00  0.00     0.054 C 
HETATM   33  C7  UNL     1      28.758   0.877  54.542  1.00  0.00    -0.021 C 
HETATM   34  C8  UNL     1      27.464   0.599  54.603  1.00  0.00     0.026 C 
ENDBRANCH   3  28
TORSDOF 5
ENDMDL
MODEL 2
REMARK VINA RESULT:      -9.9      1.995      2.491
REMARK  5 active torsions:
REMARK  status: ('A' for Active; 'I' for Inactive)
REMARK    1  A    between atoms: N1_3  and  C2_4 
REMARK    2  A    between atoms: C12_15  and  N3_16 
REMARK    3  A    between atoms: N3_16  and  C13_17 
REMARK    4  A    between atoms: N5_26  and  C20_27 
REMARK    5  A    between atoms: C23_30  and  O2_31 
ROOT
HETATM    1  O1  UNL     1      26.047   1.909  52.079  1.00  0.00    -0.246 OA
HETATM    2  C1  UNL     1      25.054   1.221  52.443  1.00  0.00     0.331 A 
HETATM    3  N1  UNL     1      25.221   0.028  53.193  1.00  0.00    -0.295 N 
HETATM    4  C9  UNL     1      24.143  -0.799  53.639  1.00  0.00     0.178 A 
HETATM    5  C10 UNL     1      22.825  -0.282  53.236  1.00  0.00     0.025 A 
HETATM    6  C11 UNL     1      21.682  -0.959  53.584  1.00  0.00     0.149 A 
HETATM    7  N2  UNL     1      20.444  -0.564  53.261  1.00  0.00    -0.074 NA
HETATM    8  C12 UNL     1      20.247   0.547  52.560  1.00  0.00     0.728 A 
HETATM    9  N4  UNL     1      21.339   1.242  52.198  1.00  0.00    -0.044 NA
HETATM   10  C19 UNL     1      22.584   0.862  52.511  1.00  0.00     0.162 A 
HETATM   11  N5  UNL     1      23.724   1.645  52.098  1.00  0.00    -0.278 N 
ENDROOT
BRANCH   8  12
HETATM   12  N3  UNL     1      18.977   1.026  52.184  1.00  0.00    -0.188 N 
HETATM   13  H11 UNL     1      18.794   2.066  52.340  1.00  0.00     0.184 HD
BRANCH  12  14
HETATM   14  C13 UNL     1      17.903   0.330  51.627  1.00  0.00     0.049 A 
HETATM   15  C14 UNL     1      16.942  -0.388  52.301  1.00  0.00     0.033 A 
HETATM   16  C15 UNL     1      15.886  -1.073  51.752  1.00  0.00     0.044 A 
HETATM   17  C16 UNL     1      15.747  -1.057  50.386  1.00  0.00     0.116 A 
HETATM   18  F1  UNL     1      14.749  -1.695  49.760  1.00  0.00    -0.206 F 
HETATM   19  C17 UNL     1      16.667  -0.361  49.635  1.00  0.00     0.044 A 
HETATM   20  C18 UNL     1      17.695   0.298  50.266  1.00  0.00     0.033 A 
ENDBRANCH  12  14
ENDBRANCH   8  12
BRANCH  11  21
HETATM   21  C20 UNL     1      23.579   2.841  51.347  1.00  0.00     0.099 C 
HETATM   22  C21 UNL     1      23.823   4.111  52.134  1.00  0.00     0.028 C 
HETATM   23  C22 UNL     1      23.918   5.124  50.997  1.00  0.00     0.034 C 
HETATM   24  C23 UNL     1      24.830   4.417  50.023  1.00  0.00     0.120 C 
HETATM   25  C24 UNL     1      24.429   2.948  50.110  1.00  0.00     0.057 C 
BRANCH  24  26
HETATM   26  O2  UNL     1      26.144   4.623  50.427  1.00  0.00    -0.396 OA
HETATM   27  H22 UNL     1      26.242   5.527  50.817  1.00  0.00     0.210 HD
ENDBRANCH  24  26
ENDBRANCH  11  21
BRANCH   3  28
HETATM   28  C2  UNL     1      26.539  -0.390  53.535  1.00  0.00     0.038 C 
HETATM   29  C3  UNL     1      26.940  -1.426  52.785  1.00  0.00     0.029 C 
HETATM   30  C4  UNL     1      28.229  -2.131  52.841  1.00  0.00    -0.001 C 
HETATM   31  C5  UNL     1      29.337  -1.622  53.348  1.00  0.00    -0.023 C 
HETATM   32  C6  UNL     1      29.694  -0.322  53.977  1.00  0.00     0.054 C 
HETATM   33  C7  UNL     1      28.602   0.292  54.738  1.00  0.00    -0.021 C 
HETATM   34  C8  UNL     1      27.284   0.288  54.589  1.00  0.00     0.026 C 
ENDBRANCH   3  28
TORSDOF 5
ENDMDL
MODEL 3
REMARK VINA RESULT:      -9.7      1.603      2.299
REMARK  5 active torsions:
REMARK  status: ('A' for Active; 'I' for Inactive)
REMARK    1  A    between atoms: N1_3  and  C2_4 
REMARK    2  A    between atoms: C12_15  and  N3_16 
REMARK    3  A    between atoms: N3_16  and  C13_17 
REMARK    4  A    between atoms: N5_26  and  C20_27 
REMARK    5  A    between atoms: C23_30  and  O2_31 
ROOT
HETATM    1  O1  UNL     1      24.822   1.986  51.451  1.00  0.00    -0.246 OA
HETATM    2  C1  UNL     1      24.258   1.161  52.221  1.00  0.00     0.331 A 
HETATM    3  N1  UNL     1      25.009   0.370  53.129  1.00  0.00    -0.295 N 
HETATM    4  C9  UNL     1      24.436  -0.582  54.029  1.00  0.00     0.178 A 
HETATM    5  C10 UNL     1      22.970  -0.660  53.919  1.00  0.00     0.025 A 
HETATM    6  C11 UNL     1      22.263  -1.528  54.714  1.00  0.00     0.149 A 
HETATM    7  N2  UNL     1      20.932  -1.665  54.683  1.00  0.00    -0.074 NA
HETATM    8  C12 UNL     1      20.194  -0.941  53.847  1.00  0.00     0.728 A 
HETATM    9  N4  UNL     1      20.846  -0.078  53.049  1.00  0.00    -0.044 NA
HETATM   10  C19 UNL     1      22.176   0.072  53.067  1.00  0.00     0.162 A 
HETATM   11  N5  UNL     1      22.828   1.014  52.188  1.00  0.00    -0.278 N 
ENDROOT
BRANCH   8  12
HETATM   12  N3  UNL     1      18.792  -1.030  53.756  1.00  0.00    -0.188 N 
HETATM   13  H11 UNL     1      18.268  -1.252  54.660  1.00  0.00     0.184 HD
BRANCH  12  14
HETATM   14  C13 UNL     1      17.970  -0.870  52.640  1.00  0.00     0.049 A 
HETATM   15  C14 UNL     1      18.274  -0.201  51.475  1.00  0.00     0.033 A 
HETATM   16  C15 UNL     1      17.464  -0.044  50.378  1.00  0.00     0.044 A 
HETATM   17  C16 UNL     1      16.210  -0.604  50.416  1.00  0.00     0.116 A 
HETATM   18  F1  UNL     1      15.350  -0.503  49.393  1.00  0.00    -0.206 F 
HETATM   19  C17 UNL     1      15.825  -1.290  51.545  1.00  0.00     0.044 A 
HETATM   20  C18 UNL     1      16.699  -1.400  52.600  1.00  0.00     0.033 A 
ENDBRANCH  12  14
ENDBRANCH   8  12
BRANCH  11  21
HETATM   21  C20 UNL     1      22.095   1.816  51.273  1.00  0.00     0.099 C 
HETATM   22  C21 UNL     1      22.257   3.307  51.475  1.00  0.00     0.028 C 
HETATM   23  C22 UNL     1      21.645   3.826  50.177  1.00  0.00     0.034 C 
HETATM   24  C23 UNL     1      22.287   2.929  49.146  1.00  0.00     0.120 C 
HETATM   25  C24 UNL     1      22.363   1.560  49.815  1.00  0.00     0.057 C 
BRANCH  24  26
HETATM   26  O2  UNL     1      23.548   3.436  48.851  1.00  0.00    -0.396 OA
HETATM   27  H22 UNL     1      24.055   2.787  48.304  1.00  0.00     0.210 HD
ENDBRANCH  24  26
ENDBRANCH  11  21
BRANCH   3  28
HETATM   28  C2  UNL     1      26.425   0.518  53.161  1.00  0.00     0.038 C 
HETATM   29  C3  UNL     1      26.785   1.746  53.556  1.00  0.00     0.029 C 
HETATM   30  C4  UNL     1      28.148   2.277  53.713  1.00  0.00    -0.001 C 
HETATM   31  C5  UNL     1      29.225   1.531  53.877  1.00  0.00    -0.023 C 
HETATM   32  C6  UNL     1      29.476   0.067  53.960  1.00  0.00     0.054 C 
HETATM   33  C7  UNL     1      28.565  -0.742  53.145  1.00  0.00    -0.021 C 
HETATM   34  C8  UNL     1      27.296  -0.591  52.790  1.00  0.00     0.026 C 
ENDBRANCH   3  28
TORSDOF 5
ENDMDL
MODEL 4
REMARK VINA RESULT:      -9.4      2.971      3.648
REMARK  5 active torsions:
REMARK  status: ('A' for Active; 'I' for Inactive)
REMARK    1  A    between atoms: N1_3  and  C2_4 
REMARK    2  A    between atoms: C12_15  and  N3_16 
REMARK    3  A    between atoms: N3_16  and  C13_17 
REMARK    4  A    between atoms: N5_26  and  C20_27 
REMARK    5  A    between atoms: C23_30  and  O2_31 
ROOT
HETATM    1  O1  UNL     1      26.147   1.538  51.595  1.00  0.00    -0.246 OA
HETATM    2  C1  UNL     1      25.146   0.964  52.105  1.00  0.00     0.331 A 
HETATM    3  N1  UNL     1      25.301  -0.081  53.052  1.00  0.00    -0.295 N 
HETATM    4  C9  UNL     1      24.214  -0.774  53.670  1.00  0.00     0.178 A 
HETATM    5  C10 UNL     1      22.899  -0.289  53.218  1.00  0.00     0.025 A 
HETATM    6  C11 UNL     1      21.748  -0.850  53.714  1.00  0.00     0.149 A 
HETATM    7  N2  UNL     1      20.513  -0.473  53.362  1.00  0.00    -0.074 NA
HETATM    8  C12 UNL     1      20.327   0.502  52.478  1.00  0.00     0.728 A 
HETATM    9  N4  UNL     1      21.428   1.079  51.966  1.00  0.00    -0.044 NA
HETATM   10  C19 UNL     1      22.670   0.715  52.306  1.00  0.00     0.162 A 
HETATM   11  N5  UNL     1      23.819   1.368  51.727  1.00  0.00    -0.278 N 
ENDROOT
BRANCH   8  12
HETATM   12  N3  UNL     1      19.061   0.953  52.058  1.00  0.00    -0.188 N 
HETATM   13  H11 UNL     1      18.214   0.452  52.473  1.00  0.00     0.184 HD
BRANCH  12  14
HETATM   14  C13 UNL     1      18.742   1.974  51.162  1.00  0.00     0.049 A 
HETATM   15  C14 UNL     1      18.234   3.217  51.466  1.00  0.00     0.033 A 
HETATM   16  C15 UNL     1      17.921   4.220  50.583  1.00  0.00     0.044 A 
HETATM   17  C16 UNL     1      18.127   3.989  49.245  1.00  0.00     0.116 A 
HETATM   18  F1  UNL     1      17.851   4.908  48.310  1.00  0.00    -0.206 F 
HETATM   19  C17 UNL     1      18.633   2.771  48.853  1.00  0.00     0.044 A 
HETATM   20  C18 UNL     1      18.919   1.821  49.804  1.00  0.00     0.033 A 
ENDBRANCH  12  14
ENDBRANCH   8  12
BRANCH  11  21
HETATM   21  C20 UNL     1      23.686   2.416  50.777  1.00  0.00     0.099 C 
HETATM   22  C21 UNL     1      22.554   2.231  49.790  1.00  0.00     0.028 C 
HETATM   23  C22 UNL     1      22.494   3.627  49.178  1.00  0.00     0.034 C 
HETATM   24  C23 UNL     1      22.557   4.509  50.402  1.00  0.00     0.120 C 
HETATM   25  C24 UNL     1      23.524   3.800  51.344  1.00  0.00     0.057 C 
BRANCH  24  26
HETATM   26  O2  UNL     1      21.278   4.600  50.940  1.00  0.00    -0.396 OA
HETATM   27  H22 UNL     1      20.641   4.079  50.392  1.00  0.00     0.210 HD
ENDBRANCH  24  26
ENDBRANCH  11  21
BRANCH   3  28
HETATM   28  C2  UNL     1      26.616  -0.481  53.426  1.00  0.00     0.038 C 
HETATM   29  C3  UNL     1      27.000  -1.589  52.778  1.00  0.00     0.029 C 
HETATM   30  C4  UNL     1      28.281  -2.302  52.895  1.00  0.00    -0.001 C 
HETATM   31  C5  UNL     1      29.398  -1.760  53.344  1.00  0.00    -0.023 C 
HETATM   32  C6  UNL     1      29.775  -0.410  53.842  1.00  0.00     0.054 C 
HETATM   33  C7  UNL     1      28.695   0.289  54.545  1.00  0.00    -0.021 C 
HETATM   34  C8  UNL     1      27.377   0.287  54.404  1.00  0.00     0.026 C 
ENDBRANCH   3  28
TORSDOF 5
ENDMDL
MODEL 5
REMARK VINA RESULT:      -9.2      3.311      8.462
REMARK  5 active torsions:
REMARK  status: ('A' for Active; 'I' for Inactive)
REMARK    1  A    between atoms: N1_3  and  C2_4 
REMARK    2  A    between atoms: C12_15  and  N3_16 
REMARK    3  A    between atoms: N3_16  and  C13_17 
REMARK    4  A    between atoms: N5_26  and  C20_27 
REMARK    5  A    between atoms: C23_30  and  O2_31 
ROOT
HETATM    1  O1  UNL     1      19.879   2.413  50.505  1.00  0.00    -0.246 OA
HETATM    2  C1  UNL     1      20.033   1.507  51.370  1.00  0.00     0.331 A 
HETATM    3  N1  UNL     1      18.958   0.664  51.752  1.00  0.00    -0.295 N 
HETATM    4  C9  UNL     1      19.061  -0.380  52.723  1.00  0.00     0.178 A 
HETATM    5  C10 UNL     1      20.413  -0.495  53.294  1.00  0.00     0.025 A 
HETATM    6  C11 UNL     1      20.683  -1.450  54.243  1.00  0.00     0.149 A 
HETATM    7  N2  UNL     1      21.880  -1.627  54.816  1.00  0.00    -0.074 NA
HETATM    8  C12 UNL     1      22.912  -0.858  54.484  1.00  0.00     0.728 A 
HETATM    9  N4  UNL     1      22.692   0.092  53.558  1.00  0.00    -0.044 NA
HETATM   10  C19 UNL     1      21.502   0.283  52.975  1.00  0.00     0.162 A 
HETATM   11  N5  UNL     1      21.319   1.317  51.985  1.00  0.00    -0.278 N 
ENDROOT
BRANCH   8  12
HETATM   12  N3  UNL     1      24.198  -0.983  55.042  1.00  0.00    -0.188 N 
HETATM   13  H11 UNL     1      24.251  -1.362  56.039  1.00  0.00     0.184 HD
BRANCH  12  14
HETATM   14  C13 UNL     1      25.437  -0.677  54.477  1.00  0.00     0.049 A 
HETATM   15  C14 UNL     1      25.867  -0.985  53.205  1.00  0.00     0.033 A 
HETATM   16  C15 UNL     1      27.087  -0.685  52.651  1.00  0.00     0.044 A 
HETATM   17  C16 UNL     1      27.996  -0.002  53.422  1.00  0.00     0.116 A 
HETATM   18  F1  UNL     1      29.210   0.335  52.967  1.00  0.00    -0.206 F 
HETATM   19  C17 UNL     1      27.646   0.345  54.707  1.00  0.00     0.044 A 
HETATM   20  C18 UNL     1      26.403   0.004  55.185  1.00  0.00     0.033 A 
ENDBRANCH  12  14
ENDBRANCH   8  12
BRANCH  11  21
HETATM   21  C20 UNL     1      22.382   2.171  51.588  1.00  0.00     0.099 C 
HETATM   22  C21 UNL     1      22.499   3.446  52.395  1.00  0.00     0.028 C 
HETATM   23  C22 UNL     1      23.876   3.927  51.947  1.00  0.00     0.034 C 
HETATM   24  C23 UNL     1      24.696   2.663  52.039  1.00  0.00     0.120 C 
HETATM   25  C24 UNL     1      23.754   1.554  51.580  1.00  0.00     0.057 C 
BRANCH  24  26
HETATM   26  O2  UNL     1      25.093   2.495  53.361  1.00  0.00    -0.396 OA
HETATM   27  H22 UNL     1      24.350   2.727  53.971  1.00  0.00     0.210 HD
ENDBRANCH  24  26
ENDBRANCH  11  21
BRANCH   3  28
HETATM   28  C2  UNL     1      17.685   0.854  51.141  1.00  0.00     0.038 C 
HETATM   29  C3  UNL     1      17.446  -0.069  50.200  1.00  0.00     0.029 C 
HETATM   30  C4  UNL     1      16.248  -0.203  49.356  1.00  0.00    -0.001 C 
HETATM   31  C5  UNL     1      15.066   0.304  49.653  1.00  0.00    -0.023 C 
HETATM   32  C6  UNL     1      14.528   1.100  50.788  1.00  0.00     0.054 C 
HETATM   33  C7  UNL     1      15.503   2.013  51.391  1.00  0.00    -0.021 C 
HETATM   34  C8  UNL     1      16.817   1.949  51.557  1.00  0.00     0.026 C 
ENDBRANCH   3  28
TORSDOF 5
ENDMDL
MODEL 6
REMARK VINA RESULT:      -9.1      4.166      6.970
REMARK  5 active torsions:
REMARK  status: ('A' for Active; 'I' for Inactive)
REMARK    1  A    between atoms: N1_3  and  C2_4 
REMARK    2  A    between atoms: C12_15  and  N3_16 
REMARK    3  A    between atoms: N3_16  and  C13_17 
REMARK    4  A    between atoms: N5_26  and  C20_27 
REMARK    5  A    between atoms: C23_30  and  O2_31 
ROOT
HETATM    1  O1  UNL     1      24.286  -0.051  52.986  1.00  0.00    -0.246 OA
HETATM    2  C1  UNL     1      24.736   0.862  52.241  1.00  0.00     0.331 A 
HETATM    3  N1  UNL     1      26.131   1.024  52.038  1.00  0.00    -0.295 N 
HETATM    4  C9  UNL     1      26.711   2.034  51.208  1.00  0.00     0.178 A 
HETATM    5  C10 UNL     1      25.702   2.901  50.577  1.00  0.00     0.025 A 
HETATM    6  C11 UNL     1      26.091   3.924  49.748  1.00  0.00     0.149 A 
HETATM    7  N2  UNL     1      25.245   4.759  49.133  1.00  0.00    -0.074 NA
HETATM    8  C12 UNL     1      23.931   4.638  49.297  1.00  0.00     0.728 A 
HETATM    9  N4  UNL     1      23.506   3.649  50.102  1.00  0.00    -0.044 NA
HETATM   10  C19 UNL     1      24.337   2.805  50.726  1.00  0.00     0.162 A 
HETATM   11  N5  UNL     1      23.828   1.759  51.579  1.00  0.00    -0.278 N 
ENDROOT
BRANCH   8  12
HETATM   12  N3  UNL     1      22.981   5.477  48.685  1.00  0.00    -0.188 N 
HETATM   13  H11 UNL     1      22.509   6.201  49.313  1.00  0.00     0.184 HD
BRANCH  12  14
HETATM   14  C13 UNL     1      22.555   5.503  47.356  1.00  0.00     0.049 A 
HETATM   15  C14 UNL     1      22.554   6.587  46.507  1.00  0.00     0.033 A 
HETATM   16  C15 UNL     1      22.134   6.611  45.200  1.00  0.00     0.044 A 
HETATM   17  C16 UNL     1      21.660   5.443  44.653  1.00  0.00     0.116 A 
HETATM   18  F1  UNL     1      21.229   5.370  43.386  1.00  0.00    -0.206 F 
HETATM   19  C17 UNL     1      21.627   4.311  45.435  1.00  0.00     0.044 A 
HETATM   20  C18 UNL     1      22.067   4.375  46.735  1.00  0.00     0.033 A 
ENDBRANCH  12  14
ENDBRANCH   8  12
BRANCH  11  21
HETATM   21  C20 UNL     1      22.436   1.579  51.796  1.00  0.00     0.099 C 
HETATM   22  C21 UNL     1      21.808   0.478  50.968  1.00  0.00     0.028 C 
HETATM   23  C22 UNL     1      20.461   0.342  51.671  1.00  0.00     0.034 C 
HETATM   24  C23 UNL     1      20.866   0.326  53.125  1.00  0.00     0.120 C 
HETATM   25  C24 UNL     1      22.021   1.319  53.218  1.00  0.00     0.057 C 
BRANCH  24  26
HETATM   26  O2  UNL     1      21.262  -0.965  53.455  1.00  0.00    -0.396 OA
HETATM   27  H22 UNL     1      20.785  -1.621  52.889  1.00  0.00     0.210 HD
ENDBRANCH  24  26
ENDBRANCH  11  21
BRANCH   3  28
HETATM   28  C2  UNL     1      27.030   0.134  52.694  1.00  0.00     0.038 C 
HETATM   29  C3  UNL     1      26.921  -1.115  52.222  1.00  0.00     0.029 C 
HETATM   30  C4  UNL     1      27.676  -2.305  52.644  1.00  0.00    -0.001 C 
HETATM   31  C5  UNL     1      28.843  -2.268  53.261  1.00  0.00    -0.023 C 
HETATM   32  C6  UNL     1      29.746  -1.179  53.719  1.00  0.00     0.054 C 
HETATM   33  C7  UNL     1      29.047   0.039  54.139  1.00  0.00    -0.021 C 
HETATM   34  C8  UNL     1      27.922   0.617  53.741  1.00  0.00     0.026 C 
ENDBRANCH   3  28
TORSDOF 5
ENDMDL
MODEL 7
REMARK VINA RESULT:      -9.0      3.055      3.918
REMARK  5 active torsions:
REMARK  status: ('A' for Active; 'I' for Inactive)
REMARK    1  A    between atoms: N1_3  and  C2_4 
REMARK    2  A    between atoms: C12_15  and  N3_16 
REMARK    3  A    between atoms: N3_16  and  C13_17 
REMARK    4  A    between atoms: N5_26  and  C20_27 
REMARK    5  A    between atoms: C23_30  and  O2_31 
ROOT
HETATM    1  O1  UNL     1      25.521   2.464  51.869  1.00  0.00    -0.246 OA
HETATM    2  C1  UNL     1      24.439   1.831  52.008  1.00  0.00     0.331 A 
HETATM    3  N1  UNL     1      24.397   0.584  52.684  1.00  0.00    -0.295 N 
HETATM    4  C9  UNL     1      23.208  -0.185  52.879  1.00  0.00     0.178 A 
HETATM    5  C10 UNL     1      22.015   0.454  52.300  1.00  0.00     0.025 A 
HETATM    6  C11 UNL     1      20.788  -0.155  52.398  1.00  0.00     0.149 A 
HETATM    7  N2  UNL     1      19.653   0.352  51.903  1.00  0.00    -0.074 NA
HETATM    8  C12 UNL     1      19.651   1.517  51.265  1.00  0.00     0.728 A 
HETATM    9  N4  UNL     1      20.831   2.148  51.144  1.00  0.00    -0.044 NA
HETATM   10  C19 UNL     1      21.977   1.656  51.633  1.00  0.00     0.162 A 
HETATM   11  N5  UNL     1      23.218   2.375  51.477  1.00  0.00    -0.278 N 
ENDROOT
BRANCH   8  12
HETATM   12  N3  UNL     1      18.499   2.113  50.717  1.00  0.00    -0.188 N 
HETATM   13  H11 UNL     1      18.508   2.290  49.663  1.00  0.00     0.184 HD
BRANCH  12  14
HETATM   14  C13 UNL     1      17.326   2.515  51.357  1.00  0.00     0.049 A 
HETATM   15  C14 UNL     1      16.259   1.720  51.711  1.00  0.00     0.033 A 
HETATM   16  C15 UNL     1      15.106   2.117  52.340  1.00  0.00     0.044 A 
HETATM   17  C16 UNL     1      14.973   3.445  52.666  1.00  0.00     0.116 A 
HETATM   18  F1  UNL     1      13.884   3.926  53.281  1.00  0.00    -0.206 F 
HETATM   19  C17 UNL     1      15.995   4.310  52.347  1.00  0.00     0.044 A 
HETATM   20  C18 UNL     1      17.116   3.829  51.716  1.00  0.00     0.033 A 
ENDBRANCH  12  14
ENDBRANCH   8  12
BRANCH  11  21
HETATM   21  C20 UNL     1      23.282   3.625  50.804  1.00  0.00     0.099 C 
HETATM   22  C21 UNL     1      23.612   4.803  51.696  1.00  0.00     0.028 C 
HETATM   23  C22 UNL     1      23.923   5.863  50.644  1.00  0.00     0.034 C 
HETATM   24  C23 UNL     1      24.819   5.108  49.692  1.00  0.00     0.120 C 
HETATM   25  C24 UNL     1      24.238   3.698  49.645  1.00  0.00     0.057 C 
BRANCH  24  26
HETATM   26  O2  UNL     1      26.112   5.121  50.206  1.00  0.00    -0.396 OA
HETATM   27  H22 UNL     1      26.754   5.390  49.504  1.00  0.00     0.210 HD
ENDBRANCH  24  26
ENDBRANCH  11  21
BRANCH   3  28
HETATM   28  C2  UNL     1      25.607   0.047  53.211  1.00  0.00     0.038 C 
HETATM   29  C3  UNL     1      26.136  -0.874  52.393  1.00  0.00     0.029 C 
HETATM   30  C4  UNL     1      27.372  -1.647  52.589  1.00  0.00    -0.001 C 
HETATM   31  C5  UNL     1      28.359  -1.285  53.389  1.00  0.00    -0.023 C 
HETATM   32  C6  UNL     1      28.600  -0.126  54.288  1.00  0.00     0.054 C 
HETATM   33  C7  UNL     1      27.385   0.415  54.904  1.00  0.00    -0.021 C 
HETATM   34  C8  UNL     1      26.128   0.505  54.492  1.00  0.00     0.026 C 
ENDBRANCH   3  28
TORSDOF 5
ENDMDL
MODEL 8
REMARK VINA RESULT:      -8.9      2.749      4.760
REMARK  5 active torsions:
REMARK  status: ('A' for Active; 'I' for Inactive)
REMARK    1  A    between atoms: N1_3  and  C2_4 
REMARK    2  A    between atoms: C12_15  and  N3_16 
REMARK    3  A    between atoms: N3_16  and  C13_17 
REMARK    4  A    between atoms: N5_26  and  C20_27 
REMARK    5  A    between atoms: C23_30  and  O2_31 
ROOT
HETATM    1  O1  UNL     1      23.974  -1.138  53.359  1.00  0.00    -0.246 OA
HETATM    2  C1  UNL     1      24.017   0.081  53.036  1.00  0.00     0.331 A 
HETATM    3  N1  UNL     1      25.238   0.803  53.049  1.00  0.00    -0.295 N 
HETATM    4  C9  UNL     1      25.360   2.182  52.695  1.00  0.00     0.178 A 
HETATM    5  C10 UNL     1      24.074   2.788  52.312  1.00  0.00     0.025 A 
HETATM    6  C11 UNL     1      24.015   4.109  51.944  1.00  0.00     0.149 A 
HETATM    7  N2  UNL     1      22.892   4.741  51.581  1.00  0.00    -0.074 NA
HETATM    8  C12 UNL     1      21.729   4.099  51.555  1.00  0.00     0.728 A 
HETATM    9  N4  UNL     1      21.740   2.802  51.909  1.00  0.00    -0.044 NA
HETATM   10  C19 UNL     1      22.853   2.154  52.275  1.00  0.00     0.162 A 
HETATM   11  N5  UNL     1      22.811   0.760  52.645  1.00  0.00    -0.278 N 
ENDROOT
BRANCH   8  12
HETATM   12  N3  UNL     1      20.508   4.695  51.186  1.00  0.00    -0.188 N 
HETATM   13  H11 UNL     1      20.262   5.617  51.667  1.00  0.00     0.184 HD
BRANCH  12  14
HETATM   14  C13 UNL     1      19.554   4.253  50.269  1.00  0.00     0.049 A 
HETATM   15  C14 UNL     1      19.776   3.498  49.140  1.00  0.00     0.033 A 
HETATM   16  C15 UNL     1      18.836   3.064  48.238  1.00  0.00     0.044 A 
HETATM   17  C16 UNL     1      17.524   3.403  48.461  1.00  0.00     0.116 A 
HETATM   18  F1  UNL     1      16.537   3.024  47.637  1.00  0.00    -0.206 F 
HETATM   19  C17 UNL     1      17.213   4.158  49.569  1.00  0.00     0.044 A 
HETATM   20  C18 UNL     1      18.217   4.551  50.421  1.00  0.00     0.033 A 
ENDBRANCH  12  14
ENDBRANCH   8  12
BRANCH  11  21
HETATM   21  C20 UNL     1      21.600   0.019  52.640  1.00  0.00     0.099 C 
HETATM   22  C21 UNL     1      20.680   0.306  53.807  1.00  0.00     0.028 C 
HETATM   23  C22 UNL     1      19.401  -0.368  53.320  1.00  0.00     0.034 C 
HETATM   24  C23 UNL     1      19.312   0.121  51.895  1.00  0.00     0.120 C 
HETATM   25  C24 UNL     1      20.755   0.149  51.402  1.00  0.00     0.057 C 
BRANCH  24  26
HETATM   26  O2  UNL     1      18.739   1.388  51.903  1.00  0.00    -0.396 OA
HETATM   27  H22 UNL     1      19.362   2.045  51.503  1.00  0.00     0.210 HD
ENDBRANCH  24  26
ENDBRANCH  11  21
BRANCH   3  28
HETATM   28  C2  UNL     1      26.432   0.128  53.435  1.00  0.00     0.038 C 
HETATM   29  C3  UNL     1      26.727  -0.875  52.597  1.00  0.00     0.029 C 
HETATM   30  C4  UNL     1      27.873  -1.794  52.663  1.00  0.00    -0.001 C 
HETATM   31  C5  UNL     1      28.996  -1.542  53.310  1.00  0.00    -0.023 C 
HETATM   32  C6  UNL     1      29.499  -0.400  54.119  1.00  0.00     0.054 C 
HETATM   33  C7  UNL     1      28.454   0.309  54.864  1.00  0.00    -0.021 C 
HETATM   34  C8  UNL     1      27.174   0.550  54.617  1.00  0.00     0.026 C 
ENDBRANCH   3  28
TORSDOF 5
ENDMDL
MODEL 9
REMARK VINA RESULT:      -8.8      4.428      7.190
REMARK  5 active torsions:
REMARK  status: ('A' for Active; 'I' for Inactive)
REMARK    1  A    between atoms: N1_3  and  C2_4 
REMARK    2  A    between atoms: C12_15  and  N3_16 
REMARK    3  A    between atoms: N3_16  and  C13_17 
REMARK    4  A    between atoms: N5_26  and  C20_27 
REMARK    5  A    between atoms: C23_30  and  O2_31 
ROOT
HETATM    1  O1  UNL     1      24.097   0.225  52.904  1.00  0.00    -0.246 OA
HETATM    2  C1  UNL     1      24.497   1.144  52.139  1.00  0.00     0.331 A 
HETATM    3  N1  UNL     1      25.880   1.400  51.956  1.00  0.00    -0.295 N 
HETATM    4  C9  UNL     1      26.404   2.423  51.106  1.00  0.00     0.178 A 
HETATM    5  C10 UNL     1      25.349   3.196  50.429  1.00  0.00     0.025 A 
HETATM    6  C11 UNL     1      25.682   4.218  49.575  1.00  0.00     0.149 A 
HETATM    7  N2  UNL     1      24.791   4.972  48.918  1.00  0.00    -0.074 NA
HETATM    8  C12 UNL     1      23.487   4.763  49.063  1.00  0.00     0.728 A 
HETATM    9  N4  UNL     1      23.116   3.771  49.890  1.00  0.00    -0.044 NA
HETATM   10  C19 UNL     1      23.992   3.008  50.555  1.00  0.00     0.162 A 
HETATM   11  N5  UNL     1      23.541   1.954  51.432  1.00  0.00    -0.278 N 
ENDROOT
BRANCH   8  12
HETATM   12  N3  UNL     1      22.492   5.513  48.407  1.00  0.00    -0.188 N 
HETATM   13  H11 UNL     1      22.075   5.083  47.523  1.00  0.00     0.184 HD
BRANCH  12  14
HETATM   14  C13 UNL     1      21.962   6.759  48.745  1.00  0.00     0.049 A 
HETATM   15  C14 UNL     1      20.752   7.008  49.353  1.00  0.00     0.033 A 
HETATM   16  C15 UNL     1      20.231   8.234  49.685  1.00  0.00     0.044 A 
HETATM   17  C16 UNL     1      20.975   9.351  49.393  1.00  0.00     0.116 A 
HETATM   18  F1  UNL     1      20.549  10.589  49.680  1.00  0.00    -0.206 F 
HETATM   19  C17 UNL     1      22.198   9.191  48.784  1.00  0.00     0.044 A 
HETATM   20  C18 UNL     1      22.645   7.926  48.485  1.00  0.00     0.033 A 
ENDBRANCH  12  14
ENDBRANCH   8  12
BRANCH  11  21
HETATM   21  C20 UNL     1      22.161   1.681  51.629  1.00  0.00     0.099 C 
HETATM   22  C21 UNL     1      21.644   0.476  50.873  1.00  0.00     0.028 C 
HETATM   23  C22 UNL     1      20.291   0.287  51.552  1.00  0.00     0.034 C 
HETATM   24  C23 UNL     1      20.653   0.412  53.012  1.00  0.00     0.120 C 
HETATM   25  C24 UNL     1      21.725   1.497  53.057  1.00  0.00     0.057 C 
BRANCH  24  26
HETATM   26  O2  UNL     1      21.137  -0.816  53.449  1.00  0.00    -0.396 OA
HETATM   27  H22 UNL     1      22.050  -0.966  53.099  1.00  0.00     0.210 HD
ENDBRANCH  24  26
ENDBRANCH  11  21
BRANCH   3  28
HETATM   28  C2  UNL     1      26.826   0.597  52.656  1.00  0.00     0.038 C 
HETATM   29  C3  UNL     1      26.820  -0.670  52.218  1.00  0.00     0.029 C 
HETATM   30  C4  UNL     1      27.650  -1.789  52.690  1.00  0.00    -0.001 C 
HETATM   31  C5  UNL     1      28.796  -1.649  53.330  1.00  0.00    -0.023 C 
HETATM   32  C6  UNL     1      29.606  -0.484  53.776  1.00  0.00     0.054 C 
HETATM   33  C7  UNL     1      28.810   0.690  54.146  1.00  0.00    -0.021 C 
HETATM   34  C8  UNL     1      27.655   1.172  53.708  1.00  0.00     0.026 C 
ENDBRANCH   3  28
TORSDOF 5
ENDMDL
