MODEL 1
REMARK VINA RESULT:      -8.4      0.000      0.000
REMARK  8 active torsions:
REMARK  status: ('A' for Active; 'I' for Inactive)
REMARK    1  A    between atoms: O1_2  and  C2_3 
REMARK    2  A    between atoms: C2_3  and  C3_5 
REMARK    3  A    between atoms: C3_5  and  C4_6 
REMARK    4  A    between atoms: C5_7  and  S1_8 
REMARK    5  A    between atoms: S1_8  and  C6_9 
REMARK    6  A    between atoms: C7_10  and  C8_11 
REMARK    7  A    between atoms: C8_11  and  C9_12 
REMARK    8  A    between atoms: C9_12  and  O4_14 
ROOT
HETATM    1  C6  UNL     1      26.504   1.287  53.194  1.00  0.00     0.086 A 
HETATM    2  C7  UNL     1      26.102  -0.025  52.985  1.00  0.00    -0.002 A 
HETATM    3  C10 UNL     1      27.258  -0.781  53.079  1.00  0.00     0.000 A 
HETATM    4  C11 UNL     1      27.369  -2.152  52.939  1.00  0.00     0.014 A 
HETATM    5  C12 UNL     1      28.625  -2.710  53.070  1.00  0.00     0.001 A 
HETATM    6  C13 UNL     1      29.688  -1.874  53.329  1.00  0.00     0.002 A 
HETATM    7  C14 UNL     1      29.535  -0.504  53.461  1.00  0.00     0.030 A 
HETATM    8  C15 UNL     1      28.291   0.102  53.338  1.00  0.00     0.045 A 
HETATM    9  N1  UNL     1      27.830   1.366  53.409  1.00  0.00    -0.344 N 
HETATM   10  C16 UNL     1      28.679   2.507  53.669  1.00  0.00     0.157 C 
ENDROOT
BRANCH   1  11
HETATM   11  S1  UNL     1      25.396   2.648  53.165  1.00  0.00    -0.053 SA
BRANCH  11  12
HETATM   12  C5  UNL     1      24.676   2.970  51.584  1.00  0.00     0.081 C 
HETATM   13  C4  UNL     1      24.932   3.124  50.231  1.00  0.00    -0.027 C 
HETATM   14  C21 UNL     1      23.663   3.383  49.451  1.00  0.00     0.059 C 
HETATM   15  C20 UNL     1      22.809   2.226  49.204  1.00  0.00    -0.016 C 
HETATM   16  C22 UNL     1      23.004   4.272  50.581  1.00  0.00     0.142 C 
HETATM   17  C19 UNL     1      21.761   1.566  49.774  1.00  0.00    -0.002 C 
HETATM   18  C18 UNL     1      21.467   1.658  51.241  1.00  0.00     0.017 C 
HETATM   19  C17 UNL     1      22.263   2.234  52.199  1.00  0.00     0.091 C 
HETATM   20  N2  UNL     1      23.230   3.130  51.540  1.00  0.00    -0.350 N 
BRANCH  13  21
HETATM   21  C3  UNL     1      26.382   3.025  49.858  1.00  0.00     0.148 C 
BRANCH  21  22
HETATM   22  C2  UNL     1      26.762   4.381  49.376  1.00  0.00     0.262 C 
HETATM   23  O2  UNL     1      27.796   4.465  48.650  1.00  0.00    -0.265 OA
BRANCH  22  24
HETATM   24  O1  UNL     1      26.156   5.627  49.593  1.00  0.00    -0.326 OA
HETATM   25  C1  UNL     1      26.560   6.708  48.789  1.00  0.00     0.213 C 
ENDBRANCH  22  24
ENDBRANCH  21  22
ENDBRANCH  13  21
ENDBRANCH  11  12
ENDBRANCH   1  11
BRANCH   2  26
HETATM   26  C8  UNL     1      24.718  -0.502  52.732  1.00  0.00     0.152 C 
BRANCH  26  27
HETATM   27  C9  UNL     1      24.014  -0.775  54.020  1.00  0.00     0.143 C 
HETATM   28  O3  UNL     1      22.754  -0.760  54.104  1.00  0.00    -0.650 OA
BRANCH  27  29
HETATM   29  O4  UNL     1      24.461  -1.076  55.290  1.00  0.00    -0.776 OA
HETATM   30  H8  UNL     1      24.871  -1.994  55.517  1.00  0.00     0.167 HD
ENDBRANCH  27  29
ENDBRANCH  26  27
ENDBRANCH   2  26
TORSDOF 8
ENDMDL
MODEL 2
REMARK VINA RESULT:      -7.8      2.697      5.243
REMARK  8 active torsions:
REMARK  status: ('A' for Active; 'I' for Inactive)
REMARK    1  A    between atoms: O1_2  and  C2_3 
REMARK    2  A    between atoms: C2_3  and  C3_5 
REMARK    3  A    between atoms: C3_5  and  C4_6 
REMARK    4  A    between atoms: C5_7  and  S1_8 
REMARK    5  A    between atoms: S1_8  and  C6_9 
REMARK    6  A    between atoms: C7_10  and  C8_11 
REMARK    7  A    between atoms: C8_11  and  C9_12 
REMARK    8  A    between atoms: C9_12  and  O4_14 
ROOT
HETATM    1  C6  UNL     1      24.317   1.452  51.915  1.00  0.00     0.086 A 
HETATM    2  C7  UNL     1      24.528   0.792  53.118  1.00  0.00    -0.002 A 
HETATM    3  C10 UNL     1      23.342   0.131  53.385  1.00  0.00     0.000 A 
HETATM    4  C11 UNL     1      23.062  -0.665  54.481  1.00  0.00     0.014 A 
HETATM    5  C12 UNL     1      21.807  -1.234  54.555  1.00  0.00     0.001 A 
HETATM    6  C13 UNL     1      20.912  -0.978  53.541  1.00  0.00     0.002 A 
HETATM    7  C14 UNL     1      21.231  -0.174  52.460  1.00  0.00     0.030 A 
HETATM    8  C15 UNL     1      22.481   0.419  52.342  1.00  0.00     0.045 A 
HETATM    9  N1  UNL     1      23.077   1.227  51.442  1.00  0.00    -0.344 N 
HETATM   10  C16 UNL     1      22.422   1.699  50.243  1.00  0.00     0.157 C 
ENDROOT
BRANCH   1  11
HETATM   11  S1  UNL     1      25.533   2.454  51.142  1.00  0.00    -0.053 SA
BRANCH  11  12
HETATM   12  C5  UNL     1      24.958   4.049  50.645  1.00  0.00     0.081 C 
HETATM   13  C4  UNL     1      24.188   5.141  51.009  1.00  0.00    -0.027 C 
HETATM   14  C21 UNL     1      24.217   6.221  49.950  1.00  0.00     0.059 C 
HETATM   15  C20 UNL     1      25.426   7.034  49.890  1.00  0.00    -0.016 C 
HETATM   16  C22 UNL     1      24.225   5.203  48.739  1.00  0.00     0.142 C 
HETATM   17  C19 UNL     1      26.638   7.052  49.266  1.00  0.00    -0.002 C 
HETATM   18  C18 UNL     1      27.270   5.806  48.720  1.00  0.00     0.017 C 
HETATM   19  C17 UNL     1      26.837   4.518  48.916  1.00  0.00     0.091 C 
HETATM   20  N2  UNL     1      25.433   4.550  49.363  1.00  0.00    -0.350 N 
BRANCH  13  21
HETATM   21  C3  UNL     1      23.496   5.000  52.333  1.00  0.00     0.148 C 
BRANCH  21  22
HETATM   22  C2  UNL     1      22.044   4.921  52.017  1.00  0.00     0.262 C 
HETATM   23  O2  UNL     1      21.388   3.983  52.558  1.00  0.00    -0.265 OA
BRANCH  22  24
HETATM   24  O1  UNL     1      21.246   5.729  51.195  1.00  0.00    -0.326 OA
HETATM   25  C1  UNL     1      20.537   5.113  50.149  1.00  0.00     0.213 C 
ENDBRANCH  22  24
ENDBRANCH  21  22
ENDBRANCH  13  21
ENDBRANCH  11  12
ENDBRANCH   1  11
BRANCH   2  26
HETATM   26  C8  UNL     1      25.775   0.793  53.926  1.00  0.00     0.152 C 
BRANCH  26  27
HETATM   27  C9  UNL     1      26.664  -0.336  53.519  1.00  0.00     0.143 C 
HETATM   28  O3  UNL     1      27.577  -0.768  54.276  1.00  0.00    -0.650 OA
BRANCH  27  29
HETATM   29  O4  UNL     1      26.735  -1.113  52.381  1.00  0.00    -0.776 OA
HETATM   30  H8  UNL     1      26.394  -0.771  51.469  1.00  0.00     0.167 HD
ENDBRANCH  27  29
ENDBRANCH  26  27
ENDBRANCH   2  26
TORSDOF 8
ENDMDL
MODEL 3
REMARK VINA RESULT:      -7.7      3.064      6.182
REMARK  8 active torsions:
REMARK  status: ('A' for Active; 'I' for Inactive)
REMARK    1  A    between atoms: O1_2  and  C2_3 
REMARK    2  A    between atoms: C2_3  and  C3_5 
REMARK    3  A    between atoms: C3_5  and  C4_6 
REMARK    4  A    between atoms: C5_7  and  S1_8 
REMARK    5  A    between atoms: S1_8  and  C6_9 
REMARK    6  A    between atoms: C7_10  and  C8_11 
REMARK    7  A    between atoms: C8_11  and  C9_12 
REMARK    8  A    between atoms: C9_12  and  O4_14 
ROOT
HETATM    1  C6  UNL     1      24.256   4.905  50.837  1.00  0.00     0.086 A 
HETATM    2  C7  UNL     1      25.277   4.056  50.435  1.00  0.00    -0.002 A 
HETATM    3  C10 UNL     1      26.122   4.838  49.668  1.00  0.00     0.000 A 
HETATM    4  C11 UNL     1      27.288   4.436  49.041  1.00  0.00     0.014 A 
HETATM    5  C12 UNL     1      27.986   5.383  48.319  1.00  0.00     0.001 A 
HETATM    6  C13 UNL     1      27.485   6.664  48.264  1.00  0.00     0.002 A 
HETATM    7  C14 UNL     1      26.313   7.026  48.906  1.00  0.00     0.030 A 
HETATM    8  C15 UNL     1      25.577   6.109  49.645  1.00  0.00     0.045 A 
HETATM    9  N1  UNL     1      24.435   6.151  50.360  1.00  0.00    -0.344 N 
HETATM   10  C16 UNL     1      23.640   7.347  50.517  1.00  0.00     0.157 C 
ENDROOT
BRANCH   1  11
HETATM   11  S1  UNL     1      22.909   4.384  51.835  1.00  0.00    -0.053 SA
BRANCH  11  12
HETATM   12  C5  UNL     1      22.251   2.802  51.405  1.00  0.00     0.081 C 
HETATM   13  C4  UNL     1      22.034   1.506  51.843  1.00  0.00    -0.027 C 
HETATM   14  C21 UNL     1      21.324   0.675  50.798  1.00  0.00     0.059 C 
HETATM   15  C20 UNL     1      19.893   0.913  50.647  1.00  0.00    -0.016 C 
HETATM   16  C22 UNL     1      22.084   1.339  49.579  1.00  0.00     0.142 C 
HETATM   17  C19 UNL     1      19.038   1.691  49.925  1.00  0.00    -0.002 C 
HETATM   18  C18 UNL     1      19.469   2.992  49.315  1.00  0.00     0.017 C 
HETATM   19  C17 UNL     1      20.660   3.640  49.532  1.00  0.00     0.091 C 
HETATM   20  N2  UNL     1      21.629   2.682  50.094  1.00  0.00    -0.350 N 
BRANCH  13  21
HETATM   21  C3  UNL     1      22.562   1.219  53.219  1.00  0.00     0.148 C 
BRANCH  21  22
HETATM   22  C2  UNL     1      23.127  -0.156  53.149  1.00  0.00     0.262 C 
HETATM   23  O2  UNL     1      24.373  -0.255  52.942  1.00  0.00    -0.265 OA
BRANCH  22  24
HETATM   24  O1  UNL     1      22.503  -1.404  53.275  1.00  0.00    -0.326 OA
HETATM   25  C1  UNL     1      21.449  -1.526  54.198  1.00  0.00     0.213 C 
ENDBRANCH  22  24
ENDBRANCH  21  22
ENDBRANCH  13  21
ENDBRANCH  11  12
ENDBRANCH   1  11
BRANCH   2  26
HETATM   26  C8  UNL     1      25.426   2.618  50.779  1.00  0.00     0.152 C 
BRANCH  26  27
HETATM   27  C9  UNL     1      26.241   2.457  52.020  1.00  0.00     0.143 C 
HETATM   28  O3  UNL     1      27.490   2.280  51.975  1.00  0.00    -0.650 OA
BRANCH  27  29
HETATM   29  O4  UNL     1      25.919   2.454  53.362  1.00  0.00    -0.776 OA
HETATM   30  H8  UNL     1      26.644   2.404  54.093  1.00  0.00     0.167 HD
ENDBRANCH  27  29
ENDBRANCH  26  27
ENDBRANCH   2  26
TORSDOF 8
ENDMDL
MODEL 4
REMARK VINA RESULT:      -7.7      3.427      5.714
REMARK  8 active torsions:
REMARK  status: ('A' for Active; 'I' for Inactive)
REMARK    1  A    between atoms: O1_2  and  C2_3 
REMARK    2  A    between atoms: C2_3  and  C3_5 
REMARK    3  A    between atoms: C3_5  and  C4_6 
REMARK    4  A    between atoms: C5_7  and  S1_8 
REMARK    5  A    between atoms: S1_8  and  C6_9 
REMARK    6  A    between atoms: C7_10  and  C8_11 
REMARK    7  A    between atoms: C8_11  and  C9_12 
REMARK    8  A    between atoms: C9_12  and  O4_14 
ROOT
HETATM    1  C6  UNL     1      22.743   1.216  51.288  1.00  0.00     0.086 A 
HETATM    2  C7  UNL     1      23.682   0.887  52.255  1.00  0.00    -0.002 A 
HETATM    3  C10 UNL     1      23.020   0.052  53.138  1.00  0.00     0.000 A 
HETATM    4  C11 UNL     1      23.541  -0.538  54.275  1.00  0.00     0.014 A 
HETATM    5  C12 UNL     1      22.702  -1.341  55.021  1.00  0.00     0.001 A 
HETATM    6  C13 UNL     1      21.404  -1.508  54.594  1.00  0.00     0.002 A 
HETATM    7  C14 UNL     1      20.920  -0.898  53.448  1.00  0.00     0.030 A 
HETATM    8  C15 UNL     1      21.727  -0.082  52.665  1.00  0.00     0.045 A 
HETATM    9  N1  UNL     1      21.557   0.630  51.534  1.00  0.00    -0.344 N 
HETATM   10  C16 UNL     1      20.307   0.684  50.810  1.00  0.00     0.157 C 
ENDROOT
BRANCH   1  11
HETATM   11  S1  UNL     1      23.090   2.277  49.933  1.00  0.00    -0.053 SA
BRANCH  11  12
HETATM   12  C5  UNL     1      22.848   3.995  50.268  1.00  0.00     0.081 C 
HETATM   13  C4  UNL     1      22.215   4.911  51.092  1.00  0.00    -0.027 C 
HETATM   14  C21 UNL     1      22.561   6.333  50.712  1.00  0.00     0.059 C 
HETATM   15  C20 UNL     1      23.879   6.808  51.119  1.00  0.00    -0.016 C 
HETATM   16  C22 UNL     1      22.580   6.042  49.157  1.00  0.00     0.142 C 
HETATM   17  C19 UNL     1      25.155   6.873  50.642  1.00  0.00    -0.002 C 
HETATM   18  C18 UNL     1      25.654   5.940  49.578  1.00  0.00     0.017 C 
HETATM   19  C17 UNL     1      25.002   4.836  49.089  1.00  0.00     0.091 C 
HETATM   20  N2  UNL     1      23.571   4.938  49.428  1.00  0.00    -0.350 N 
BRANCH  13  21
HETATM   21  C3  UNL     1      21.330   4.299  52.138  1.00  0.00     0.148 C 
BRANCH  21  22
HETATM   22  C2  UNL     1      19.978   4.223  51.520  1.00  0.00     0.262 C 
HETATM   23  O2  UNL     1      19.096   3.566  52.147  1.00  0.00    -0.265 OA
BRANCH  22  24
HETATM   24  O1  UNL     1      19.492   4.768  50.323  1.00  0.00    -0.326 OA
HETATM   25  C1  UNL     1      19.153   3.885  49.283  1.00  0.00     0.213 C 
ENDBRANCH  22  24
ENDBRANCH  21  22
ENDBRANCH  13  21
ENDBRANCH  11  12
ENDBRANCH   1  11
BRANCH   2  26
HETATM   26  C8  UNL     1      25.099   1.332  52.308  1.00  0.00     0.152 C 
BRANCH  26  27
HETATM   27  C9  UNL     1      25.266   2.432  53.303  1.00  0.00     0.143 C 
HETATM   28  O3  UNL     1      26.151   2.386  54.203  1.00  0.00    -0.650 OA
BRANCH  27  29
HETATM   29  O4  UNL     1      24.608   3.630  53.499  1.00  0.00    -0.776 OA
HETATM   30  H8  UNL     1      24.268   3.915  54.430  1.00  0.00     0.167 HD
ENDBRANCH  27  29
ENDBRANCH  26  27
ENDBRANCH   2  26
TORSDOF 8
ENDMDL
MODEL 5
REMARK VINA RESULT:      -7.6      3.089      5.265
REMARK  8 active torsions:
REMARK  status: ('A' for Active; 'I' for Inactive)
REMARK    1  A    between atoms: O1_2  and  C2_3 
REMARK    2  A    between atoms: C2_3  and  C3_5 
REMARK    3  A    between atoms: C3_5  and  C4_6 
REMARK    4  A    between atoms: C5_7  and  S1_8 
REMARK    5  A    between atoms: S1_8  and  C6_9 
REMARK    6  A    between atoms: C7_10  and  C8_11 
REMARK    7  A    between atoms: C8_11  and  C9_12 
REMARK    8  A    between atoms: C9_12  and  O4_14 
ROOT
HETATM    1  C6  UNL     1      23.216   3.302  52.542  1.00  0.00     0.086 A 
HETATM    2  C7  UNL     1      24.061   2.304  53.008  1.00  0.00    -0.002 A 
HETATM    3  C10 UNL     1      23.287   1.157  53.041  1.00  0.00     0.000 A 
HETATM    4  C11 UNL     1      23.688  -0.105  53.440  1.00  0.00     0.014 A 
HETATM    5  C12 UNL     1      22.751  -1.118  53.397  1.00  0.00     0.001 A 
HETATM    6  C13 UNL     1      21.480  -0.815  52.963  1.00  0.00     0.002 A 
HETATM    7  C14 UNL     1      21.118   0.463  52.573  1.00  0.00     0.030 A 
HETATM    8  C15 UNL     1      22.027   1.514  52.598  1.00  0.00     0.045 A 
HETATM    9  N1  UNL     1      21.982   2.826  52.294  1.00  0.00    -0.344 N 
HETATM   10  C16 UNL     1      20.794   3.487  51.804  1.00  0.00     0.157 C 
ENDROOT
BRANCH   1  11
HETATM   11  S1  UNL     1      23.724   4.968  52.329  1.00  0.00    -0.053 SA
BRANCH  11  12
HETATM   12  C5  UNL     1      24.350   5.341  50.719  1.00  0.00     0.081 C 
HETATM   13  C4  UNL     1      24.669   4.818  49.477  1.00  0.00    -0.027 C 
HETATM   14  C21 UNL     1      25.177   5.887  48.536  1.00  0.00     0.059 C 
HETATM   15  C20 UNL     1      24.171   6.769  47.957  1.00  0.00    -0.016 C 
HETATM   16  C22 UNL     1      25.962   6.675  49.660  1.00  0.00     0.142 C 
HETATM   17  C19 UNL     1      23.557   7.959  48.216  1.00  0.00    -0.002 C 
HETATM   18  C18 UNL     1      23.468   8.522  49.603  1.00  0.00     0.017 C 
HETATM   19  C17 UNL     1      23.807   7.880  50.768  1.00  0.00     0.091 C 
HETATM   20  N2  UNL     1      24.676   6.734  50.445  1.00  0.00    -0.350 N 
BRANCH  13  21
HETATM   21  C3  UNL     1      24.463   3.336  49.355  1.00  0.00     0.148 C 
BRANCH  21  22
HETATM   22  C2  UNL     1      23.074   3.168  48.848  1.00  0.00     0.262 C 
HETATM   23  O2  UNL     1      22.530   2.038  49.023  1.00  0.00    -0.265 OA
BRANCH  22  24
HETATM   24  O1  UNL     1      22.231   4.072  48.186  1.00  0.00    -0.326 OA
HETATM   25  C1  UNL     1      21.925   3.825  46.836  1.00  0.00     0.213 C 
ENDBRANCH  22  24
ENDBRANCH  21  22
ENDBRANCH  13  21
ENDBRANCH  11  12
ENDBRANCH   1  11
BRANCH   2  26
HETATM   26  C8  UNL     1      25.494   2.449  53.372  1.00  0.00     0.152 C 
BRANCH  26  27
HETATM   27  C9  UNL     1      26.364   2.228  52.178  1.00  0.00     0.143 C 
HETATM   28  O3  UNL     1      26.446   1.101  51.616  1.00  0.00    -0.650 OA
BRANCH  27  29
HETATM   29  O4  UNL     1      27.197   3.059  51.457  1.00  0.00    -0.776 OA
HETATM   30  H8  UNL     1      28.140   3.306  51.793  1.00  0.00     0.167 HD
ENDBRANCH  27  29
ENDBRANCH  26  27
ENDBRANCH   2  26
TORSDOF 8
ENDMDL
MODEL 6
REMARK VINA RESULT:      -7.6      3.028      5.210
REMARK  8 active torsions:
REMARK  status: ('A' for Active; 'I' for Inactive)
REMARK    1  A    between atoms: O1_2  and  C2_3 
REMARK    2  A    between atoms: C2_3  and  C3_5 
REMARK    3  A    between atoms: C3_5  and  C4_6 
REMARK    4  A    between atoms: C5_7  and  S1_8 
REMARK    5  A    between atoms: S1_8  and  C6_9 
REMARK    6  A    between atoms: C7_10  and  C8_11 
REMARK    7  A    between atoms: C8_11  and  C9_12 
REMARK    8  A    between atoms: C9_12  and  O4_14 
ROOT
HETATM    1  C6  UNL     1      23.545   2.362  52.197  1.00  0.00     0.086 A 
HETATM    2  C7  UNL     1      24.202   1.253  52.712  1.00  0.00    -0.002 A 
HETATM    3  C10 UNL     1      23.218   0.499  53.327  1.00  0.00     0.000 A 
HETATM    4  C11 UNL     1      23.384  -0.704  53.989  1.00  0.00     0.014 A 
HETATM    5  C12 UNL     1      22.263  -1.294  54.535  1.00  0.00     0.001 A 
HETATM    6  C13 UNL     1      21.051  -0.655  54.393  1.00  0.00     0.002 A 
HETATM    7  C14 UNL     1      20.928   0.550  53.723  1.00  0.00     0.030 A 
HETATM    8  C15 UNL     1      22.027   1.181  53.155  1.00  0.00     0.045 A 
HETATM    9  N1  UNL     1      22.227   2.321  52.465  1.00  0.00    -0.344 N 
HETATM   10  C16 UNL     1      21.165   3.244  52.132  1.00  0.00     0.157 C 
ENDROOT
BRANCH   1  11
HETATM   11  S1  UNL     1      24.365   3.645  51.323  1.00  0.00    -0.053 SA
BRANCH  11  12
HETATM   12  C5  UNL     1      23.501   4.223  49.894  1.00  0.00     0.081 C 
HETATM   13  C4  UNL     1      22.904   3.850  48.701  1.00  0.00    -0.027 C 
HETATM   14  C21 UNL     1      22.308   5.038  47.981  1.00  0.00     0.059 C 
HETATM   15  C20 UNL     1      21.046   5.546  48.507  1.00  0.00    -0.016 C 
HETATM   16  C22 UNL     1      23.471   6.027  48.396  1.00  0.00     0.142 C 
HETATM   17  C19 UNL     1      20.588   6.463  49.406  1.00  0.00    -0.002 C 
HETATM   18  C18 UNL     1      21.431   6.948  50.547  1.00  0.00     0.017 C 
HETATM   19  C17 UNL     1      22.644   6.439  50.940  1.00  0.00     0.091 C 
HETATM   20  N2  UNL     1      23.210   5.648  49.833  1.00  0.00    -0.350 N 
BRANCH  13  21
HETATM   21  C3  UNL     1      23.001   2.385  48.390  1.00  0.00     0.148 C 
BRANCH  21  22
HETATM   22  C2  UNL     1      21.649   1.828  48.673  1.00  0.00     0.262 C 
HETATM   23  O2  UNL     1      21.582   0.878  49.508  1.00  0.00    -0.265 OA
BRANCH  22  24
HETATM   24  O1  UNL     1      20.394   2.182  48.160  1.00  0.00    -0.326 OA
HETATM   25  C1  UNL     1      19.319   2.296  49.060  1.00  0.00     0.213 C 
ENDBRANCH  22  24
ENDBRANCH  21  22
ENDBRANCH  13  21
ENDBRANCH  11  12
ENDBRANCH   1  11
BRANCH   2  26
HETATM   26  C8  UNL     1      25.651   0.947  52.602  1.00  0.00     0.152 C 
BRANCH  26  27
HETATM   27  C9  UNL     1      26.401   1.538  53.750  1.00  0.00     0.143 C 
HETATM   28  O3  UNL     1      26.516   0.931  54.851  1.00  0.00    -0.650 OA
BRANCH  27  29
HETATM   29  O4  UNL     1      27.078   2.730  53.917  1.00  0.00    -0.776 OA
HETATM   30  H8  UNL     1      27.568   3.189  53.134  1.00  0.00     0.167 HD
ENDBRANCH  27  29
ENDBRANCH  26  27
ENDBRANCH   2  26
TORSDOF 8
ENDMDL
MODEL 7
REMARK VINA RESULT:      -7.3      2.388      3.506
REMARK  8 active torsions:
REMARK  status: ('A' for Active; 'I' for Inactive)
REMARK    1  A    between atoms: O1_2  and  C2_3 
REMARK    2  A    between atoms: C2_3  and  C3_5 
REMARK    3  A    between atoms: C3_5  and  C4_6 
REMARK    4  A    between atoms: C5_7  and  S1_8 
REMARK    5  A    between atoms: S1_8  and  C6_9 
REMARK    6  A    between atoms: C7_10  and  C8_11 
REMARK    7  A    between atoms: C8_11  and  C9_12 
REMARK    8  A    between atoms: C9_12  and  O4_14 
ROOT
HETATM    1  C6  UNL     1      23.169   1.315  52.826  1.00  0.00     0.086 A 
HETATM    2  C7  UNL     1      23.548  -0.007  53.014  1.00  0.00    -0.002 A 
HETATM    3  C10 UNL     1      24.932   0.010  53.031  1.00  0.00     0.000 A 
HETATM    4  C11 UNL     1      25.775  -1.075  53.190  1.00  0.00     0.014 A 
HETATM    5  C12 UNL     1      27.134  -0.837  53.176  1.00  0.00     0.001 A 
HETATM    6  C13 UNL     1      27.570   0.457  53.004  1.00  0.00     0.002 A 
HETATM    7  C14 UNL     1      26.693   1.517  52.847  1.00  0.00     0.030 A 
HETATM    8  C15 UNL     1      25.317   1.326  52.856  1.00  0.00     0.045 A 
HETATM    9  N1  UNL     1      24.239   2.125  52.730  1.00  0.00    -0.344 N 
HETATM   10  C16 UNL     1      24.328   3.554  52.534  1.00  0.00     0.157 C 
ENDROOT
BRANCH   1  11
HETATM   11  S1  UNL     1      21.493   1.828  52.720  1.00  0.00    -0.053 SA
BRANCH  11  12
HETATM   12  C5  UNL     1      21.118   2.812  51.302  1.00  0.00     0.081 C 
HETATM   13  C4  UNL     1      21.064   4.101  50.798  1.00  0.00    -0.027 C 
HETATM   14  C21 UNL     1      20.626   4.116  49.351  1.00  0.00     0.059 C 
HETATM   15  C20 UNL     1      21.629   3.724  48.368  1.00  0.00    -0.016 C 
HETATM   16  C22 UNL     1      19.592   2.932  49.526  1.00  0.00     0.142 C 
HETATM   17  C19 UNL     1      22.077   2.607  47.727  1.00  0.00    -0.002 C 
HETATM   18  C18 UNL     1      21.877   1.232  48.291  1.00  0.00     0.017 C 
HETATM   19  C17 UNL     1      21.406   0.924  49.544  1.00  0.00     0.091 C 
HETATM   20  N2  UNL     1      20.715   2.103  50.096  1.00  0.00    -0.350 N 
BRANCH  13  21
HETATM   21  C3  UNL     1      21.424   5.171  51.787  1.00  0.00     0.148 C 
BRANCH  21  22
HETATM   22  C2  UNL     1      22.083   6.243  50.992  1.00  0.00     0.262 C 
HETATM   23  O2  UNL     1      21.434   7.318  50.828  1.00  0.00    -0.265 OA
BRANCH  22  24
HETATM   24  O1  UNL     1      23.338   6.273  50.369  1.00  0.00    -0.326 OA
HETATM   25  C1  UNL     1      24.286   7.200  50.836  1.00  0.00     0.213 C 
ENDBRANCH  22  24
ENDBRANCH  21  22
ENDBRANCH  13  21
ENDBRANCH  11  12
ENDBRANCH   1  11
BRANCH   2  26
HETATM   26  C8  UNL     1      22.647  -1.177  53.177  1.00  0.00     0.152 C 
BRANCH  26  27
HETATM   27  C9  UNL     1      22.316  -1.387  54.618  1.00  0.00     0.143 C 
HETATM   28  O3  UNL     1      21.137  -1.265  55.053  1.00  0.00    -0.650 OA
BRANCH  27  29
HETATM   29  O4  UNL     1      23.079  -1.723  55.718  1.00  0.00    -0.776 OA
HETATM   30  H8  UNL     1      24.081  -1.483  55.776  1.00  0.00     0.167 HD
ENDBRANCH  27  29
ENDBRANCH  26  27
ENDBRANCH   2  26
TORSDOF 8
ENDMDL
MODEL 8
REMARK VINA RESULT:      -7.3      3.014      4.645
REMARK  8 active torsions:
REMARK  status: ('A' for Active; 'I' for Inactive)
REMARK    1  A    between atoms: O1_2  and  C2_3 
REMARK    2  A    between atoms: C2_3  and  C3_5 
REMARK    3  A    between atoms: C3_5  and  C4_6 
REMARK    4  A    between atoms: C5_7  and  S1_8 
REMARK    5  A    between atoms: S1_8  and  C6_9 
REMARK    6  A    between atoms: C7_10  and  C8_11 
REMARK    7  A    between atoms: C8_11  and  C9_12 
REMARK    8  A    between atoms: C9_12  and  O4_14 
ROOT
HETATM    1  C6  UNL     1      22.990   1.430  51.316  1.00  0.00     0.086 A 
HETATM    2  C7  UNL     1      23.882   0.925  52.251  1.00  0.00    -0.002 A 
HETATM    3  C10 UNL     1      23.120   0.133  53.091  1.00  0.00     0.000 A 
HETATM    4  C11 UNL     1      23.564  -0.586  54.186  1.00  0.00     0.014 A 
HETATM    5  C12 UNL     1      22.630  -1.316  54.894  1.00  0.00     0.001 A 
HETATM    6  C13 UNL     1      21.319  -1.286  54.474  1.00  0.00     0.002 A 
HETATM    7  C14 UNL     1      20.915  -0.552  53.371  1.00  0.00     0.030 A 
HETATM    8  C15 UNL     1      21.819   0.197  52.627  1.00  0.00     0.045 A 
HETATM    9  N1  UNL     1      21.739   0.991  51.541  1.00  0.00    -0.344 N 
HETATM   10  C16 UNL     1      20.504   1.250  50.836  1.00  0.00     0.157 C 
ENDROOT
BRANCH   1  11
HETATM   11  S1  UNL     1      23.469   2.515  50.020  1.00  0.00    -0.053 SA
BRANCH  11  12
HETATM   12  C5  UNL     1      23.710   4.191  50.522  1.00  0.00     0.081 C 
HETATM   13  C4  UNL     1      24.577   5.271  50.490  1.00  0.00    -0.027 C 
HETATM   14  C21 UNL     1      23.994   6.474  51.197  1.00  0.00     0.059 C 
HETATM   15  C20 UNL     1      22.970   7.216  50.471  1.00  0.00    -0.016 C 
HETATM   16  C22 UNL     1      23.300   5.622  52.334  1.00  0.00     0.142 C 
HETATM   17  C19 UNL     1      21.615   7.243  50.321  1.00  0.00    -0.002 C 
HETATM   18  C18 UNL     1      20.760   6.043  50.600  1.00  0.00     0.017 C 
HETATM   19  C17 UNL     1      21.201   4.768  50.855  1.00  0.00     0.091 C 
HETATM   20  N2  UNL     1      22.620   4.824  51.250  1.00  0.00    -0.350 N 
BRANCH  13  21
HETATM   21  C3  UNL     1      25.880   5.002  49.796  1.00  0.00     0.148 C 
BRANCH  21  22
HETATM   22  C2  UNL     1      26.169   6.229  49.004  1.00  0.00     0.262 C 
HETATM   23  O2  UNL     1      25.403   6.476  48.027  1.00  0.00    -0.265 OA
BRANCH  22  24
HETATM   24  O1  UNL     1      27.177   7.192  49.154  1.00  0.00    -0.326 OA
HETATM   25  C1  UNL     1      26.852   8.392  49.812  1.00  0.00     0.213 C 
ENDBRANCH  22  24
ENDBRANCH  21  22
ENDBRANCH  13  21
ENDBRANCH  11  12
ENDBRANCH   1  11
BRANCH   2  26
HETATM   26  C8  UNL     1      25.345   1.176  52.313  1.00  0.00     0.152 C 
BRANCH  26  27
HETATM   27  C9  UNL     1      25.652   2.240  53.315  1.00  0.00     0.143 C 
HETATM   28  O3  UNL     1      26.746   2.262  53.946  1.00  0.00    -0.650 OA
BRANCH  27  29
HETATM   29  O4  UNL     1      24.945   3.335  53.769  1.00  0.00    -0.776 OA
HETATM   30  H8  UNL     1      25.421   4.191  54.092  1.00  0.00     0.167 HD
ENDBRANCH  27  29
ENDBRANCH  26  27
ENDBRANCH   2  26
TORSDOF 8
ENDMDL
MODEL 9
REMARK VINA RESULT:      -7.2      2.942      5.627
REMARK  8 active torsions:
REMARK  status: ('A' for Active; 'I' for Inactive)
REMARK    1  A    between atoms: O1_2  and  C2_3 
REMARK    2  A    between atoms: C2_3  and  C3_5 
REMARK    3  A    between atoms: C3_5  and  C4_6 
REMARK    4  A    between atoms: C5_7  and  S1_8 
REMARK    5  A    between atoms: S1_8  and  C6_9 
REMARK    6  A    between atoms: C7_10  and  C8_11 
REMARK    7  A    between atoms: C8_11  and  C9_12 
REMARK    8  A    between atoms: C9_12  and  O4_14 
ROOT
HETATM    1  C6  UNL     1      24.370   3.247  51.322  1.00  0.00     0.086 A 
HETATM    2  C7  UNL     1      25.630   2.931  50.833  1.00  0.00    -0.002 A 
HETATM    3  C10 UNL     1      25.990   4.002  50.034  1.00  0.00     0.000 A 
HETATM    4  C11 UNL     1      27.166   4.151  49.322  1.00  0.00     0.014 A 
HETATM    5  C12 UNL     1      27.325   5.305  48.582  1.00  0.00     0.001 A 
HETATM    6  C13 UNL     1      26.310   6.235  48.593  1.00  0.00     0.002 A 
HETATM    7  C14 UNL     1      25.146   6.048  49.319  1.00  0.00     0.030 A 
HETATM    8  C15 UNL     1      24.941   4.903  50.080  1.00  0.00     0.045 A 
HETATM    9  N1  UNL     1      23.950   4.441  50.867  1.00  0.00    -0.344 N 
HETATM   10  C16 UNL     1      22.723   5.167  51.107  1.00  0.00     0.157 C 
ENDROOT
BRANCH   1  11
HETATM   11  S1  UNL     1      23.462   2.190  52.390  1.00  0.00    -0.053 SA
BRANCH  11  12
HETATM   12  C5  UNL     1      21.859   1.748  51.792  1.00  0.00     0.081 C 
HETATM   13  C4  UNL     1      21.126   1.387  50.674  1.00  0.00    -0.027 C 
HETATM   14  C21 UNL     1      19.676   1.127  51.019  1.00  0.00     0.059 C 
HETATM   15  C20 UNL     1      19.386  -0.142  51.677  1.00  0.00    -0.016 C 
HETATM   16  C22 UNL     1      19.597   2.288  52.090  1.00  0.00     0.142 C 
HETATM   17  C19 UNL     1      19.285  -0.664  52.933  1.00  0.00    -0.002 C 
HETATM   18  C18 UNL     1      19.970  -0.038  54.111  1.00  0.00     0.017 C 
HETATM   19  C17 UNL     1      20.890   0.980  54.075  1.00  0.00     0.091 C 
HETATM   20  N2  UNL     1      20.789   1.668  52.776  1.00  0.00    -0.350 N 
BRANCH  13  21
HETATM   21  C3  UNL     1      21.914   1.357  49.397  1.00  0.00     0.148 C 
BRANCH  21  22
HETATM   22  C2  UNL     1      21.639   2.659  48.730  1.00  0.00     0.262 C 
HETATM   23  O2  UNL     1      22.530   3.102  47.947  1.00  0.00    -0.265 OA
BRANCH  22  24
HETATM   24  O1  UNL     1      20.530   3.512  48.821  1.00  0.00    -0.326 OA
HETATM   25  C1  UNL     1      19.653   3.574  47.724  1.00  0.00     0.213 C 
ENDBRANCH  22  24
ENDBRANCH  21  22
ENDBRANCH  13  21
ENDBRANCH  11  12
ENDBRANCH   1  11
BRANCH   2  26
HETATM   26  C8  UNL     1      26.418   1.707  51.128  1.00  0.00     0.152 C 
BRANCH  26  27
HETATM   27  C9  UNL     1      27.256   1.904  52.348  1.00  0.00     0.143 C 
HETATM   28  O3  UNL     1      27.200   1.109  53.328  1.00  0.00    -0.650 OA
BRANCH  27  29
HETATM   29  O4  UNL     1      28.187   2.858  52.704  1.00  0.00    -0.776 OA
HETATM   30  H8  UNL     1      28.525   3.564  52.032  1.00  0.00     0.167 HD
ENDBRANCH  27  29
ENDBRANCH  26  27
ENDBRANCH   2  26
TORSDOF 8
ENDMDL
