MODEL 1
REMARK VINA RESULT:      -8.2      0.000      0.000
REMARK  8 active torsions:
REMARK  status: ('A' for Active; 'I' for Inactive)
REMARK    1  A    between atoms: C2_2  and  O1_3 
REMARK    2  A    between atoms: O1_3  and  C3_4 
REMARK    3  A    between atoms: C6_7  and  C7_8 
REMARK    4  A    between atoms: C7_8  and  C8_9 
REMARK    5  A    between atoms: C11_12  and  C12_13 
REMARK    6  A    between atoms: C12_13  and  C13_14 
REMARK    7  A    between atoms: C13_14  and  N4_20 
REMARK       I    between atoms: N1_15  and  C14_16 
REMARK       I    between atoms: C14_16  and  N2_17 
REMARK    8  A    between atoms: C18_23  and  O2_24 
ROOT
HETATM    1  C8  UNL     1      23.648   3.455  51.372  1.00  0.00    -0.021 A 
HETATM    2  C9  UNL     1      24.331   3.116  50.210  1.00  0.00     0.011 A 
HETATM    3  C10 UNL     1      24.845   4.035  49.322  1.00  0.00     0.008 A 
HETATM    4  C11 UNL     1      24.695   5.370  49.562  1.00  0.00    -0.048 A 
HETATM    5  C17 UNL     1      24.022   5.751  50.705  1.00  0.00     0.044 A 
HETATM    6  C18 UNL     1      23.519   4.812  51.575  1.00  0.00     0.072 A 
ENDROOT
BRANCH   4   7
HETATM    7  C12 UNL     1      25.200   6.466  48.691  1.00  0.00     0.117 C 
BRANCH   7   8
HETATM    8  C13 UNL     1      26.590   6.873  49.031  1.00  0.00     0.122 C 
HETATM    9  N1  UNL     1      27.503   6.413  48.296  1.00  0.00    -0.050 NA
HETATM   10  C14 UNL     1      28.878   6.571  48.310  1.00  0.00     0.716 C 
HETATM   11  N2  UNL     1      30.081   6.252  48.992  1.00  0.00    -0.231 N 
HETATM   12  N3  UNL     1      29.353   7.293  47.324  1.00  0.00    -0.111 NA
HETATM   13  H14 UNL     1      30.633   6.937  49.552  1.00  0.00     0.174 HD
HETATM   14  H15 UNL     1      30.577   5.330  49.041  1.00  0.00     0.174 HD
HETATM   15  C15 UNL     1      28.516   7.880  46.300  1.00  0.00     0.198 C 
BRANCH   8  16
HETATM   16  N4  UNL     1      26.826   7.734  50.133  1.00  0.00    -0.382 N 
HETATM   17  C16 UNL     1      26.818   9.180  49.937  1.00  0.00     0.147 C 
HETATM   18  H19 UNL     1      27.005   7.309  51.081  1.00  0.00     0.160 HD
ENDBRANCH   8  16
ENDBRANCH   7   8
ENDBRANCH   4   7
BRANCH   6  19
HETATM   19  O2  UNL     1      22.849   5.221  52.712  1.00  0.00    -0.360 OA
HETATM   20  H24 UNL     1      22.592   6.219  52.753  1.00  0.00     0.217 HD
ENDBRANCH   6  19
BRANCH   1  21
HETATM   21  C7  UNL     1      23.144   2.375  52.251  1.00  0.00     0.080 C 
BRANCH  21  22
HETATM   22  C6  UNL     1      24.291   1.745  52.932  1.00  0.00    -0.054 A 
HETATM   23  C5  UNL     1      25.383   2.333  53.527  1.00  0.00     0.010 A 
HETATM   24  C4  UNL     1      26.368   1.567  54.117  1.00  0.00     0.037 A 
HETATM   25  C3  UNL     1      26.318   0.181  54.144  1.00  0.00     0.068 A 
HETATM   26  C20 UNL     1      25.215  -0.408  53.543  1.00  0.00     0.037 A 
HETATM   27  C19 UNL     1      24.246   0.364  52.962  1.00  0.00     0.010 A 
BRANCH  25  28
HETATM   28  O1  UNL     1      27.367  -0.461  54.766  1.00  0.00    -0.352 OA
BRANCH  28  29
HETATM   29  C2  UNL     1      28.692  -0.011  54.734  1.00  0.00     0.171 C 
HETATM   30  C1  UNL     1      29.506  -0.728  53.675  1.00  0.00     0.034 C 
ENDBRANCH  28  29
ENDBRANCH  25  28
ENDBRANCH  21  22
ENDBRANCH   1  21
TORSDOF 8
ENDMDL
MODEL 2
REMARK VINA RESULT:      -7.6      1.809      2.417
REMARK  8 active torsions:
REMARK  status: ('A' for Active; 'I' for Inactive)
REMARK    1  A    between atoms: C2_2  and  O1_3 
REMARK    2  A    between atoms: O1_3  and  C3_4 
REMARK    3  A    between atoms: C6_7  and  C7_8 
REMARK    4  A    between atoms: C7_8  and  C8_9 
REMARK    5  A    between atoms: C11_12  and  C12_13 
REMARK    6  A    between atoms: C12_13  and  C13_14 
REMARK    7  A    between atoms: C13_14  and  N4_20 
REMARK       I    between atoms: N1_15  and  C14_16 
REMARK       I    between atoms: C14_16  and  N2_17 
REMARK    8  A    between atoms: C18_23  and  O2_24 
ROOT
HETATM    1  C8  UNL     1      25.527   4.143  50.131  1.00  0.00    -0.021 A 
HETATM    2  C9  UNL     1      26.625   3.678  49.417  1.00  0.00     0.011 A 
HETATM    3  C10 UNL     1      27.478   4.488  48.701  1.00  0.00     0.008 A 
HETATM    4  C11 UNL     1      27.267   5.836  48.666  1.00  0.00    -0.048 A 
HETATM    5  C17 UNL     1      26.188   6.341  49.361  1.00  0.00     0.044 A 
HETATM    6  C18 UNL     1      25.351   5.509  50.069  1.00  0.00     0.072 A 
ENDROOT
BRANCH   4   7
HETATM    7  C12 UNL     1      28.109   6.823  47.937  1.00  0.00     0.117 C 
BRANCH   7   8
HETATM    8  C13 UNL     1      29.470   6.958  48.522  1.00  0.00     0.122 C 
HETATM    9  N1  UNL     1      30.296   6.053  48.231  1.00  0.00    -0.050 NA
HETATM   10  C14 UNL     1      31.620   5.852  48.583  1.00  0.00     0.716 C 
HETATM   11  N2  UNL     1      32.505   5.501  49.634  1.00  0.00    -0.231 N 
HETATM   12  N3  UNL     1      32.476   6.034  47.607  1.00  0.00    -0.111 NA
HETATM   13  H14 UNL     1      33.143   6.176  50.110  1.00  0.00     0.174 HD
HETATM   14  H15 UNL     1      32.651   4.562  50.077  1.00  0.00     0.174 HD
HETATM   15  C15 UNL     1      32.079   6.414  46.268  1.00  0.00     0.198 C 
BRANCH   8  16
HETATM   16  N4  UNL     1      29.775   8.062  49.358  1.00  0.00    -0.382 N 
HETATM   17  C16 UNL     1      28.864   9.201  49.414  1.00  0.00     0.147 C 
HETATM   18  H19 UNL     1      30.663   8.039  49.927  1.00  0.00     0.160 HD
ENDBRANCH   8  16
ENDBRANCH   7   8
ENDBRANCH   4   7
BRANCH   6  19
HETATM   19  O2  UNL     1      24.276   6.040  50.756  1.00  0.00    -0.360 OA
HETATM   20  H24 UNL     1      23.594   6.570  50.192  1.00  0.00     0.217 HD
ENDBRANCH   6  19
BRANCH   1  21
HETATM   21  C7  UNL     1      24.683   3.173  50.865  1.00  0.00     0.080 C 
BRANCH  21  22
HETATM   22  C6  UNL     1      25.559   2.294  51.664  1.00  0.00    -0.054 A 
HETATM   23  C5  UNL     1      26.846   2.507  52.100  1.00  0.00     0.010 A 
HETATM   24  C4  UNL     1      27.511   1.553  52.843  1.00  0.00     0.037 A 
HETATM   25  C3  UNL     1      26.932   0.341  53.188  1.00  0.00     0.068 A 
HETATM   26  C20 UNL     1      25.634   0.130  52.747  1.00  0.00     0.037 A 
HETATM   27  C19 UNL     1      24.986   1.085  52.012  1.00  0.00     0.010 A 
BRANCH  25  28
HETATM   28  O1  UNL     1      27.707  -0.522  53.933  1.00  0.00    -0.352 OA
BRANCH  28  29
HETATM   29  C2  UNL     1      28.701  -1.347  53.395  1.00  0.00     0.171 C 
HETATM   30  C1  UNL     1      30.085  -0.754  53.575  1.00  0.00     0.034 C 
ENDBRANCH  28  29
ENDBRANCH  25  28
ENDBRANCH  21  22
ENDBRANCH   1  21
TORSDOF 8
ENDMDL
MODEL 3
REMARK VINA RESULT:      -7.3      1.787      2.454
REMARK  8 active torsions:
REMARK  status: ('A' for Active; 'I' for Inactive)
REMARK    1  A    between atoms: C2_2  and  O1_3 
REMARK    2  A    between atoms: O1_3  and  C3_4 
REMARK    3  A    between atoms: C6_7  and  C7_8 
REMARK    4  A    between atoms: C7_8  and  C8_9 
REMARK    5  A    between atoms: C11_12  and  C12_13 
REMARK    6  A    between atoms: C12_13  and  C13_14 
REMARK    7  A    between atoms: C13_14  and  N4_20 
REMARK       I    between atoms: N1_15  and  C14_16 
REMARK       I    between atoms: C14_16  and  N2_17 
REMARK    8  A    between atoms: C18_23  and  O2_24 
ROOT
HETATM    1  C8  UNL     1      23.059   2.595  51.741  1.00  0.00    -0.021 A 
HETATM    2  C9  UNL     1      23.376   3.658  52.580  1.00  0.00     0.011 A 
HETATM    3  C10 UNL     1      23.547   4.955  52.149  1.00  0.00     0.008 A 
HETATM    4  C11 UNL     1      23.405   5.256  50.825  1.00  0.00    -0.048 A 
HETATM    5  C17 UNL     1      23.092   4.231  49.958  1.00  0.00     0.044 A 
HETATM    6  C18 UNL     1      22.926   2.944  50.415  1.00  0.00     0.072 A 
ENDROOT
BRANCH   4   7
HETATM    7  C12 UNL     1      23.560   6.610  50.226  1.00  0.00     0.117 C 
BRANCH   7   8
HETATM    8  C13 UNL     1      24.570   6.641  49.135  1.00  0.00     0.122 C 
HETATM    9  N1  UNL     1      25.766   6.443  49.473  1.00  0.00    -0.050 NA
HETATM   10  C14 UNL     1      26.945   6.399  48.749  1.00  0.00     0.716 C 
HETATM   11  N2  UNL     1      27.897   7.164  48.026  1.00  0.00    -0.231 N 
HETATM   12  N3  UNL     1      27.470   5.203  48.635  1.00  0.00    -0.111 NA
HETATM   13  H14 UNL     1      28.001   7.136  46.988  1.00  0.00     0.174 HD
HETATM   14  H15 UNL     1      28.606   7.840  48.397  1.00  0.00     0.174 HD
HETATM   15  C15 UNL     1      26.874   4.020  49.216  1.00  0.00     0.198 C 
BRANCH   8  16
HETATM   16  N4  UNL     1      24.161   6.883  47.798  1.00  0.00    -0.382 N 
HETATM   17  C16 UNL     1      24.018   8.256  47.323  1.00  0.00     0.147 C 
HETATM   18  H19 UNL     1      23.966   6.060  47.168  1.00  0.00     0.160 HD
ENDBRANCH   8  16
ENDBRANCH   7   8
ENDBRANCH   4   7
BRANCH   6  19
HETATM   19  O2  UNL     1      22.613   1.935  49.524  1.00  0.00    -0.360 OA
HETATM   20  H24 UNL     1      23.341   1.220  49.373  1.00  0.00     0.217 HD
ENDBRANCH   6  19
BRANCH   1  21
HETATM   21  C7  UNL     1      22.898   1.244  52.325  1.00  0.00     0.080 C 
BRANCH  21  22
HETATM   22  C6  UNL     1      24.233   0.701  52.638  1.00  0.00    -0.054 A 
HETATM   23  C5  UNL     1      25.427   0.884  51.980  1.00  0.00     0.010 A 
HETATM   24  C4  UNL     1      26.585   0.282  52.427  1.00  0.00     0.037 A 
HETATM   25  C3  UNL     1      26.614  -0.533  53.550  1.00  0.00     0.068 A 
HETATM   26  C20 UNL     1      25.409  -0.715  54.212  1.00  0.00     0.037 A 
HETATM   27  C19 UNL     1      24.269  -0.111  53.756  1.00  0.00     0.010 A 
BRANCH  25  28
HETATM   28  O1  UNL     1      27.838  -1.071  53.888  1.00  0.00    -0.352 OA
BRANCH  28  29
HETATM   29  C2  UNL     1      28.904  -0.331  54.409  1.00  0.00     0.171 C 
HETATM   30  C1  UNL     1      30.124  -0.390  53.511  1.00  0.00     0.034 C 
ENDBRANCH  28  29
ENDBRANCH  25  28
ENDBRANCH  21  22
ENDBRANCH   1  21
TORSDOF 8
ENDMDL
MODEL 4
REMARK VINA RESULT:      -7.1      5.442      8.174
REMARK  8 active torsions:
REMARK  status: ('A' for Active; 'I' for Inactive)
REMARK    1  A    between atoms: C2_2  and  O1_3 
REMARK    2  A    between atoms: O1_3  and  C3_4 
REMARK    3  A    between atoms: C6_7  and  C7_8 
REMARK    4  A    between atoms: C7_8  and  C8_9 
REMARK    5  A    between atoms: C11_12  and  C12_13 
REMARK    6  A    between atoms: C12_13  and  C13_14 
REMARK    7  A    between atoms: C13_14  and  N4_20 
REMARK       I    between atoms: N1_15  and  C14_16 
REMARK       I    between atoms: C14_16  and  N2_17 
REMARK    8  A    between atoms: C18_23  and  O2_24 
ROOT
HETATM    1  C8  UNL     1      22.321  -0.392  53.404  1.00  0.00    -0.021 A 
HETATM    2  C9  UNL     1      21.987   0.151  52.169  1.00  0.00     0.011 A 
HETATM    3  C10 UNL     1      20.700   0.235  51.687  1.00  0.00     0.008 A 
HETATM    4  C11 UNL     1      19.660  -0.233  52.438  1.00  0.00    -0.048 A 
HETATM    5  C17 UNL     1      19.948  -0.782  53.671  1.00  0.00     0.044 A 
HETATM    6  C18 UNL     1      21.243  -0.853  54.129  1.00  0.00     0.072 A 
ENDROOT
BRANCH   4   7
HETATM    7  C12 UNL     1      18.226  -0.204  52.041  1.00  0.00     0.117 C 
BRANCH   7   8
HETATM    8  C13 UNL     1      17.918   0.900  51.093  1.00  0.00     0.122 C 
HETATM    9  N1  UNL     1      17.842   2.056  51.585  1.00  0.00    -0.050 NA
HETATM   10  C14 UNL     1      17.580   3.294  51.022  1.00  0.00     0.716 C 
HETATM   11  N2  UNL     1      16.587   4.120  50.437  1.00  0.00    -0.231 N 
HETATM   12  N3  UNL     1      18.614   4.098  50.971  1.00  0.00    -0.111 NA
HETATM   13  H14 UNL     1      16.549   4.359  49.422  1.00  0.00     0.174 HD
HETATM   14  H15 UNL     1      15.778   4.596  50.903  1.00  0.00     0.174 HD
HETATM   15  C15 UNL     1      19.926   3.732  51.460  1.00  0.00     0.198 C 
BRANCH   8  16
HETATM   16  N4  UNL     1      17.728   0.618  49.716  1.00  0.00    -0.382 N 
HETATM   17  C16 UNL     1      16.506  -0.048  49.275  1.00  0.00     0.147 C 
HETATM   18  H19 UNL     1      18.480   0.897  49.031  1.00  0.00     0.160 HD
ENDBRANCH   8  16
ENDBRANCH   7   8
ENDBRANCH   4   7
BRANCH   6  19
HETATM   19  O2  UNL     1      21.503  -1.407  55.367  1.00  0.00    -0.360 OA
HETATM   20  H24 UNL     1      21.285  -2.411  55.470  1.00  0.00     0.217 HD
ENDBRANCH   6  19
BRANCH   1  21
HETATM   21  C7  UNL     1      23.744  -0.424  53.814  1.00  0.00     0.080 C 
BRANCH  21  22
HETATM   22  C6  UNL     1      24.478   0.609  53.058  1.00  0.00    -0.054 A 
HETATM   23  C5  UNL     1      24.219   1.955  52.942  1.00  0.00     0.010 A 
HETATM   24  C4  UNL     1      25.027   2.770  52.175  1.00  0.00     0.037 A 
HETATM   25  C3  UNL     1      26.130   2.288  51.486  1.00  0.00     0.068 A 
HETATM   26  C20 UNL     1      26.388   0.931  51.606  1.00  0.00     0.037 A 
HETATM   27  C19 UNL     1      25.578   0.135  52.370  1.00  0.00     0.010 A 
BRANCH  25  28
HETATM   28  O1  UNL     1      26.851   3.210  50.758  1.00  0.00    -0.352 OA
BRANCH  28  29
HETATM   29  C2  UNL     1      26.656   3.460  49.395  1.00  0.00     0.171 C 
HETATM   30  C1  UNL     1      27.402   4.698  48.936  1.00  0.00     0.034 C 
ENDBRANCH  28  29
ENDBRANCH  25  28
ENDBRANCH  21  22
ENDBRANCH   1  21
TORSDOF 8
ENDMDL
MODEL 5
REMARK VINA RESULT:      -7.1      4.306      8.454
REMARK  8 active torsions:
REMARK  status: ('A' for Active; 'I' for Inactive)
REMARK    1  A    between atoms: C2_2  and  O1_3 
REMARK    2  A    between atoms: O1_3  and  C3_4 
REMARK    3  A    between atoms: C6_7  and  C7_8 
REMARK    4  A    between atoms: C7_8  and  C8_9 
REMARK    5  A    between atoms: C11_12  and  C12_13 
REMARK    6  A    between atoms: C12_13  and  C13_14 
REMARK    7  A    between atoms: C13_14  and  N4_20 
REMARK       I    between atoms: N1_15  and  C14_16 
REMARK       I    between atoms: C14_16  and  N2_17 
REMARK    8  A    between atoms: C18_23  and  O2_24 
ROOT
HETATM    1  C8  UNL     1      28.489   9.148  48.986  1.00  0.00    -0.021 A 
HETATM    2  C9  UNL     1      28.319   8.337  47.869  1.00  0.00     0.011 A 
HETATM    3  C10 UNL     1      27.304   7.416  47.733  1.00  0.00     0.008 A 
HETATM    4  C11 UNL     1      26.388   7.261  48.732  1.00  0.00    -0.048 A 
HETATM    5  C17 UNL     1      26.519   8.046  49.859  1.00  0.00     0.044 A 
HETATM    6  C18 UNL     1      27.543   8.959  49.969  1.00  0.00     0.072 A 
ENDROOT
BRANCH   4   7
HETATM    7  C12 UNL     1      25.244   6.308  48.715  1.00  0.00     0.117 C 
BRANCH   7   8
HETATM    8  C13 UNL     1      25.114   5.548  49.987  1.00  0.00     0.122 C 
HETATM    9  N1  UNL     1      24.079   5.770  50.669  1.00  0.00    -0.050 NA
HETATM   10  C14 UNL     1      23.631   5.260  51.875  1.00  0.00     0.716 C 
HETATM   11  N2  UNL     1      23.833   5.241  53.279  1.00  0.00    -0.231 N 
HETATM   12  N3  UNL     1      22.597   4.460  51.777  1.00  0.00    -0.111 NA
HETATM   13  H14 UNL     1      24.217   4.425  53.803  1.00  0.00     0.174 HD
HETATM   14  H15 UNL     1      23.642   6.002  53.975  1.00  0.00     0.174 HD
HETATM   15  C15 UNL     1      21.968   4.131  50.516  1.00  0.00     0.198 C 
BRANCH   8  16
HETATM   16  N4  UNL     1      26.127   4.632  50.371  1.00  0.00    -0.382 N 
HETATM   17  C16 UNL     1      26.275   3.372  49.651  1.00  0.00     0.147 C 
HETATM   18  H19 UNL     1      26.760   4.882  51.177  1.00  0.00     0.160 HD
ENDBRANCH   8  16
ENDBRANCH   7   8
ENDBRANCH   4   7
BRANCH   6  19
HETATM   19  O2  UNL     1      27.651   9.732  51.109  1.00  0.00    -0.360 OA
HETATM   20  H24 UNL     1      27.076  10.588  51.133  1.00  0.00     0.217 HD
ENDBRANCH   6  19
BRANCH   1  21
HETATM   21  C7  UNL     1      29.619  10.104  49.014  1.00  0.00     0.080 C 
BRANCH  21  22
HETATM   22  C6  UNL     1      30.876   9.356  48.823  1.00  0.00    -0.054 A 
HETATM   23  C5  UNL     1      31.361   8.272  49.517  1.00  0.00     0.010 A 
HETATM   24  C4  UNL     1      32.576   7.704  49.190  1.00  0.00     0.037 A 
HETATM   25  C3  UNL     1      33.369   8.186  48.159  1.00  0.00     0.068 A 
HETATM   26  C20 UNL     1      32.877   9.279  47.461  1.00  0.00     0.037 A 
HETATM   27  C19 UNL     1      31.671   9.831  47.797  1.00  0.00     0.010 A 
BRANCH  25  28
HETATM   28  O1  UNL     1      34.559   7.527  47.938  1.00  0.00    -0.352 OA
BRANCH  28  29
HETATM   29  C2  UNL     1      34.786   6.186  48.267  1.00  0.00     0.171 C 
HETATM   30  C1  UNL     1      34.444   5.257  47.119  1.00  0.00     0.034 C 
ENDBRANCH  28  29
ENDBRANCH  25  28
ENDBRANCH  21  22
ENDBRANCH   1  21
TORSDOF 8
ENDMDL
MODEL 6
REMARK VINA RESULT:      -7.1      5.057      8.393
REMARK  8 active torsions:
REMARK  status: ('A' for Active; 'I' for Inactive)
REMARK    1  A    between atoms: C2_2  and  O1_3 
REMARK    2  A    between atoms: O1_3  and  C3_4 
REMARK    3  A    between atoms: C6_7  and  C7_8 
REMARK    4  A    between atoms: C7_8  and  C8_9 
REMARK    5  A    between atoms: C11_12  and  C12_13 
REMARK    6  A    between atoms: C12_13  and  C13_14 
REMARK    7  A    between atoms: C13_14  and  N4_20 
REMARK       I    between atoms: N1_15  and  C14_16 
REMARK       I    between atoms: C14_16  and  N2_17 
REMARK    8  A    between atoms: C18_23  and  O2_24 
ROOT
HETATM    1  C8  UNL     1      22.697   1.430  50.815  1.00  0.00    -0.021 A 
HETATM    2  C9  UNL     1      22.622   0.626  51.947  1.00  0.00     0.011 A 
HETATM    3  C10 UNL     1      23.563   0.622  52.952  1.00  0.00     0.008 A 
HETATM    4  C11 UNL     1      24.651   1.443  52.870  1.00  0.00    -0.048 A 
HETATM    5  C17 UNL     1      24.765   2.256  51.762  1.00  0.00     0.044 A 
HETATM    6  C18 UNL     1      23.810   2.241  50.772  1.00  0.00     0.072 A 
ENDROOT
BRANCH   4   7
HETATM    7  C12 UNL     1      25.738   1.539  53.882  1.00  0.00     0.117 C 
BRANCH   7   8
HETATM    8  C13 UNL     1      26.369   0.223  54.170  1.00  0.00     0.122 C 
HETATM    9  N1  UNL     1      27.134  -0.237  53.282  1.00  0.00    -0.050 NA
HETATM   10  C14 UNL     1      27.876  -1.403  53.204  1.00  0.00     0.716 C 
HETATM   11  N2  UNL     1      27.819  -2.812  53.049  1.00  0.00    -0.231 N 
HETATM   12  N3  UNL     1      29.172  -1.230  53.299  1.00  0.00    -0.111 NA
HETATM   13  H14 UNL     1      28.012  -3.492  53.817  1.00  0.00     0.174 HD
HETATM   14  H15 UNL     1      27.587  -3.364  52.189  1.00  0.00     0.174 HD
HETATM   15  C15 UNL     1      29.786   0.069  53.471  1.00  0.00     0.198 C 
BRANCH   8  16
HETATM   16  N4  UNL     1      26.096  -0.441  55.393  1.00  0.00    -0.382 N 
HETATM   17  C16 UNL     1      24.846  -1.178  55.553  1.00  0.00     0.147 C 
HETATM   18  H19 UNL     1      26.807  -0.388  56.170  1.00  0.00     0.160 HD
ENDBRANCH   8  16
ENDBRANCH   7   8
ENDBRANCH   4   7
BRANCH   6  19
HETATM   19  O2  UNL     1      23.950   3.067  49.673  1.00  0.00    -0.360 OA
HETATM   20  H24 UNL     1      23.771   2.633  48.754  1.00  0.00     0.217 HD
ENDBRANCH   6  19
BRANCH   1  21
HETATM   21  C7  UNL     1      21.620   1.347  49.802  1.00  0.00     0.080 C 
BRANCH  21  22
HETATM   22  C6  UNL     1      20.371   1.858  50.397  1.00  0.00    -0.054 A 
HETATM   23  C5  UNL     1      19.194   1.196  50.660  1.00  0.00     0.010 A 
HETATM   24  C4  UNL     1      18.119   1.854  51.224  1.00  0.00     0.037 A 
HETATM   25  C3  UNL     1      18.160   3.201  51.553  1.00  0.00     0.068 A 
HETATM   26  C20 UNL     1      19.348   3.865  51.286  1.00  0.00     0.037 A 
HETATM   27  C19 UNL     1      20.406   3.200  50.727  1.00  0.00     0.010 A 
BRANCH  25  28
HETATM   28  O1  UNL     1      17.017   3.733  52.109  1.00  0.00    -0.352 OA
BRANCH  28  29
HETATM   29  C2  UNL     1      15.813   3.034  52.248  1.00  0.00     0.171 C 
HETATM   30  C1  UNL     1      14.636   3.970  52.441  1.00  0.00     0.034 C 
ENDBRANCH  28  29
ENDBRANCH  25  28
ENDBRANCH  21  22
ENDBRANCH   1  21
TORSDOF 8
ENDMDL
MODEL 7
REMARK VINA RESULT:      -7.1      2.623      3.688
REMARK  8 active torsions:
REMARK  status: ('A' for Active; 'I' for Inactive)
REMARK    1  A    between atoms: C2_2  and  O1_3 
REMARK    2  A    between atoms: O1_3  and  C3_4 
REMARK    3  A    between atoms: C6_7  and  C7_8 
REMARK    4  A    between atoms: C7_8  and  C8_9 
REMARK    5  A    between atoms: C11_12  and  C12_13 
REMARK    6  A    between atoms: C12_13  and  C13_14 
REMARK    7  A    between atoms: C13_14  and  N4_20 
REMARK       I    between atoms: N1_15  and  C14_16 
REMARK       I    between atoms: C14_16  and  N2_17 
REMARK    8  A    between atoms: C18_23  and  O2_24 
ROOT
HETATM    1  C8  UNL     1      23.572   3.283  51.505  1.00  0.00    -0.021 A 
HETATM    2  C9  UNL     1      24.146   2.900  50.298  1.00  0.00     0.011 A 
HETATM    3  C10 UNL     1      24.589   3.786  49.340  1.00  0.00     0.008 A 
HETATM    4  C11 UNL     1      24.476   5.130  49.553  1.00  0.00    -0.048 A 
HETATM    5  C17 UNL     1      23.912   5.553  50.738  1.00  0.00     0.044 A 
HETATM    6  C18 UNL     1      23.478   4.647  51.678  1.00  0.00     0.072 A 
ENDROOT
BRANCH   4   7
HETATM    7  C12 UNL     1      24.914   6.193  48.607  1.00  0.00     0.117 C 
BRANCH   7   8
HETATM    8  C13 UNL     1      23.770   6.887  47.958  1.00  0.00     0.122 C 
HETATM    9  N1  UNL     1      23.005   6.172  47.259  1.00  0.00    -0.050 NA
HETATM   10  C14 UNL     1      21.868   6.465  46.525  1.00  0.00     0.716 C 
HETATM   11  N2  UNL     1      21.364   7.102  45.361  1.00  0.00    -0.231 N 
HETATM   12  N3  UNL     1      20.755   5.999  47.038  1.00  0.00    -0.111 NA
HETATM   13  H14 UNL     1      20.815   7.988  45.373  1.00  0.00     0.174 HD
HETATM   14  H15 UNL     1      21.459   6.801  44.362  1.00  0.00     0.174 HD
HETATM   15  C15 UNL     1      20.708   5.240  48.269  1.00  0.00     0.198 C 
BRANCH   8  16
HETATM   16  N4  UNL     1      23.590   8.281  48.144  1.00  0.00    -0.382 N 
HETATM   17  C16 UNL     1      22.734   8.763  49.225  1.00  0.00     0.147 C 
HETATM   18  H19 UNL     1      24.081   8.950  47.493  1.00  0.00     0.160 HD
ENDBRANCH   8  16
ENDBRANCH   7   8
ENDBRANCH   4   7
BRANCH   6  19
HETATM   19  O2  UNL     1      22.916   5.098  52.856  1.00  0.00    -0.360 OA
HETATM   20  H24 UNL     1      23.479   4.959  53.710  1.00  0.00     0.217 HD
ENDBRANCH   6  19
BRANCH   1  21
HETATM   21  C7  UNL     1      23.137   2.236  52.457  1.00  0.00     0.080 C 
BRANCH  21  22
HETATM   22  C6  UNL     1      24.329   1.664  53.111  1.00  0.00    -0.054 A 
HETATM   23  C5  UNL     1      25.449   2.300  53.593  1.00  0.00     0.010 A 
HETATM   24  C4  UNL     1      26.476   1.585  54.175  1.00  0.00     0.037 A 
HETATM   25  C3  UNL     1      26.441   0.205  54.307  1.00  0.00     0.068 A 
HETATM   26  C20 UNL     1      25.310  -0.433  53.821  1.00  0.00     0.037 A 
HETATM   27  C19 UNL     1      24.299   0.289  53.245  1.00  0.00     0.010 A 
BRANCH  25  28
HETATM   28  O1  UNL     1      27.533  -0.384  54.908  1.00  0.00    -0.352 OA
BRANCH  28  29
HETATM   29  C2  UNL     1      28.860  -0.128  54.548  1.00  0.00     0.171 C 
HETATM   30  C1  UNL     1      29.319  -1.020  53.412  1.00  0.00     0.034 C 
ENDBRANCH  28  29
ENDBRANCH  25  28
ENDBRANCH  21  22
ENDBRANCH   1  21
TORSDOF 8
ENDMDL
MODEL 8
REMARK VINA RESULT:      -6.9      5.062      7.602
REMARK  8 active torsions:
REMARK  status: ('A' for Active; 'I' for Inactive)
REMARK    1  A    between atoms: C2_2  and  O1_3 
REMARK    2  A    between atoms: O1_3  and  C3_4 
REMARK    3  A    between atoms: C6_7  and  C7_8 
REMARK    4  A    between atoms: C7_8  and  C8_9 
REMARK    5  A    between atoms: C11_12  and  C12_13 
REMARK    6  A    between atoms: C12_13  and  C13_14 
REMARK    7  A    between atoms: C13_14  and  N4_20 
REMARK       I    between atoms: N1_15  and  C14_16 
REMARK       I    between atoms: C14_16  and  N2_17 
REMARK    8  A    between atoms: C18_23  and  O2_24 
ROOT
HETATM    1  C8  UNL     1      22.252   2.826  51.620  1.00  0.00    -0.021 A 
HETATM    2  C9  UNL     1      22.890   3.395  52.717  1.00  0.00     0.011 A 
HETATM    3  C10 UNL     1      24.204   3.155  53.053  1.00  0.00     0.008 A 
HETATM    4  C11 UNL     1      24.960   2.314  52.288  1.00  0.00    -0.048 A 
HETATM    5  C17 UNL     1      24.365   1.727  51.191  1.00  0.00     0.044 A 
HETATM    6  C18 UNL     1      23.050   1.984  50.877  1.00  0.00     0.072 A 
ENDROOT
BRANCH   4   7
HETATM    7  C12 UNL     1      26.387   1.970  52.536  1.00  0.00     0.117 C 
BRANCH   7   8
HETATM    8  C13 UNL     1      26.551   0.629  53.159  1.00  0.00     0.122 C 
HETATM    9  N1  UNL     1      27.408  -0.130  52.636  1.00  0.00    -0.050 NA
HETATM   10  C14 UNL     1      27.823  -1.416  52.939  1.00  0.00     0.716 C 
HETATM   11  N2  UNL     1      27.465  -2.789  52.926  1.00  0.00    -0.231 N 
HETATM   12  N3  UNL     1      29.029  -1.493  53.447  1.00  0.00    -0.111 NA
HETATM   13  H14 UNL     1      27.240  -3.341  53.782  1.00  0.00     0.174 HD
HETATM   14  H15 UNL     1      27.375  -3.430  52.103  1.00  0.00     0.174 HD
HETATM   15  C15 UNL     1      29.866  -0.334  53.675  1.00  0.00     0.198 C 
BRANCH   8  16
HETATM   16  N4  UNL     1      25.763   0.269  54.282  1.00  0.00    -0.382 N 
HETATM   17  C16 UNL     1      24.605  -0.601  54.105  1.00  0.00     0.147 C 
HETATM   18  H19 UNL     1      26.031   0.641  55.232  1.00  0.00     0.160 HD
ENDBRANCH   8  16
ENDBRANCH   7   8
ENDBRANCH   4   7
BRANCH   6  19
HETATM   19  O2  UNL     1      22.480   1.382  49.772  1.00  0.00    -0.360 OA
HETATM   20  H24 UNL     1      21.485   1.597  49.600  1.00  0.00     0.217 HD
ENDBRANCH   6  19
BRANCH   1  21
HETATM   21  C7  UNL     1      20.834   3.163  51.360  1.00  0.00     0.080 C 
BRANCH  21  22
HETATM   22  C6  UNL     1      20.014   1.955  51.566  1.00  0.00    -0.054 A 
HETATM   23  C5  UNL     1      19.059   1.397  50.748  1.00  0.00     0.010 A 
HETATM   24  C4  UNL     1      18.386   0.251  51.120  1.00  0.00     0.037 A 
HETATM   25  C3  UNL     1      18.627  -0.396  52.323  1.00  0.00     0.068 A 
HETATM   26  C20 UNL     1      19.590   0.169  53.145  1.00  0.00     0.037 A 
HETATM   27  C19 UNL     1      20.250   1.305  52.763  1.00  0.00     0.010 A 
BRANCH  25  28
HETATM   28  O1  UNL     1      17.885  -1.531  52.571  1.00  0.00    -0.352 OA
BRANCH  28  29
HETATM   29  C2  UNL     1      18.031  -2.332  53.709  1.00  0.00     0.171 C 
HETATM   30  C1  UNL     1      17.258  -3.630  53.588  1.00  0.00     0.034 C 
ENDBRANCH  28  29
ENDBRANCH  25  28
ENDBRANCH  21  22
ENDBRANCH   1  21
TORSDOF 8
ENDMDL
MODEL 9
REMARK VINA RESULT:      -6.9      1.877      2.595
REMARK  8 active torsions:
REMARK  status: ('A' for Active; 'I' for Inactive)
REMARK    1  A    between atoms: C2_2  and  O1_3 
REMARK    2  A    between atoms: O1_3  and  C3_4 
REMARK    3  A    between atoms: C6_7  and  C7_8 
REMARK    4  A    between atoms: C7_8  and  C8_9 
REMARK    5  A    between atoms: C11_12  and  C12_13 
REMARK    6  A    between atoms: C12_13  and  C13_14 
REMARK    7  A    between atoms: C13_14  and  N4_20 
REMARK       I    between atoms: N1_15  and  C14_16 
REMARK       I    between atoms: C14_16  and  N2_17 
REMARK    8  A    between atoms: C18_23  and  O2_24 
ROOT
HETATM    1  C8  UNL     1      22.542   2.079  51.282  1.00  0.00    -0.021 A 
HETATM    2  C9  UNL     1      23.379   2.138  50.174  1.00  0.00     0.011 A 
HETATM    3  C10 UNL     1      23.457   3.220  49.325  1.00  0.00     0.008 A 
HETATM    4  C11 UNL     1      22.682   4.320  49.551  1.00  0.00    -0.048 A 
HETATM    5  C17 UNL     1      21.836   4.303  50.640  1.00  0.00     0.044 A 
HETATM    6  C18 UNL     1      21.777   3.209  51.473  1.00  0.00     0.072 A 
ENDROOT
BRANCH   4   7
HETATM    7  C12 UNL     1      22.668   5.553  48.717  1.00  0.00     0.117 C 
BRANCH   7   8
HETATM    8  C13 UNL     1      23.449   6.664  49.326  1.00  0.00     0.122 C 
HETATM    9  N1  UNL     1      24.702   6.581  49.237  1.00  0.00    -0.050 NA
HETATM   10  C14 UNL     1      25.724   7.405  49.675  1.00  0.00     0.716 C 
HETATM   11  N2  UNL     1      26.429   7.886  50.808  1.00  0.00    -0.231 N 
HETATM   12  N3  UNL     1      26.358   8.041  48.719  1.00  0.00    -0.111 NA
HETATM   13  H14 UNL     1      26.343   8.856  51.181  1.00  0.00     0.174 HD
HETATM   14  H15 UNL     1      27.109   7.372  51.418  1.00  0.00     0.174 HD
HETATM   15  C15 UNL     1      26.024   7.897  47.318  1.00  0.00     0.198 C 
BRANCH   8  16
HETATM   16  N4  UNL     1      22.776   7.738  49.961  1.00  0.00    -0.382 N 
HETATM   17  C16 UNL     1      22.392   8.913  49.185  1.00  0.00     0.147 C 
HETATM   18  H19 UNL     1      22.563   7.666  50.992  1.00  0.00     0.160 HD
ENDBRANCH   8  16
ENDBRANCH   7   8
ENDBRANCH   4   7
BRANCH   6  19
HETATM   19  O2  UNL     1      20.920   3.218  52.556  1.00  0.00    -0.360 OA
HETATM   20  H24 UNL     1      20.249   4.001  52.598  1.00  0.00     0.217 HD
ENDBRANCH   6  19
BRANCH   1  21
HETATM   21  C7  UNL     1      22.549   0.860  52.123  1.00  0.00     0.080 C 
BRANCH  21  22
HETATM   22  C6  UNL     1      23.830   0.794  52.850  1.00  0.00    -0.054 A 
HETATM   23  C5  UNL     1      24.475  -0.297  53.385  1.00  0.00     0.010 A 
HETATM   24  C4  UNL     1      25.680  -0.158  54.042  1.00  0.00     0.037 A 
HETATM   25  C3  UNL     1      26.304   1.071  54.202  1.00  0.00     0.068 A 
HETATM   26  C20 UNL     1      25.651   2.169  53.661  1.00  0.00     0.037 A 
HETATM   27  C19 UNL     1      24.456   2.015  53.011  1.00  0.00     0.010 A 
BRANCH  25  28
HETATM   28  O1  UNL     1      27.504   1.069  54.879  1.00  0.00    -0.352 OA
BRANCH  28  29
HETATM   29  C2  UNL     1      28.460   0.052  54.779  1.00  0.00     0.171 C 
HETATM   30  C1  UNL     1      29.408   0.281  53.618  1.00  0.00     0.034 C 
ENDBRANCH  28  29
ENDBRANCH  25  28
ENDBRANCH  21  22
ENDBRANCH   1  21
TORSDOF 8
ENDMDL
