MODEL 1
REMARK VINA RESULT:      -7.6      0.000      0.000
REMARK  6 active torsions:
REMARK  status: ('A' for Active; 'I' for Inactive)
REMARK    1  A    between atoms: O1_2  and  S1_3 
REMARK    2  A    between atoms: S1_3  and  C2_4 
REMARK    3  A    between atoms: C5_7  and  C6_8 
REMARK    4  A    between atoms: C6_8  and  C7_9 
REMARK       I    between atoms: C7_9  and  N1_11 
REMARK    5  A    between atoms: N1_11  and  S2_12 
REMARK    6  A    between atoms: S2_12  and  C8_14 
ROOT
HETATM    1  C7  UNL     1      23.938   2.693  51.524  1.00  0.00     0.233 C 
HETATM    2  O2  UNL     1      24.280   3.319  52.571  1.00  0.00    -0.272 OA
HETATM    3  N1  UNL     1      23.722   1.293  51.672  1.00  0.00    -0.272 N 
HETATM    4  H8  UNL     1      23.442   0.515  51.023  1.00  0.00     0.179 HD
ENDROOT
BRANCH   1   5
HETATM    5  C6  UNL     1      23.699   3.112  50.110  1.00  0.00     0.142 C 
BRANCH   5   6
HETATM    6  C5  UNL     1      24.781   4.002  49.612  1.00  0.00    -0.049 A 
HETATM    7  C4  UNL     1      24.651   5.309  49.193  1.00  0.00     0.009 A 
HETATM    8  C3  UNL     1      25.743   6.025  48.752  1.00  0.00     0.021 A 
HETATM    9  C2  UNL     1      26.994   5.441  48.723  1.00  0.00     0.028 A 
HETATM   10  C15 UNL     1      27.149   4.136  49.136  1.00  0.00     0.021 A 
HETATM   11  C14 UNL     1      26.047   3.415  49.581  1.00  0.00     0.009 A 
BRANCH   9  12
HETATM   12  S1  UNL     1      28.478   6.254  48.178  1.00  0.00     0.028 SA
BRANCH  12  13
HETATM   13  O1  UNL     1      29.889   5.354  48.526  1.00  0.00    -0.320 OA
HETATM   14  C1  UNL     1      31.017   6.153  48.624  1.00  0.00     0.220 C 
ENDBRANCH  12  13
ENDBRANCH   9  12
ENDBRANCH   5   6
ENDBRANCH   1   5
BRANCH   3  15
HETATM   15  S2  UNL     1      23.923   0.491  53.219  1.00  0.00     0.153 S 
HETATM   16  O3  UNL     1      23.224  -0.873  53.213  1.00  0.00    -0.230 OA
BRANCH  15  17
HETATM   17  C8  UNL     1      25.649   0.174  53.500  1.00  0.00     0.052 A 
HETATM   18  C9  UNL     1      26.477   0.794  54.414  1.00  0.00     0.024 A 
HETATM   19  C10 UNL     1      27.799   0.403  54.479  1.00  0.00     0.025 A 
HETATM   20  C11 UNL     1      28.282  -0.587  53.645  1.00  0.00     0.034 A 
HETATM   21 CL1  UNL     1      29.988  -1.019  53.802  1.00  0.00    -0.084 Cl
HETATM   22  C12 UNL     1      27.472  -1.219  52.723  1.00  0.00     0.025 A 
HETATM   23  C13 UNL     1      26.132  -0.828  52.652  1.00  0.00     0.024 A 
ENDBRANCH  15  17
ENDBRANCH   3  15
TORSDOF 6
ENDMDL
MODEL 2
REMARK VINA RESULT:      -7.4      1.163      1.609
REMARK  6 active torsions:
REMARK  status: ('A' for Active; 'I' for Inactive)
REMARK    1  A    between atoms: O1_2  and  S1_3 
REMARK    2  A    between atoms: S1_3  and  C2_4 
REMARK    3  A    between atoms: C5_7  and  C6_8 
REMARK    4  A    between atoms: C6_8  and  C7_9 
REMARK       I    between atoms: C7_9  and  N1_11 
REMARK    5  A    between atoms: N1_11  and  S2_12 
REMARK    6  A    between atoms: S2_12  and  C8_14 
ROOT
HETATM    1  C7  UNL     1      24.100   2.843  51.367  1.00  0.00     0.233 C 
HETATM    2  O2  UNL     1      24.298   3.511  52.425  1.00  0.00    -0.272 OA
HETATM    3  N1  UNL     1      23.987   1.433  51.527  1.00  0.00    -0.272 N 
HETATM    4  H8  UNL     1      23.828   0.624  50.874  1.00  0.00     0.179 HD
ENDROOT
BRANCH   1   5
HETATM    5  C6  UNL     1      23.954   3.220  49.928  1.00  0.00     0.142 C 
BRANCH   5   6
HETATM    6  C5  UNL     1      25.085   4.067  49.466  1.00  0.00    -0.049 A 
HETATM    7  C4  UNL     1      26.410   3.699  49.374  1.00  0.00     0.009 A 
HETATM    8  C3  UNL     1      27.364   4.589  48.926  1.00  0.00     0.021 A 
HETATM    9  C2  UNL     1      27.003   5.872  48.562  1.00  0.00     0.028 A 
HETATM   10  C15 UNL     1      25.686   6.262  48.646  1.00  0.00     0.021 A 
HETATM   11  C14 UNL     1      24.725   5.364  49.097  1.00  0.00     0.009 A 
BRANCH   9  12
HETATM   12  S1  UNL     1      28.134   7.110  47.972  1.00  0.00     0.028 SA
BRANCH  12  13
HETATM   13  O1  UNL     1      28.523   8.271  49.166  1.00  0.00    -0.320 OA
HETATM   14  C1  UNL     1      27.861   9.473  48.974  1.00  0.00     0.220 C 
ENDBRANCH  12  13
ENDBRANCH   9  12
ENDBRANCH   5   6
ENDBRANCH   1   5
BRANCH   3  15
HETATM   15  S2  UNL     1      24.115   0.674  53.104  1.00  0.00     0.153 S 
HETATM   16  O3  UNL     1      23.352  -0.655  53.124  1.00  0.00    -0.230 OA
BRANCH  15  17
HETATM   17  C8  UNL     1      25.817   0.284  53.434  1.00  0.00     0.052 A 
HETATM   18  C9  UNL     1      26.660   0.910  54.331  1.00  0.00     0.024 A 
HETATM   19  C10 UNL     1      27.959   0.457  54.442  1.00  0.00     0.025 A 
HETATM   20  C11 UNL     1      28.404  -0.600  53.671  1.00  0.00     0.034 A 
HETATM   21 CL1  UNL     1      30.083  -1.109  53.884  1.00  0.00    -0.084 Cl
HETATM   22  C12 UNL     1      27.578  -1.240  52.768  1.00  0.00     0.025 A 
HETATM   23  C13 UNL     1      26.262  -0.785  52.651  1.00  0.00     0.024 A 
ENDBRANCH  15  17
ENDBRANCH   3  15
TORSDOF 6
ENDMDL
MODEL 3
REMARK VINA RESULT:      -7.2      3.955      5.210
REMARK  6 active torsions:
REMARK  status: ('A' for Active; 'I' for Inactive)
REMARK    1  A    between atoms: O1_2  and  S1_3 
REMARK    2  A    between atoms: S1_3  and  C2_4 
REMARK    3  A    between atoms: C5_7  and  C6_8 
REMARK    4  A    between atoms: C6_8  and  C7_9 
REMARK       I    between atoms: C7_9  and  N1_11 
REMARK    5  A    between atoms: N1_11  and  S2_12 
REMARK    6  A    between atoms: S2_12  and  C8_14 
ROOT
HETATM    1  C7  UNL     1      26.612   0.822  52.354  1.00  0.00     0.233 C 
HETATM    2  O2  UNL     1      26.695  -0.288  51.747  1.00  0.00    -0.272 OA
HETATM    3  N1  UNL     1      25.989   0.792  53.633  1.00  0.00    -0.272 N 
HETATM    4  H8  UNL     1      25.771   1.513  54.367  1.00  0.00     0.179 HD
ENDROOT
BRANCH   1   5
HETATM    5  C6  UNL     1      27.041   2.212  52.012  1.00  0.00     0.142 C 
BRANCH   5   6
HETATM    6  C5  UNL     1      26.123   2.841  51.025  1.00  0.00    -0.049 A 
HETATM    7  C4  UNL     1      26.469   3.707  50.009  1.00  0.00     0.009 A 
HETATM    8  C3  UNL     1      25.512   4.221  49.160  1.00  0.00     0.021 A 
HETATM    9  C2  UNL     1      24.184   3.874  49.314  1.00  0.00     0.028 A 
HETATM   10  C15 UNL     1      23.815   3.011  50.321  1.00  0.00     0.021 A 
HETATM   11  C14 UNL     1      24.781   2.493  51.178  1.00  0.00     0.009 A 
BRANCH   9  12
HETATM   12  S1  UNL     1      22.859   4.466  48.288  1.00  0.00     0.028 SA
BRANCH  12  13
HETATM   13  O1  UNL     1      22.147   3.227  47.349  1.00  0.00    -0.320 OA
HETATM   14  C1  UNL     1      21.860   3.639  46.057  1.00  0.00     0.220 C 
ENDBRANCH  12  13
ENDBRANCH   9  12
ENDBRANCH   5   6
ENDBRANCH   1   5
BRANCH   3  15
HETATM   15  S2  UNL     1      25.373  -0.699  54.322  1.00  0.00     0.153 S 
HETATM   16  O3  UNL     1      25.663  -0.757  55.826  1.00  0.00    -0.230 OA
BRANCH  15  17
HETATM   17  C8  UNL     1      23.606  -0.746  54.144  1.00  0.00     0.052 A 
HETATM   18  C9  UNL     1      22.689  -1.270  55.033  1.00  0.00     0.024 A 
HETATM   19  C10 UNL     1      21.348  -1.210  54.710  1.00  0.00     0.025 A 
HETATM   20  C11 UNL     1      20.935  -0.637  53.522  1.00  0.00     0.034 A 
HETATM   21 CL1  UNL     1      19.199  -0.606  53.197  1.00  0.00    -0.084 Cl
HETATM   22  C12 UNL     1      21.835  -0.108  52.620  1.00  0.00     0.025 A 
HETATM   23  C13 UNL     1      23.194  -0.165  52.940  1.00  0.00     0.024 A 
ENDBRANCH  15  17
ENDBRANCH   3  15
TORSDOF 6
ENDMDL
MODEL 4
REMARK VINA RESULT:      -7.0      3.447      6.405
REMARK  6 active torsions:
REMARK  status: ('A' for Active; 'I' for Inactive)
REMARK    1  A    between atoms: O1_2  and  S1_3 
REMARK    2  A    between atoms: S1_3  and  C2_4 
REMARK    3  A    between atoms: C5_7  and  C6_8 
REMARK    4  A    between atoms: C6_8  and  C7_9 
REMARK       I    between atoms: C7_9  and  N1_11 
REMARK    5  A    between atoms: N1_11  and  S2_12 
REMARK    6  A    between atoms: S2_12  and  C8_14 
ROOT
HETATM    1  C7  UNL     1      22.485   1.718  50.964  1.00  0.00     0.233 C 
HETATM    2  O2  UNL     1      22.380   1.320  49.765  1.00  0.00    -0.272 OA
HETATM    3  N1  UNL     1      22.596   3.125  51.151  1.00  0.00    -0.272 N 
HETATM    4  H8  UNL     1      22.695   3.755  51.988  1.00  0.00     0.179 HD
ENDROOT
BRANCH   1   5
HETATM    5  C6  UNL     1      22.520   1.010  52.279  1.00  0.00     0.142 C 
BRANCH   5   6
HETATM    6  C5  UNL     1      23.902   0.927  52.820  1.00  0.00    -0.049 A 
HETATM    7  C4  UNL     1      24.938   1.806  52.584  1.00  0.00     0.009 A 
HETATM    8  C3  UNL     1      26.179   1.610  53.152  1.00  0.00     0.021 A 
HETATM    9  C2  UNL     1      26.406   0.522  53.971  1.00  0.00     0.028 A 
HETATM   10  C15 UNL     1      25.387  -0.370  54.222  1.00  0.00     0.021 A 
HETATM   11  C14 UNL     1      24.136  -0.171  53.649  1.00  0.00     0.009 A 
BRANCH   9  12
HETATM   12  S1  UNL     1      27.956   0.158  54.762  1.00  0.00     0.028 SA
BRANCH  12  13
HETATM   13  O1  UNL     1      29.276   0.203  53.676  1.00  0.00    -0.320 OA
HETATM   14  C1  UNL     1      29.814  -1.053  53.442  1.00  0.00     0.220 C 
ENDBRANCH  12  13
ENDBRANCH   9  12
ENDBRANCH   5   6
ENDBRANCH   1   5
BRANCH   3  15
HETATM   15  S2  UNL     1      22.588   4.236  49.794  1.00  0.00     0.153 S 
HETATM   16  O3  UNL     1      21.879   5.542  50.172  1.00  0.00    -0.230 OA
BRANCH  15  17
HETATM   17  C8  UNL     1      24.260   4.671  49.377  1.00  0.00     0.052 A 
HETATM   18  C9  UNL     1      24.713   5.877  48.882  1.00  0.00     0.024 A 
HETATM   19  C10 UNL     1      26.060   6.018  48.618  1.00  0.00     0.025 A 
HETATM   20  C11 UNL     1      26.935   4.973  48.846  1.00  0.00     0.034 A 
HETATM   21 CL1  UNL     1      28.642   5.250  48.479  1.00  0.00    -0.084 Cl
HETATM   22  C12 UNL     1      26.504   3.759  49.340  1.00  0.00     0.025 A 
HETATM   23  C13 UNL     1      25.141   3.609  49.609  1.00  0.00     0.024 A 
ENDBRANCH  15  17
ENDBRANCH   3  15
TORSDOF 6
ENDMDL
MODEL 5
REMARK VINA RESULT:      -6.9      3.104      3.842
REMARK  6 active torsions:
REMARK  status: ('A' for Active; 'I' for Inactive)
REMARK    1  A    between atoms: O1_2  and  S1_3 
REMARK    2  A    between atoms: S1_3  and  C2_4 
REMARK    3  A    between atoms: C5_7  and  C6_8 
REMARK    4  A    between atoms: C6_8  and  C7_9 
REMARK       I    between atoms: C7_9  and  N1_11 
REMARK    5  A    between atoms: N1_11  and  S2_12 
REMARK    6  A    between atoms: S2_12  and  C8_14 
ROOT
HETATM    1  C7  UNL     1      26.167   3.499  49.936  1.00  0.00     0.233 C 
HETATM    2  O2  UNL     1      26.979   2.740  49.327  1.00  0.00    -0.272 OA
HETATM    3  N1  UNL     1      25.977   3.232  51.321  1.00  0.00    -0.272 N 
HETATM    4  H8  UNL     1      25.393   3.659  52.084  1.00  0.00     0.179 HD
ENDROOT
BRANCH   1   5
HETATM    5  C6  UNL     1      25.332   4.661  49.507  1.00  0.00     0.142 C 
BRANCH   5   6
HETATM    6  C5  UNL     1      26.151   5.888  49.325  1.00  0.00    -0.049 A 
HETATM    7  C4  UNL     1      27.236   6.041  48.488  1.00  0.00     0.009 A 
HETATM    8  C3  UNL     1      27.911   7.241  48.414  1.00  0.00     0.021 A 
HETATM    9  C2  UNL     1      27.510   8.315  49.184  1.00  0.00     0.028 A 
HETATM   10  C15 UNL     1      26.429   8.185  50.028  1.00  0.00     0.021 A 
HETATM   11  C14 UNL     1      25.749   6.975  50.101  1.00  0.00     0.009 A 
BRANCH   9  12
HETATM   12  S1  UNL     1      28.294   9.910  49.182  1.00  0.00     0.028 SA
BRANCH  12  13
HETATM   13  O1  UNL     1      29.994   9.810  49.328  1.00  0.00    -0.320 OA
HETATM   14  C1  UNL     1      30.621  11.022  49.085  1.00  0.00     0.220 C 
ENDBRANCH  12  13
ENDBRANCH   9  12
ENDBRANCH   5   6
ENDBRANCH   1   5
BRANCH   3  15
HETATM   15  S2  UNL     1      26.821   1.923  52.130  1.00  0.00     0.153 S 
HETATM   16  O3  UNL     1      27.753   2.473  53.215  1.00  0.00    -0.230 OA
BRANCH  15  17
HETATM   17  C8  UNL     1      25.641   0.882  52.957  1.00  0.00     0.052 A 
HETATM   18  C9  UNL     1      25.892  -0.042  53.951  1.00  0.00     0.024 A 
HETATM   19  C10 UNL     1      24.833  -0.758  54.469  1.00  0.00     0.025 A 
HETATM   20  C11 UNL     1      23.549  -0.554  54.001  1.00  0.00     0.034 A 
HETATM   21 CL1  UNL     1      22.258  -1.518  54.726  1.00  0.00    -0.084 Cl
HETATM   22  C12 UNL     1      23.276   0.364  53.007  1.00  0.00     0.025 A 
HETATM   23  C13 UNL     1      24.344   1.093  52.478  1.00  0.00     0.024 A 
ENDBRANCH  15  17
ENDBRANCH   3  15
TORSDOF 6
ENDMDL
MODEL 6
REMARK VINA RESULT:      -6.9      3.067      3.934
REMARK  6 active torsions:
REMARK  status: ('A' for Active; 'I' for Inactive)
REMARK    1  A    between atoms: O1_2  and  S1_3 
REMARK    2  A    between atoms: S1_3  and  C2_4 
REMARK    3  A    between atoms: C5_7  and  C6_8 
REMARK    4  A    between atoms: C6_8  and  C7_9 
REMARK       I    between atoms: C7_9  and  N1_11 
REMARK    5  A    between atoms: N1_11  and  S2_12 
REMARK    6  A    between atoms: S2_12  and  C8_14 
ROOT
HETATM    1  C7  UNL     1      26.151   3.373  50.179  1.00  0.00     0.233 C 
HETATM    2  O2  UNL     1      26.832   2.385  49.773  1.00  0.00    -0.272 OA
HETATM    3  N1  UNL     1      25.750   3.340  51.545  1.00  0.00    -0.272 N 
HETATM    4  H8  UNL     1      25.197   3.980  52.169  1.00  0.00     0.179 HD
ENDROOT
BRANCH   1   5
HETATM    5  C6  UNL     1      25.655   4.618  49.517  1.00  0.00     0.142 C 
BRANCH   5   6
HETATM    6  C5  UNL     1      26.772   5.419  48.950  1.00  0.00    -0.049 A 
HETATM    7  C4  UNL     1      28.023   4.960  48.596  1.00  0.00     0.009 A 
HETATM    8  C3  UNL     1      28.972   5.815  48.077  1.00  0.00     0.021 A 
HETATM    9  C2  UNL     1      28.683   7.154  47.904  1.00  0.00     0.028 A 
HETATM   10  C15 UNL     1      27.440   7.636  48.250  1.00  0.00     0.021 A 
HETATM   11  C14 UNL     1      26.484   6.772  48.772  1.00  0.00     0.009 A 
BRANCH   9  12
HETATM   12  S1  UNL     1      29.815   8.357  47.247  1.00  0.00     0.028 SA
BRANCH  12  13
HETATM   13  O1  UNL     1      29.918   9.763  48.215  1.00  0.00    -0.320 OA
HETATM   14  C1  UNL     1      30.637   9.554  49.381  1.00  0.00     0.220 C 
ENDBRANCH  12  13
ENDBRANCH   9  12
ENDBRANCH   5   6
ENDBRANCH   1   5
BRANCH   3  15
HETATM   15  S2  UNL     1      26.178   2.003  52.596  1.00  0.00     0.153 S 
HETATM   16  O3  UNL     1      26.761   2.521  53.915  1.00  0.00    -0.230 OA
BRANCH  15  17
HETATM   17  C8  UNL     1      24.712   1.089  53.015  1.00  0.00     0.052 A 
HETATM   18  C9  UNL     1      23.421   1.343  52.600  1.00  0.00     0.024 A 
HETATM   19  C10 UNL     1      22.411   0.511  53.039  1.00  0.00     0.025 A 
HETATM   20  C11 UNL     1      22.689  -0.552  53.878  1.00  0.00     0.034 A 
HETATM   21 CL1  UNL     1      21.330  -1.560  54.386  1.00  0.00    -0.084 Cl
HETATM   22  C12 UNL     1      23.973  -0.823  54.305  1.00  0.00     0.025 A 
HETATM   23  C13 UNL     1      25.000   0.016  53.864  1.00  0.00     0.024 A 
ENDBRANCH  15  17
ENDBRANCH   3  15
TORSDOF 6
ENDMDL
MODEL 7
REMARK VINA RESULT:      -6.8      2.199      2.871
REMARK  6 active torsions:
REMARK  status: ('A' for Active; 'I' for Inactive)
REMARK    1  A    between atoms: O1_2  and  S1_3 
REMARK    2  A    between atoms: S1_3  and  C2_4 
REMARK    3  A    between atoms: C5_7  and  C6_8 
REMARK    4  A    between atoms: C6_8  and  C7_9 
REMARK       I    between atoms: C7_9  and  N1_11 
REMARK    5  A    between atoms: N1_11  and  S2_12 
REMARK    6  A    between atoms: S2_12  and  C8_14 
ROOT
HETATM    1  C7  UNL     1      24.267   5.580  50.089  1.00  0.00     0.233 C 
HETATM    2  O2  UNL     1      24.427   6.020  51.267  1.00  0.00    -0.272 OA
HETATM    3  N1  UNL     1      23.678   4.288  49.976  1.00  0.00    -0.272 N 
HETATM    4  H8  UNL     1      23.419   3.661  49.173  1.00  0.00     0.179 HD
ENDROOT
BRANCH   1   5
HETATM    5  C6  UNL     1      24.569   6.138  48.736  1.00  0.00     0.142 C 
BRANCH   5   6
HETATM    6  C5  UNL     1      26.034   6.216  48.491  1.00  0.00    -0.049 A 
HETATM    7  C4  UNL     1      26.735   7.304  48.015  1.00  0.00     0.009 A 
HETATM    8  C3  UNL     1      28.101   7.242  47.833  1.00  0.00     0.021 A 
HETATM    9  C2  UNL     1      28.791   6.083  48.125  1.00  0.00     0.028 A 
HETATM   10  C15 UNL     1      28.112   4.984  48.602  1.00  0.00     0.021 A 
HETATM   11  C14 UNL     1      26.735   5.047  48.786  1.00  0.00     0.009 A 
BRANCH   9  12
HETATM   12  S1  UNL     1      30.546   5.875  47.934  1.00  0.00     0.028 SA
BRANCH  12  13
HETATM   13  O1  UNL     1      31.408   6.182  49.378  1.00  0.00    -0.320 OA
HETATM   14  C1  UNL     1      31.714   7.523  49.540  1.00  0.00     0.220 C 
ENDBRANCH  12  13
ENDBRANCH   9  12
ENDBRANCH   5   6
ENDBRANCH   1   5
BRANCH   3  15
HETATM   15  S2  UNL     1      23.207   3.366  51.392  1.00  0.00     0.153 S 
HETATM   16  O3  UNL     1      21.920   2.579  51.118  1.00  0.00    -0.230 OA
BRANCH  15  17
HETATM   17  C8  UNL     1      24.465   2.166  51.760  1.00  0.00     0.052 A 
HETATM   18  C9  UNL     1      25.780   2.176  51.341  1.00  0.00     0.024 A 
HETATM   19  C10 UNL     1      26.607   1.145  51.736  1.00  0.00     0.025 A 
HETATM   20  C11 UNL     1      26.127   0.124  52.534  1.00  0.00     0.034 A 
HETATM   21 CL1  UNL     1      27.261  -1.153  52.988  1.00  0.00    -0.084 Cl
HETATM   22  C12 UNL     1      24.816   0.093  52.964  1.00  0.00     0.025 A 
HETATM   23  C13 UNL     1      23.973   1.135  52.567  1.00  0.00     0.024 A 
ENDBRANCH  15  17
ENDBRANCH   3  15
TORSDOF 6
ENDMDL
MODEL 8
REMARK VINA RESULT:      -6.8      3.302      6.846
REMARK  6 active torsions:
REMARK  status: ('A' for Active; 'I' for Inactive)
REMARK    1  A    between atoms: O1_2  and  S1_3 
REMARK    2  A    between atoms: S1_3  and  C2_4 
REMARK    3  A    between atoms: C5_7  and  C6_8 
REMARK    4  A    between atoms: C6_8  and  C7_9 
REMARK       I    between atoms: C7_9  and  N1_11 
REMARK    5  A    between atoms: N1_11  and  S2_12 
REMARK    6  A    between atoms: S2_12  and  C8_14 
ROOT
HETATM    1  C7  UNL     1      23.340   4.122  50.585  1.00  0.00     0.233 C 
HETATM    2  O2  UNL     1      23.269   3.728  49.383  1.00  0.00    -0.272 OA
HETATM    3  N1  UNL     1      23.841   5.439  50.785  1.00  0.00    -0.272 N 
HETATM    4  H8  UNL     1      24.020   6.043  51.627  1.00  0.00     0.179 HD
ENDROOT
BRANCH   1   5
HETATM    5  C6  UNL     1      23.001   3.486  51.894  1.00  0.00     0.142 C 
BRANCH   5   6
HETATM    6  C5  UNL     1      23.891   2.332  52.189  1.00  0.00    -0.049 A 
HETATM    7  C4  UNL     1      23.581   1.221  52.945  1.00  0.00     0.009 A 
HETATM    8  C3  UNL     1      24.505   0.217  53.141  1.00  0.00     0.021 A 
HETATM    9  C2  UNL     1      25.764   0.309  52.581  1.00  0.00     0.028 A 
HETATM   10  C15 UNL     1      26.096   1.409  51.822  1.00  0.00     0.021 A 
HETATM   11  C14 UNL     1      25.163   2.421  51.624  1.00  0.00     0.009 A 
BRANCH   9  12
HETATM   12  S1  UNL     1      27.042  -0.914  52.758  1.00  0.00     0.028 SA
BRANCH  12  13
HETATM   13  O1  UNL     1      28.456  -0.289  53.490  1.00  0.00    -0.320 OA
HETATM   14  C1  UNL     1      28.254   0.070  54.813  1.00  0.00     0.220 C 
ENDBRANCH  12  13
ENDBRANCH   9  12
ENDBRANCH   5   6
ENDBRANCH   1   5
BRANCH   3  15
HETATM   15  S2  UNL     1      24.330   6.451  49.438  1.00  0.00     0.153 S 
HETATM   16  O3  UNL     1      24.319   7.929  49.844  1.00  0.00    -0.230 OA
BRANCH  15  17
HETATM   17  C8  UNL     1      26.005   6.063  48.986  1.00  0.00     0.052 A 
HETATM   18  C9  UNL     1      26.625   4.831  49.050  1.00  0.00     0.024 A 
HETATM   19  C10 UNL     1      27.942   4.734  48.651  1.00  0.00     0.025 A 
HETATM   20  C11 UNL     1      28.624   5.848  48.198  1.00  0.00     0.034 A 
HETATM   21 CL1  UNL     1      30.308   5.624  47.709  1.00  0.00    -0.084 Cl
HETATM   22  C12 UNL     1      28.024   7.088  48.127  1.00  0.00     0.025 A 
HETATM   23  C13 UNL     1      26.690   7.193  48.529  1.00  0.00     0.024 A 
ENDBRANCH  15  17
ENDBRANCH   3  15
TORSDOF 6
ENDMDL
MODEL 9
REMARK VINA RESULT:      -6.7      4.013      5.240
REMARK  6 active torsions:
REMARK  status: ('A' for Active; 'I' for Inactive)
REMARK    1  A    between atoms: O1_2  and  S1_3 
REMARK    2  A    between atoms: S1_3  and  C2_4 
REMARK    3  A    between atoms: C5_7  and  C6_8 
REMARK    4  A    between atoms: C6_8  and  C7_9 
REMARK       I    between atoms: C7_9  and  N1_11 
REMARK    5  A    between atoms: N1_11  and  S2_12 
REMARK    6  A    between atoms: S2_12  and  C8_14 
ROOT
HETATM    1  C7  UNL     1      26.086   4.057  49.993  1.00  0.00     0.233 C 
HETATM    2  O2  UNL     1      27.064   3.620  49.315  1.00  0.00    -0.272 OA
HETATM    3  N1  UNL     1      25.794   3.355  51.197  1.00  0.00    -0.272 N 
HETATM    4  H8  UNL     1      25.075   3.458  51.957  1.00  0.00     0.179 HD
ENDROOT
BRANCH   1   5
HETATM    5  C6  UNL     1      25.132   5.192  49.804  1.00  0.00     0.142 C 
BRANCH   5   6
HETATM    6  C5  UNL     1      24.042   4.838  48.856  1.00  0.00    -0.049 A 
HETATM    7  C4  UNL     1      23.436   3.608  48.715  1.00  0.00     0.009 A 
HETATM    8  C3  UNL     1      22.430   3.415  47.792  1.00  0.00     0.021 A 
HETATM    9  C2  UNL     1      22.012   4.458  46.988  1.00  0.00     0.028 A 
HETATM   10  C15 UNL     1      22.603   5.695  47.111  1.00  0.00     0.021 A 
HETATM   11  C14 UNL     1      23.617   5.889  48.043  1.00  0.00     0.009 A 
BRANCH   9  12
HETATM   12  S1  UNL     1      20.730   4.339  45.763  1.00  0.00     0.028 SA
BRANCH  12  13
HETATM   13  O1  UNL     1      21.276   3.636  44.303  1.00  0.00    -0.320 OA
HETATM   14  C1  UNL     1      20.440   3.915  43.234  1.00  0.00     0.220 C 
ENDBRANCH  12  13
ENDBRANCH   9  12
ENDBRANCH   5   6
ENDBRANCH   1   5
BRANCH   3  15
HETATM   15  S2  UNL     1      26.738   1.966  51.703  1.00  0.00     0.153 S 
HETATM   16  O3  UNL     1      27.935   2.410  52.552  1.00  0.00    -0.230 OA
BRANCH  15  17
HETATM   17  C8  UNL     1      25.742   0.922  52.740  1.00  0.00     0.052 A 
HETATM   18  C9  UNL     1      26.181   0.014  53.683  1.00  0.00     0.024 A 
HETATM   19  C10 UNL     1      25.242  -0.708  54.391  1.00  0.00     0.025 A 
HETATM   20  C11 UNL     1      23.892  -0.525  54.159  1.00  0.00     0.034 A 
HETATM   21 CL1  UNL     1      22.767  -1.496  55.116  1.00  0.00    -0.084 Cl
HETATM   22  C12 UNL     1      23.431   0.377  53.222  1.00  0.00     0.025 A 
HETATM   23  C13 UNL     1      24.377   1.111  52.501  1.00  0.00     0.024 A 
ENDBRANCH  15  17
ENDBRANCH   3  15
TORSDOF 6
ENDMDL
