MODEL 1
REMARK VINA RESULT:      -8.7      0.000      0.000
REMARK  1 active torsions:
REMARK  status: ('A' for Active; 'I' for Inactive)
REMARK    1  A    between atoms: C11_15  and  N4_16 
ROOT
HETATM    1  F1  UNL     1      20.147  -1.851  54.003  1.00  0.00    -0.206 F 
HETATM    2  C1  UNL     1      20.877  -0.838  53.443  1.00  0.00     0.117 A 
HETATM    3  C2  UNL     1      20.305  -0.059  52.457  1.00  0.00     0.045 A 
HETATM    4  C3  UNL     1      21.055   0.964  51.898  1.00  0.00     0.041 A 
HETATM    5  C4  UNL     1      22.339   1.224  52.289  1.00  0.00     0.086 A 
HETATM    6  C5  UNL     1      22.929   0.456  53.274  1.00  0.00    -0.004 A 
HETATM    7  C6  UNL     1      22.187  -0.580  53.851  1.00  0.00     0.054 A 
HETATM    8  C7  UNL     1      24.223   0.399  53.957  1.00  0.00     0.161 C 
HETATM    9  N1  UNL     1      25.210   1.315  53.464  1.00  0.00    -0.379 N 
HETATM   10  C8  UNL     1      25.345   2.003  52.219  1.00  0.00     0.129 A 
HETATM   11  C9  UNL     1      24.302   2.432  51.410  1.00  0.00     0.202 A 
HETATM   12  N2  UNL     1      24.615   3.094  50.258  1.00  0.00    -0.215 NA
HETATM   13  C10 UNL     1      25.932   3.280  49.996  1.00  0.00     0.238 A 
HETATM   14  N3  UNL     1      26.901   2.852  50.795  1.00  0.00    -0.222 NA
HETATM   15  C11 UNL     1      26.680   2.191  51.948  1.00  0.00     0.163 A 
HETATM   16  O1  UNL     1      22.919   2.273  51.623  1.00  0.00    -0.289 OA
HETATM   17  H6  UNL     1      26.017   1.570  54.110  1.00  0.00     0.160 HD
ENDROOT
BRANCH  15  18
HETATM   18  N4  UNL     1      27.758   1.737  52.754  1.00  0.00    -0.312 N 
HETATM   19  C12 UNL     1      28.147   0.358  52.550  1.00  0.00     0.111 C 
HETATM   20  C13 UNL     1      28.528  -0.431  53.575  1.00  0.00     0.032 C 
HETATM   21 BR1  UNL     1      29.033  -2.258  53.226  1.00  0.00    -0.052 Br
HETATM   22  C14 UNL     1      28.488   0.284  54.888  1.00  0.00     0.319 C 
HETATM   23  N5  UNL     1      29.166   1.543  54.687  1.00  0.00     0.105 N 
HETATM   24  C15 UNL     1      28.544   2.428  53.757  1.00  0.00     0.401 C 
HETATM   25  H11 UNL     1      30.137   1.298  54.379  1.00  0.00     0.318 HD
ENDBRANCH  15  18
TORSDOF 1
ENDMDL
MODEL 2
REMARK VINA RESULT:      -8.2      1.845      2.450
REMARK  1 active torsions:
REMARK  status: ('A' for Active; 'I' for Inactive)
REMARK    1  A    between atoms: C11_15  and  N4_16 
ROOT
HETATM    1  F1  UNL     1      18.045  -2.668  54.035  1.00  0.00    -0.206 F 
HETATM    2  C1  UNL     1      18.669  -1.600  53.447  1.00  0.00     0.117 A 
HETATM    3  C2  UNL     1      18.010  -0.889  52.464  1.00  0.00     0.045 A 
HETATM    4  C3  UNL     1      18.653   0.189  51.878  1.00  0.00     0.041 A 
HETATM    5  C4  UNL     1      19.916   0.569  52.238  1.00  0.00     0.086 A 
HETATM    6  C5  UNL     1      20.592  -0.130  53.219  1.00  0.00    -0.004 A 
HETATM    7  C6  UNL     1      19.959  -1.221  53.823  1.00  0.00     0.054 A 
HETATM    8  C7  UNL     1      21.900  -0.062  53.874  1.00  0.00     0.161 C 
HETATM    9  N1  UNL     1      22.790   0.933  53.350  1.00  0.00    -0.379 N 
HETATM   10  C8  UNL     1      22.838   1.614  52.094  1.00  0.00     0.129 A 
HETATM   11  C9  UNL     1      21.744   1.936  51.303  1.00  0.00     0.202 A 
HETATM   12  N2  UNL     1      21.973   2.608  50.137  1.00  0.00    -0.215 NA
HETATM   13  C10 UNL     1      23.262   2.908  49.844  1.00  0.00     0.238 A 
HETATM   14  N3  UNL     1      24.282   2.580  50.627  1.00  0.00    -0.222 NA
HETATM   15  C11 UNL     1      24.145   1.917  51.792  1.00  0.00     0.163 A 
HETATM   16  O1  UNL     1      20.385   1.657  51.548  1.00  0.00    -0.289 OA
HETATM   17  H6  UNL     1      23.584   1.269  53.975  1.00  0.00     0.160 HD
ENDROOT
BRANCH  15  18
HETATM   18  N4  UNL     1      25.276   1.573  52.580  1.00  0.00    -0.312 N 
HETATM   19  C12 UNL     1      25.917   0.324  52.232  1.00  0.00     0.111 C 
HETATM   20  C13 UNL     1      26.421  -0.502  53.171  1.00  0.00     0.032 C 
HETATM   21 BR1  UNL     1      27.262  -2.150  52.631  1.00  0.00    -0.052 Br
HETATM   22  C14 UNL     1      26.228   0.029  54.556  1.00  0.00     0.319 C 
HETATM   23  N5  UNL     1      26.664   1.405  54.529  1.00  0.00     0.105 N 
HETATM   24  C15 UNL     1      25.903   2.269  53.686  1.00  0.00     0.401 C 
HETATM   25  H11 UNL     1      27.668   1.381  54.232  1.00  0.00     0.318 HD
ENDBRANCH  15  18
TORSDOF 1
ENDMDL
MODEL 3
REMARK VINA RESULT:      -8.1      2.324      3.784
REMARK  1 active torsions:
REMARK  status: ('A' for Active; 'I' for Inactive)
REMARK    1  A    between atoms: C11_15  and  N4_16 
ROOT
HETATM    1  F1  UNL     1      19.168   3.157  49.933  1.00  0.00    -0.206 F 
HETATM    2  C1  UNL     1      19.754   2.194  50.710  1.00  0.00     0.117 A 
HETATM    3  C2  UNL     1      18.956   1.296  51.389  1.00  0.00     0.045 A 
HETATM    4  C3  UNL     1      19.562   0.326  52.172  1.00  0.00     0.041 A 
HETATM    5  C4  UNL     1      20.921   0.233  52.294  1.00  0.00     0.086 A 
HETATM    6  C5  UNL     1      21.737   1.123  51.623  1.00  0.00    -0.004 A 
HETATM    7  C6  UNL     1      21.143   2.107  50.827  1.00  0.00     0.054 A 
HETATM    8  C7  UNL     1      23.175   1.364  51.486  1.00  0.00     0.161 C 
HETATM    9  N1  UNL     1      24.010   0.530  52.300  1.00  0.00    -0.379 N 
HETATM   10  C8  UNL     1      23.752  -0.219  53.490  1.00  0.00     0.129 A 
HETATM   11  C9  UNL     1      22.544  -0.810  53.832  1.00  0.00     0.202 A 
HETATM   12  N2  UNL     1      22.481  -1.507  55.004  1.00  0.00    -0.215 NA
HETATM   13  C10 UNL     1      23.615  -1.566  55.745  1.00  0.00     0.238 A 
HETATM   14  N3  UNL     1      24.752  -0.985  55.383  1.00  0.00    -0.222 NA
HETATM   15  C11 UNL     1      24.900  -0.278  54.245  1.00  0.00     0.163 A 
HETATM   16  O1  UNL     1      21.334  -0.788  53.111  1.00  0.00    -0.289 OA
HETATM   17  H6  UNL     1      25.026   0.406  52.006  1.00  0.00     0.160 HD
ENDROOT
BRANCH  15  18
HETATM   18  N4  UNL     1      26.136   0.341  53.920  1.00  0.00    -0.312 N 
HETATM   19  C12 UNL     1      27.200  -0.561  53.536  1.00  0.00     0.111 C 
HETATM   20  C13 UNL     1      28.479  -0.347  53.905  1.00  0.00     0.032 C 
HETATM   21 BR1  UNL     1      29.843  -1.593  53.355  1.00  0.00    -0.052 Br
HETATM   22  C14 UNL     1      28.634   0.891  54.729  1.00  0.00     0.319 C 
HETATM   23  N5  UNL     1      27.924   1.937  54.029  1.00  0.00     0.105 N 
HETATM   24  C15 UNL     1      26.516   1.740  53.907  1.00  0.00     0.401 C 
HETATM   25  H11 UNL     1      28.376   2.008  53.087  1.00  0.00     0.318 HD
ENDBRANCH  15  18
TORSDOF 1
ENDMDL
MODEL 4
REMARK VINA RESULT:      -7.9      2.566      4.465
REMARK  1 active torsions:
REMARK  status: ('A' for Active; 'I' for Inactive)
REMARK    1  A    between atoms: C11_15  and  N4_16 
ROOT
HETATM    1  F1  UNL     1      19.071  -0.602  53.831  1.00  0.00    -0.206 F 
HETATM    2  C1  UNL     1      20.424  -0.525  53.639  1.00  0.00     0.117 A 
HETATM    3  C2  UNL     1      21.266  -1.236  54.471  1.00  0.00     0.045 A 
HETATM    4  C3  UNL     1      22.634  -1.149  54.266  1.00  0.00     0.041 A 
HETATM    5  C4  UNL     1      23.175  -0.383  53.272  1.00  0.00     0.086 A 
HETATM    6  C5  UNL     1      22.350   0.337  52.429  1.00  0.00    -0.004 A 
HETATM    7  C6  UNL     1      20.966   0.261  52.620  1.00  0.00     0.054 A 
HETATM    8  C7  UNL     1      22.509   1.243  51.290  1.00  0.00     0.161 C 
HETATM    9  N1  UNL     1      23.866   1.564  50.955  1.00  0.00    -0.379 N 
HETATM   10  C8  UNL     1      25.080   1.509  51.708  1.00  0.00     0.129 A 
HETATM   11  C9  UNL     1      25.368   0.603  52.720  1.00  0.00     0.202 A 
HETATM   12  N2  UNL     1      26.590   0.683  53.321  1.00  0.00    -0.215 NA
HETATM   13  C10 UNL     1      27.431   1.650  52.879  1.00  0.00     0.238 A 
HETATM   14  N3  UNL     1      27.116   2.499  51.909  1.00  0.00    -0.222 NA
HETATM   15  C11 UNL     1      25.934   2.490  51.263  1.00  0.00     0.163 A 
HETATM   16  O1  UNL     1      24.545  -0.422  53.225  1.00  0.00    -0.289 OA
HETATM   17  H6  UNL     1      24.066   1.912  49.969  1.00  0.00     0.160 HD
ENDROOT
BRANCH  15  18
HETATM   18  N4  UNL     1      25.644   3.439  50.246  1.00  0.00    -0.312 N 
HETATM   19  C12 UNL     1      26.791   3.949  49.528  1.00  0.00     0.111 C 
HETATM   20  C13 UNL     1      26.871   5.238  49.140  1.00  0.00     0.032 C 
HETATM   21 BR1  UNL     1      28.431   5.845  48.187  1.00  0.00    -0.052 Br
HETATM   22  C14 UNL     1      25.666   6.028  49.542  1.00  0.00     0.319 C 
HETATM   23  N5  UNL     1      24.517   5.248  49.144  1.00  0.00     0.105 N 
HETATM   24  C15 UNL     1      24.378   3.989  49.802  1.00  0.00     0.401 C 
HETATM   25  H11 UNL     1      24.602   5.122  48.108  1.00  0.00     0.318 HD
ENDBRANCH  15  18
TORSDOF 1
ENDMDL
MODEL 5
REMARK VINA RESULT:      -7.8      3.617      5.133
REMARK  1 active torsions:
REMARK  status: ('A' for Active; 'I' for Inactive)
REMARK    1  A    between atoms: C11_15  and  N4_16 
ROOT
HETATM    1  F1  UNL     1      24.723  -1.520  54.952  1.00  0.00    -0.206 F 
HETATM    2  C1  UNL     1      24.146  -0.602  54.117  1.00  0.00     0.117 A 
HETATM    3  C2  UNL     1      22.839  -0.785  53.712  1.00  0.00     0.045 A 
HETATM    4  C3  UNL     1      22.267   0.152  52.866  1.00  0.00     0.041 A 
HETATM    5  C4  UNL     1      22.953   1.248  52.421  1.00  0.00     0.086 A 
HETATM    6  C5  UNL     1      24.262   1.449  52.815  1.00  0.00    -0.004 A 
HETATM    7  C6  UNL     1      24.856   0.514  53.669  1.00  0.00     0.054 A 
HETATM    8  C7  UNL     1      25.310   2.443  52.580  1.00  0.00     0.161 C 
HETATM    9  N1  UNL     1      24.971   3.472  51.640  1.00  0.00    -0.379 N 
HETATM   10  C8  UNL     1      23.995   3.538  50.598  1.00  0.00     0.129 A 
HETATM   11  C9  UNL     1      22.761   2.901  50.601  1.00  0.00     0.202 A 
HETATM   12  N2  UNL     1      21.941   3.091  49.526  1.00  0.00    -0.215 NA
HETATM   13  C10 UNL     1      22.403   3.893  48.535  1.00  0.00     0.238 A 
HETATM   14  N3  UNL     1      23.592   4.482  48.570  1.00  0.00    -0.222 NA
HETATM   15  C11 UNL     1      24.461   4.348  49.591  1.00  0.00     0.163 A 
HETATM   16  O1  UNL     1      22.222   2.061  51.593  1.00  0.00    -0.289 OA
HETATM   17  H6  UNL     1      25.518   4.385  51.684  1.00  0.00     0.160 HD
ENDROOT
BRANCH  15  18
HETATM   18  N4  UNL     1      25.731   4.986  49.564  1.00  0.00    -0.312 N 
HETATM   19  C12 UNL     1      25.731   6.382  49.944  1.00  0.00     0.111 C 
HETATM   20  C13 UNL     1      26.520   7.285  49.328  1.00  0.00     0.032 C 
HETATM   21 BR1  UNL     1      26.467   9.128  49.890  1.00  0.00    -0.052 Br
HETATM   22  C14 UNL     1      27.351   6.670  48.247  1.00  0.00     0.319 C 
HETATM   23  N5  UNL     1      27.954   5.489  48.819  1.00  0.00     0.105 N 
HETATM   24  C15 UNL     1      27.040   4.470  49.217  1.00  0.00     0.401 C 
HETATM   25  H11 UNL     1      28.520   5.825  49.634  1.00  0.00     0.318 HD
ENDBRANCH  15  18
TORSDOF 1
ENDMDL
MODEL 6
REMARK VINA RESULT:      -7.7      3.863      6.414
REMARK  1 active torsions:
REMARK  status: ('A' for Active; 'I' for Inactive)
REMARK    1  A    between atoms: C11_15  and  N4_16 
ROOT
HETATM    1  F1  UNL     1      30.917   0.184  53.310  1.00  0.00    -0.206 F 
HETATM    2  C1  UNL     1      29.557   0.082  53.433  1.00  0.00     0.117 A 
HETATM    3  C2  UNL     1      28.992  -1.152  53.685  1.00  0.00     0.045 A 
HETATM    4  C3  UNL     1      27.615  -1.241  53.807  1.00  0.00     0.041 A 
HETATM    5  C4  UNL     1      26.800  -0.151  53.685  1.00  0.00     0.086 A 
HETATM    6  C5  UNL     1      27.346   1.093  53.432  1.00  0.00    -0.004 A 
HETATM    7  C6  UNL     1      28.734   1.203  53.307  1.00  0.00     0.054 A 
HETATM    8  C7  UNL     1      26.854   2.459  53.237  1.00  0.00     0.161 C 
HETATM    9  N1  UNL     1      25.427   2.594  53.222  1.00  0.00    -0.379 N 
HETATM   10  C8  UNL     1      24.376   1.658  52.974  1.00  0.00     0.129 A 
HETATM   11  C9  UNL     1      24.411   0.301  53.265  1.00  0.00     0.202 A 
HETATM   12  N2  UNL     1      23.305  -0.444  52.976  1.00  0.00    -0.215 NA
HETATM   13  C10 UNL     1      22.252   0.207  52.425  1.00  0.00     0.238 A 
HETATM   14  N3  UNL     1      22.259   1.508  52.159  1.00  0.00    -0.222 NA
HETATM   15  C11 UNL     1      23.308   2.315  52.411  1.00  0.00     0.163 A 
HETATM   16  O1  UNL     1      25.467  -0.435  53.836  1.00  0.00    -0.289 OA
HETATM   17  H6  UNL     1      25.017   3.554  53.433  1.00  0.00     0.160 HD
ENDROOT
BRANCH  15  18
HETATM   18  N4  UNL     1      23.266   3.698  52.086  1.00  0.00    -0.312 N 
HETATM   19  C12 UNL     1      22.978   4.001  50.701  1.00  0.00     0.111 C 
HETATM   20  C13 UNL     1      23.581   5.021  50.057  1.00  0.00     0.032 C 
HETATM   21 BR1  UNL     1      23.146   5.364  48.212  1.00  0.00    -0.052 Br
HETATM   22  C14 UNL     1      24.545   5.755  50.934  1.00  0.00     0.319 C 
HETATM   23  N5  UNL     1      23.848   6.023  52.170  1.00  0.00     0.105 N 
HETATM   24  C15 UNL     1      23.466   4.869  52.916  1.00  0.00     0.401 C 
HETATM   25  H11 UNL     1      23.011   6.595  51.908  1.00  0.00     0.318 HD
ENDBRANCH  15  18
TORSDOF 1
ENDMDL
MODEL 7
REMARK VINA RESULT:      -7.7      4.020      6.470
REMARK  1 active torsions:
REMARK  status: ('A' for Active; 'I' for Inactive)
REMARK    1  A    between atoms: C11_15  and  N4_16 
ROOT
HETATM    1  F1  UNL     1      29.640   6.435  47.342  1.00  0.00    -0.206 F 
HETATM    2  C1  UNL     1      28.396   6.228  47.875  1.00  0.00     0.117 A 
HETATM    3  C2  UNL     1      27.427   7.201  47.727  1.00  0.00     0.045 A 
HETATM    4  C3  UNL     1      26.172   6.979  48.271  1.00  0.00     0.041 A 
HETATM    5  C4  UNL     1      25.864   5.832  48.949  1.00  0.00     0.086 A 
HETATM    6  C5  UNL     1      26.819   4.847  49.107  1.00  0.00    -0.004 A 
HETATM    7  C6  UNL     1      28.091   5.053  48.564  1.00  0.00     0.054 A 
HETATM    8  C7  UNL     1      26.902   3.527  49.737  1.00  0.00     0.161 C 
HETATM    9  N1  UNL     1      25.731   3.124  50.460  1.00  0.00    -0.379 N 
HETATM   10  C8  UNL     1      24.649   3.867  51.026  1.00  0.00     0.129 A 
HETATM   11  C9  UNL     1      24.140   5.061  50.535  1.00  0.00     0.202 A 
HETATM   12  N2  UNL     1      23.086   5.626  51.194  1.00  0.00    -0.215 NA
HETATM   13  C10 UNL     1      22.619   4.968  52.283  1.00  0.00     0.238 A 
HETATM   14  N3  UNL     1      23.136   3.828  52.722  1.00  0.00    -0.222 NA
HETATM   15  C11 UNL     1      24.176   3.204  52.133  1.00  0.00     0.163 A 
HETATM   16  O1  UNL     1      24.574   5.793  49.414  1.00  0.00    -0.289 OA
HETATM   17  H6  UNL     1      25.588   2.084  50.634  1.00  0.00     0.160 HD
ENDROOT
BRANCH  15  18
HETATM   18  N4  UNL     1      24.702   1.994  52.660  1.00  0.00    -0.312 N 
HETATM   19  C12 UNL     1      26.000   2.106  53.289  1.00  0.00     0.111 C 
HETATM   20  C13 UNL     1      26.934   1.140  53.166  1.00  0.00     0.032 C 
HETATM   21 BR1  UNL     1      28.641   1.358  54.033  1.00  0.00    -0.052 Br
HETATM   22  C14 UNL     1      26.462  -0.003  52.325  1.00  0.00     0.319 C 
HETATM   23  N5  UNL     1      25.151  -0.357  52.818  1.00  0.00     0.105 N 
HETATM   24  C15 UNL     1      24.154   0.653  52.674  1.00  0.00     0.401 C 
HETATM   25  H11 UNL     1      25.284  -0.612  53.824  1.00  0.00     0.318 HD
ENDBRANCH  15  18
TORSDOF 1
ENDMDL
MODEL 8
REMARK VINA RESULT:      -7.7      3.874      5.957
REMARK  1 active torsions:
REMARK  status: ('A' for Active; 'I' for Inactive)
REMARK    1  A    between atoms: C11_15  and  N4_16 
ROOT
HETATM    1  F1  UNL     1      27.562   0.215  55.150  1.00  0.00    -0.206 F 
HETATM    2  C1  UNL     1      26.410   0.345  54.423  1.00  0.00     0.117 A 
HETATM    3  C2  UNL     1      25.698  -0.786  54.076  1.00  0.00     0.045 A 
HETATM    4  C3  UNL     1      24.533  -0.641  53.340  1.00  0.00     0.041 A 
HETATM    5  C4  UNL     1      24.069   0.583  52.945  1.00  0.00     0.086 A 
HETATM    6  C5  UNL     1      24.766   1.727  53.281  1.00  0.00    -0.004 A 
HETATM    7  C6  UNL     1      25.944   1.600  54.025  1.00  0.00     0.054 A 
HETATM    8  C7  UNL     1      24.625   3.169  53.068  1.00  0.00     0.161 C 
HETATM    9  N1  UNL     1      23.526   3.554  52.232  1.00  0.00    -0.379 N 
HETATM   10  C8  UNL     1      22.767   2.840  51.254  1.00  0.00     0.129 A 
HETATM   11  C9  UNL     1      22.492   1.480  51.274  1.00  0.00     0.202 A 
HETATM   12  N2  UNL     1      21.731   0.966  50.264  1.00  0.00    -0.215 NA
HETATM   13  C10 UNL     1      21.302   1.834  49.315  1.00  0.00     0.238 A 
HETATM   14  N3  UNL     1      21.589   3.130  49.331  1.00  0.00    -0.222 NA
HETATM   15  C11 UNL     1      22.332   3.718  50.289  1.00  0.00     0.163 A 
HETATM   16  O1  UNL     1      22.903   0.527  52.225  1.00  0.00    -0.289 OA
HETATM   17  H6  UNL     1      23.163   4.552  52.317  1.00  0.00     0.160 HD
ENDROOT
BRANCH  15  18
HETATM   18  N4  UNL     1      22.626   5.107  50.243  1.00  0.00    -0.312 N 
HETATM   19  C12 UNL     1      23.772   5.473  49.440  1.00  0.00     0.111 C 
HETATM   20  C13 UNL     1      24.618   6.454  49.815  1.00  0.00     0.032 C 
HETATM   21 BR1  UNL     1      26.124   6.886  48.692  1.00  0.00    -0.052 Br
HETATM   22  C14 UNL     1      24.224   7.077  51.116  1.00  0.00     0.319 C 
HETATM   23  N5  UNL     1      22.813   7.370  51.017  1.00  0.00     0.105 N 
HETATM   24  C15 UNL     1      21.964   6.233  50.872  1.00  0.00     0.401 C 
HETATM   25  H11 UNL     1      22.713   8.019  50.201  1.00  0.00     0.318 HD
ENDBRANCH  15  18
TORSDOF 1
ENDMDL
MODEL 9
REMARK VINA RESULT:      -7.6      3.808      6.617
REMARK  1 active torsions:
REMARK  status: ('A' for Active; 'I' for Inactive)
REMARK    1  A    between atoms: C11_15  and  N4_16 
ROOT
HETATM    1  F1  UNL     1      29.593  -0.837  54.594  1.00  0.00    -0.206 F 
HETATM    2  C1  UNL     1      28.649  -0.039  54.005  1.00  0.00     0.117 A 
HETATM    3  C2  UNL     1      28.972   1.265  53.684  1.00  0.00     0.045 A 
HETATM    4  C3  UNL     1      28.007   2.062  53.089  1.00  0.00     0.041 A 
HETATM    5  C4  UNL     1      26.750   1.601  52.813  1.00  0.00     0.086 A 
HETATM    6  C5  UNL     1      26.407   0.301  53.127  1.00  0.00    -0.004 A 
HETATM    7  C6  UNL     1      27.369  -0.519  53.727  1.00  0.00     0.054 A 
HETATM    8  C7  UNL     1      25.224  -0.554  53.008  1.00  0.00     0.161 C 
HETATM    9  N1  UNL     1      24.052   0.099  52.502  1.00  0.00    -0.379 N 
HETATM   10  C8  UNL     1      23.667   1.474  52.446  1.00  0.00     0.129 A 
HETATM   11  C9  UNL     1      24.530   2.554  52.314  1.00  0.00     0.202 A 
HETATM   12  N2  UNL     1      23.985   3.804  52.257  1.00  0.00    -0.215 NA
HETATM   13  C10 UNL     1      22.635   3.890  52.336  1.00  0.00     0.238 A 
HETATM   14  N3  UNL     1      21.844   2.832  52.465  1.00  0.00    -0.222 NA
HETATM   15  C11 UNL     1      22.298   1.565  52.529  1.00  0.00     0.163 A 
HETATM   16  O1  UNL     1      25.935   2.535  52.225  1.00  0.00    -0.289 OA
HETATM   17  H6  UNL     1      23.291  -0.509  52.072  1.00  0.00     0.160 HD
ENDROOT
BRANCH  15  18
HETATM   18  N4  UNL     1      21.406   0.471  52.690  1.00  0.00    -0.312 N 
HETATM   19  C12 UNL     1      20.368   0.366  51.687  1.00  0.00     0.111 C 
HETATM   20  C13 UNL     1      19.116  -0.024  52.000  1.00  0.00     0.032 C 
HETATM   21 BR1  UNL     1      17.786  -0.142  50.610  1.00  0.00    -0.052 Br
HETATM   22  C14 UNL     1      18.958  -0.314  53.459  1.00  0.00     0.319 C 
HETATM   23  N5  UNL     1      20.067  -1.162  53.827  1.00  0.00     0.105 N 
HETATM   24  C15 UNL     1      21.358  -0.568  53.699  1.00  0.00     0.401 C 
HETATM   25  H11 UNL     1      19.986  -2.016  53.226  1.00  0.00     0.318 HD
ENDBRANCH  15  18
TORSDOF 1
ENDMDL
