MODEL 1
REMARK VINA RESULT:      -9.1      0.000      0.000
REMARK  5 active torsions:
REMARK  status: ('A' for Active; 'I' for Inactive)
REMARK    1  A    between atoms: O1_2  and  C2_3 
REMARK    2  A    between atoms: C5_6  and  C6_7 
REMARK    3  A    between atoms: C7_10  and  N3_11 
REMARK    4  A    between atoms: C7_10  and  C8_12 
REMARK    5  A    between atoms: C14_18  and  C15_19 
ROOT
HETATM    1  C6  UNL     1      24.459   3.068  51.271  1.00  0.00     0.061 C 
HETATM    2  N1  UNL     1      24.008   3.282  52.473  1.00  0.00    -0.199 NA
HETATM    3  N2  UNL     1      23.233   2.237  52.939  1.00  0.00    -0.144 NA
HETATM    4  C7  UNL     1      22.800   0.803  53.062  1.00  0.00     0.284 A 
HETATM    5  C14 UNL     1      23.902   1.056  52.221  1.00  0.00     0.125 A 
HETATM    6  C21 UNL     1      23.921   1.712  50.859  1.00  0.00     0.098 C 
ENDROOT
BRANCH   4   7
HETATM    7  N3  UNL     1      23.154   0.354  54.433  1.00  0.00     0.111 N 
HETATM    8  H6  UNL     1      22.447   0.642  55.120  1.00  0.00     0.316 HD
HETATM    9  H7  UNL     1      23.338  -0.662  54.362  1.00  0.00     0.316 HD
ENDBRANCH   4   7
BRANCH   4  10
HETATM   10  C8  UNL     1      21.435   0.435  52.711  1.00  0.00    -0.001 A 
HETATM   11  C9  UNL     1      20.689  -0.312  53.634  1.00  0.00     0.011 A 
HETATM   12  C10 UNL     1      19.396  -0.746  53.444  1.00  0.00     0.001 A 
HETATM   13  C11 UNL     1      18.767  -0.432  52.257  1.00  0.00     0.000 A 
HETATM   14  C12 UNL     1      19.429   0.298  51.294  1.00  0.00     0.001 A 
HETATM   15  C13 UNL     1      20.719   0.692  51.564  1.00  0.00     0.011 A 
ENDBRANCH   4  10
BRANCH   5  16
HETATM   16  C15 UNL     1      25.265   0.789  52.736  1.00  0.00    -0.029 A 
HETATM   17  C16 UNL     1      25.761  -0.340  52.081  1.00  0.00     0.011 A 
HETATM   18  C17 UNL     1      27.022  -0.858  52.342  1.00  0.00     0.019 A 
HETATM   19  C18 UNL     1      27.838  -0.239  53.292  1.00  0.00     0.011 A 
HETATM   20 BR1  UNL     1      29.590  -0.820  53.767  1.00  0.00    -0.051 Br
HETATM   21  C19 UNL     1      27.331   0.868  53.924  1.00  0.00     0.019 A 
HETATM   22  C20 UNL     1      26.092   1.376  53.667  1.00  0.00     0.011 A 
ENDBRANCH   5  16
BRANCH   1  23
HETATM   23  C5  UNL     1      25.298   3.919  50.447  1.00  0.00    -0.010 A 
HETATM   24  C4  UNL     1      26.402   3.461  49.786  1.00  0.00     0.016 A 
HETATM   25  C3  UNL     1      27.156   4.345  49.014  1.00  0.00     0.037 A 
HETATM   26  C2  UNL     1      26.796   5.676  48.914  1.00  0.00     0.068 A 
HETATM   27  C23 UNL     1      25.684   6.130  49.583  1.00  0.00     0.037 A 
HETATM   28  C22 UNL     1      24.944   5.249  50.343  1.00  0.00     0.016 A 
BRANCH  26  29
HETATM   29  O1  UNL     1      27.616   6.446  48.126  1.00  0.00    -0.356 OA
HETATM   30  C1  UNL     1      29.008   6.354  48.064  1.00  0.00     0.210 C 
ENDBRANCH  26  29
ENDBRANCH   1  23
TORSDOF 5
ENDMDL
MODEL 2
REMARK VINA RESULT:      -8.9      3.521      7.503
REMARK  5 active torsions:
REMARK  status: ('A' for Active; 'I' for Inactive)
REMARK    1  A    between atoms: O1_2  and  C2_3 
REMARK    2  A    between atoms: C5_6  and  C6_7 
REMARK    3  A    between atoms: C7_10  and  N3_11 
REMARK    4  A    between atoms: C7_10  and  C8_12 
REMARK    5  A    between atoms: C14_18  and  C15_19 
ROOT
HETATM    1  C6  UNL     1      23.250   0.432  53.094  1.00  0.00     0.061 C 
HETATM    2  N1  UNL     1      23.813   0.851  54.190  1.00  0.00    -0.199 NA
HETATM    3  N2  UNL     1      25.183   0.985  54.061  1.00  0.00    -0.144 NA
HETATM    4  C7  UNL     1      26.469   1.252  53.332  1.00  0.00     0.284 A 
HETATM    5  C14 UNL     1      25.285   1.356  52.574  1.00  0.00     0.125 A 
HETATM    6  C21 UNL     1      24.373   0.251  52.091  1.00  0.00     0.098 C 
ENDROOT
BRANCH   4   7
HETATM    7  N3  UNL     1      26.999   2.545  53.836  1.00  0.00     0.111 N 
HETATM    8  H6  UNL     1      26.369   2.968  54.528  1.00  0.00     0.316 HD
HETATM    9  H7  UNL     1      27.966   2.354  54.152  1.00  0.00     0.316 HD
ENDBRANCH   4   7
BRANCH   4  10
HETATM   10  C8  UNL     1      27.500   0.225  53.298  1.00  0.00    -0.001 A 
HETATM   11  C9  UNL     1      28.823   0.599  53.576  1.00  0.00     0.011 A 
HETATM   12  C10 UNL     1      29.906  -0.251  53.572  1.00  0.00     0.001 A 
HETATM   13  C11 UNL     1      29.696  -1.580  53.272  1.00  0.00     0.000 A 
HETATM   14  C12 UNL     1      28.426  -2.033  52.985  1.00  0.00     0.001 A 
HETATM   15  C13 UNL     1      27.400  -1.118  53.011  1.00  0.00     0.011 A 
ENDBRANCH   4  10
BRANCH   5  16
HETATM   16  C15 UNL     1      24.735   2.702  52.296  1.00  0.00    -0.029 A 
HETATM   17  C16 UNL     1      25.047   3.031  50.976  1.00  0.00     0.011 A 
HETATM   18  C17 UNL     1      24.673   4.239  50.401  1.00  0.00     0.019 A 
HETATM   19  C18 UNL     1      23.959   5.170  51.158  1.00  0.00     0.011 A 
HETATM   20 BR1  UNL     1      23.372   6.869  50.524  1.00  0.00    -0.051 Br
HETATM   21  C19 UNL     1      23.663   4.827  52.453  1.00  0.00     0.019 A 
HETATM   22  C20 UNL     1      24.031   3.641  53.017  1.00  0.00     0.011 A 
ENDBRANCH   5  16
BRANCH   1  23
HETATM   23  C5  UNL     1      21.846   0.171  52.832  1.00  0.00    -0.010 A 
HETATM   24  C4  UNL     1      21.024  -0.449  53.729  1.00  0.00     0.016 A 
HETATM   25  C3  UNL     1      19.686  -0.663  53.399  1.00  0.00     0.037 A 
HETATM   26  C2  UNL     1      19.188  -0.255  52.176  1.00  0.00     0.068 A 
HETATM   27  C23 UNL     1      20.022   0.368  51.278  1.00  0.00     0.037 A 
HETATM   28  C22 UNL     1      21.343   0.576  51.612  1.00  0.00     0.016 A 
BRANCH  26  29
HETATM   29  O1  UNL     1      17.857  -0.520  51.968  1.00  0.00    -0.356 OA
HETATM   30  C1  UNL     1      17.053  -1.335  52.769  1.00  0.00     0.210 C 
ENDBRANCH  26  29
ENDBRANCH   1  23
TORSDOF 5
ENDMDL
MODEL 3
REMARK VINA RESULT:      -8.6      6.213     11.061
REMARK  5 active torsions:
REMARK  status: ('A' for Active; 'I' for Inactive)
REMARK    1  A    between atoms: O1_2  and  C2_3 
REMARK    2  A    between atoms: C5_6  and  C6_7 
REMARK    3  A    between atoms: C7_10  and  N3_11 
REMARK    4  A    between atoms: C7_10  and  C8_12 
REMARK    5  A    between atoms: C14_18  and  C15_19 
ROOT
HETATM    1  C6  UNL     1      29.660   5.791  48.317  1.00  0.00     0.061 C 
HETATM    2  N1  UNL     1      30.589   5.612  49.213  1.00  0.00    -0.199 NA
HETATM    3  N2  UNL     1      31.860   5.740  48.685  1.00  0.00    -0.144 NA
HETATM    4  C7  UNL     1      32.905   6.276  47.748  1.00  0.00     0.284 A 
HETATM    5  C14 UNL     1      31.598   6.774  47.580  1.00  0.00     0.125 A 
HETATM    6  C21 UNL     1      30.385   6.070  47.015  1.00  0.00     0.098 C 
ENDROOT
BRANCH   4   7
HETATM    7  N3  UNL     1      33.804   7.148  48.547  1.00  0.00     0.111 N 
HETATM    8  H6  UNL     1      33.494   8.127  48.531  1.00  0.00     0.316 HD
HETATM    9  H7  UNL     1      33.879   6.705  49.479  1.00  0.00     0.316 HD
ENDBRANCH   4   7
BRANCH   4  10
HETATM   10  C8  UNL     1      33.658   5.352  46.911  1.00  0.00    -0.001 A 
HETATM   11  C9  UNL     1      34.291   4.262  47.524  1.00  0.00     0.011 A 
HETATM   12  C10 UNL     1      35.046   3.313  46.872  1.00  0.00     0.001 A 
HETATM   13  C11 UNL     1      35.206   3.426  45.506  1.00  0.00     0.000 A 
HETATM   14  C12 UNL     1      34.618   4.470  44.824  1.00  0.00     0.001 A 
HETATM   15  C13 UNL     1      33.880   5.374  45.553  1.00  0.00     0.011 A 
ENDBRANCH   4  10
BRANCH   5  16
HETATM   16  C15 UNL     1      31.269   8.108  48.131  1.00  0.00    -0.029 A 
HETATM   17  C16 UNL     1      30.951   8.949  47.063  1.00  0.00     0.011 A 
HETATM   18  C17 UNL     1      30.597  10.280  47.242  1.00  0.00     0.019 A 
HETATM   19  C18 UNL     1      30.554  10.813  48.533  1.00  0.00     0.011 A 
HETATM   20 BR1  UNL     1      30.090  12.613  48.952  1.00  0.00    -0.051 Br
HETATM   21  C19 UNL     1      30.871   9.969  49.567  1.00  0.00     0.019 A 
HETATM   22  C20 UNL     1      31.218   8.663  49.390  1.00  0.00     0.011 A 
ENDBRANCH   5  16
BRANCH   1  23
HETATM   23  C5  UNL     1      28.218   5.739  48.477  1.00  0.00    -0.010 A 
HETATM   24  C4  UNL     1      27.556   4.625  48.906  1.00  0.00     0.016 A 
HETATM   25  C3  UNL     1      26.167   4.658  49.032  1.00  0.00     0.037 A 
HETATM   26  C2  UNL     1      25.459   5.805  48.727  1.00  0.00     0.068 A 
HETATM   27  C23 UNL     1      26.133   6.923  48.294  1.00  0.00     0.037 A 
HETATM   28  C22 UNL     1      27.506   6.881  48.173  1.00  0.00     0.016 A 
BRANCH  26  29
HETATM   29  O1  UNL     1      24.099   5.715  48.890  1.00  0.00    -0.356 OA
HETATM   30  C1  UNL     1      23.307   4.616  48.546  1.00  0.00     0.210 C 
ENDBRANCH  26  29
ENDBRANCH   1  23
TORSDOF 5
ENDMDL
MODEL 4
REMARK VINA RESULT:      -8.5      4.005      8.364
REMARK  5 active torsions:
REMARK  status: ('A' for Active; 'I' for Inactive)
REMARK    1  A    between atoms: O1_2  and  C2_3 
REMARK    2  A    between atoms: C5_6  and  C6_7 
REMARK    3  A    between atoms: C7_10  and  N3_11 
REMARK    4  A    between atoms: C7_10  and  C8_12 
REMARK    5  A    between atoms: C14_18  and  C15_19 
ROOT
HETATM    1  C6  UNL     1      24.308   3.084  51.041  1.00  0.00     0.061 C 
HETATM    2  N1  UNL     1      24.262   4.344  51.369  1.00  0.00    -0.199 NA
HETATM    3  N2  UNL     1      24.774   5.164  50.381  1.00  0.00    -0.144 NA
HETATM    4  C7  UNL     1      25.095   5.572  48.971  1.00  0.00     0.284 A 
HETATM    5  C14 UNL     1      24.410   4.351  49.130  1.00  0.00     0.125 A 
HETATM    6  C21 UNL     1      24.934   3.036  49.660  1.00  0.00     0.098 C 
ENDROOT
BRANCH   4   7
HETATM    7  N3  UNL     1      24.228   6.733  48.642  1.00  0.00     0.111 N 
HETATM    8  H6  UNL     1      23.236   6.469  48.615  1.00  0.00     0.316 HD
HETATM    9  H7  UNL     1      24.486   7.481  49.310  1.00  0.00     0.316 HD
ENDBRANCH   4   7
BRANCH   4  10
HETATM   10  C8  UNL     1      26.481   5.812  48.592  1.00  0.00    -0.001 A 
HETATM   11  C9  UNL     1      26.811   7.050  48.024  1.00  0.00     0.011 A 
HETATM   12  C10 UNL     1      28.069   7.421  47.604  1.00  0.00     0.001 A 
HETATM   13  C11 UNL     1      29.100   6.517  47.744  1.00  0.00     0.000 A 
HETATM   14  C12 UNL     1      28.863   5.275  48.294  1.00  0.00     0.001 A 
HETATM   15  C13 UNL     1      27.577   4.985  48.687  1.00  0.00     0.011 A 
ENDBRANCH   4  10
BRANCH   5  16
HETATM   16  C15 UNL     1      22.949   4.320  48.891  1.00  0.00    -0.029 A 
HETATM   17  C16 UNL     1      22.663   3.199  48.110  1.00  0.00     0.011 A 
HETATM   18  C17 UNL     1      21.373   2.881  47.705  1.00  0.00     0.019 A 
HETATM   19  C18 UNL     1      20.311   3.705  48.084  1.00  0.00     0.011 A 
HETATM   20 BR1  UNL     1      18.487   3.414  47.614  1.00  0.00    -0.051 Br
HETATM   21  C19 UNL     1      20.614   4.802  48.851  1.00  0.00     0.019 A 
HETATM   22  C20 UNL     1      21.881   5.112  49.248  1.00  0.00     0.011 A 
ENDBRANCH   5  16
BRANCH   1  23
HETATM   23  C5  UNL     1      23.872   1.927  51.801  1.00  0.00    -0.010 A 
HETATM   24  C4  UNL     1      24.668   1.288  52.708  1.00  0.00     0.016 A 
HETATM   25  C3  UNL     1      24.171   0.182  53.397  1.00  0.00     0.037 A 
HETATM   26  C2  UNL     1      22.885  -0.270  53.171  1.00  0.00     0.068 A 
HETATM   27  C23 UNL     1      22.090   0.379  52.256  1.00  0.00     0.037 A 
HETATM   28  C22 UNL     1      22.588   1.472  51.579  1.00  0.00     0.016 A 
BRANCH  26  29
HETATM   29  O1  UNL     1      22.511  -1.366  53.909  1.00  0.00    -0.356 OA
HETATM   30  C1  UNL     1      21.218  -1.640  54.364  1.00  0.00     0.210 C 
ENDBRANCH  26  29
ENDBRANCH   1  23
TORSDOF 5
ENDMDL
MODEL 5
REMARK VINA RESULT:      -8.4      3.374      6.057
REMARK  5 active torsions:
REMARK  status: ('A' for Active; 'I' for Inactive)
REMARK    1  A    between atoms: O1_2  and  C2_3 
REMARK    2  A    between atoms: C5_6  and  C6_7 
REMARK    3  A    between atoms: C7_10  and  N3_11 
REMARK    4  A    between atoms: C7_10  and  C8_12 
REMARK    5  A    between atoms: C14_18  and  C15_19 
ROOT
HETATM    1  C6  UNL     1      23.781   3.502  51.615  1.00  0.00     0.061 C 
HETATM    2  N1  UNL     1      24.329   2.590  50.864  1.00  0.00    -0.199 NA
HETATM    3  N2  UNL     1      25.023   1.649  51.601  1.00  0.00    -0.144 NA
HETATM    4  C7  UNL     1      25.316   0.795  52.802  1.00  0.00     0.284 A 
HETATM    5  C14 UNL     1      24.192   1.640  52.892  1.00  0.00     0.125 A 
HETATM    6  C21 UNL     1      24.151   3.144  53.041  1.00  0.00     0.098 C 
ENDROOT
BRANCH   4   7
HETATM    7  N3  UNL     1      25.009  -0.609  52.427  1.00  0.00     0.111 N 
HETATM    8  H6  UNL     1      24.430  -1.073  53.138  1.00  0.00     0.316 HD
HETATM    9  H7  UNL     1      24.618  -0.571  51.470  1.00  0.00     0.316 HD
ENDBRANCH   4   7
BRANCH   4  10
HETATM   10  C8  UNL     1      26.610   0.905  53.460  1.00  0.00    -0.001 A 
HETATM   11  C9  UNL     1      27.432   1.993  53.137  1.00  0.00     0.011 A 
HETATM   12  C10 UNL     1      28.683   2.227  53.662  1.00  0.00     0.001 A 
HETATM   13  C11 UNL     1      29.186   1.332  54.582  1.00  0.00     0.000 A 
HETATM   14  C12 UNL     1      28.444   0.232  54.957  1.00  0.00     0.001 A 
HETATM   15  C13 UNL     1      27.203   0.073  54.383  1.00  0.00     0.011 A 
ENDBRANCH   4  10
BRANCH   5  16
HETATM   16  C15 UNL     1      22.846   1.058  52.685  1.00  0.00    -0.029 A 
HETATM   17  C16 UNL     1      22.331   0.708  53.935  1.00  0.00     0.011 A 
HETATM   18  C17 UNL     1      21.079   0.129  54.089  1.00  0.00     0.019 A 
HETATM   19  C18 UNL     1      20.292  -0.119  52.961  1.00  0.00     0.011 A 
HETATM   20 BR1  UNL     1      18.556  -0.905  52.997  1.00  0.00    -0.051 Br
HETATM   21  C19 UNL     1      20.817   0.232  51.744  1.00  0.00     0.019 A 
HETATM   22  C20 UNL     1      22.047   0.800  51.594  1.00  0.00     0.011 A 
ENDBRANCH   5  16
BRANCH   1  23
HETATM   23  C5  UNL     1      22.980   4.647  51.222  1.00  0.00    -0.010 A 
HETATM   24  C4  UNL     1      23.469   5.921  51.187  1.00  0.00     0.016 A 
HETATM   25  C3  UNL     1      22.632   6.967  50.797  1.00  0.00     0.037 A 
HETATM   26  C2  UNL     1      21.317   6.724  50.447  1.00  0.00     0.068 A 
HETATM   27  C23 UNL     1      20.832   5.438  50.485  1.00  0.00     0.037 A 
HETATM   28  C22 UNL     1      21.667   4.410  50.871  1.00  0.00     0.016 A 
BRANCH  26  29
HETATM   29  O1  UNL     1      20.594   7.832  50.082  1.00  0.00    -0.356 OA
HETATM   30  C1  UNL     1      21.100   8.956  49.423  1.00  0.00     0.210 C 
ENDBRANCH  26  29
ENDBRANCH   1  23
TORSDOF 5
ENDMDL
MODEL 6
REMARK VINA RESULT:      -8.4      3.518      5.190
REMARK  5 active torsions:
REMARK  status: ('A' for Active; 'I' for Inactive)
REMARK    1  A    between atoms: O1_2  and  C2_3 
REMARK    2  A    between atoms: C5_6  and  C6_7 
REMARK    3  A    between atoms: C7_10  and  N3_11 
REMARK    4  A    between atoms: C7_10  and  C8_12 
REMARK    5  A    between atoms: C14_18  and  C15_19 
ROOT
HETATM    1  C6  UNL     1      24.395   3.510  50.139  1.00  0.00     0.061 C 
HETATM    2  N1  UNL     1      23.635   2.620  49.568  1.00  0.00    -0.199 NA
HETATM    3  N2  UNL     1      22.726   2.063  50.447  1.00  0.00    -0.144 NA
HETATM    4  C7  UNL     1      21.808   2.042  51.637  1.00  0.00     0.284 A 
HETATM    5  C14 UNL     1      22.490   3.251  51.391  1.00  0.00     0.125 A 
HETATM    6  C21 UNL     1      23.956   3.565  51.589  1.00  0.00     0.098 C 
ENDROOT
BRANCH   4   7
HETATM    7  N3  UNL     1      20.417   1.998  51.117  1.00  0.00     0.111 N 
HETATM    8  H6  UNL     1      19.885   2.834  51.387  1.00  0.00     0.316 HD
HETATM    9  H7  UNL     1      20.496   1.812  50.102  1.00  0.00     0.316 HD
ENDBRANCH   4   7
BRANCH   4  10
HETATM   10  C8  UNL     1      22.020   1.058  52.689  1.00  0.00    -0.001 A 
HETATM   11  C9  UNL     1      23.258   0.402  52.747  1.00  0.00     0.011 A 
HETATM   12  C10 UNL     1      23.605  -0.559  53.671  1.00  0.00     0.001 A 
HETATM   13  C11 UNL     1      22.674  -0.919  54.623  1.00  0.00     0.000 A 
HETATM   14  C12 UNL     1      21.431  -0.324  54.637  1.00  0.00     0.001 A 
HETATM   15  C13 UNL     1      21.166   0.627  53.678  1.00  0.00     0.011 A 
ENDBRANCH   4  10
BRANCH   5  16
HETATM   16  C15 UNL     1      21.762   4.356  50.727  1.00  0.00    -0.029 A 
HETATM   17  C16 UNL     1      22.082   5.543  51.389  1.00  0.00     0.011 A 
HETATM   18  C17 UNL     1      21.558   6.772  51.011  1.00  0.00     0.019 A 
HETATM   19  C18 UNL     1      20.675   6.840  49.930  1.00  0.00     0.011 A 
HETATM   20 BR1  UNL     1      19.867   8.441  49.285  1.00  0.00    -0.051 Br
HETATM   21  C19 UNL     1      20.373   5.662  49.295  1.00  0.00     0.019 A 
HETATM   22  C20 UNL     1      20.889   4.457  49.667  1.00  0.00     0.011 A 
ENDBRANCH   5  16
BRANCH   1  23
HETATM   23  C5  UNL     1      25.460   4.308  49.558  1.00  0.00    -0.010 A 
HETATM   24  C4  UNL     1      26.712   3.818  49.321  1.00  0.00     0.016 A 
HETATM   25  C3  UNL     1      27.679   4.652  48.759  1.00  0.00     0.037 A 
HETATM   26  C2  UNL     1      27.381   5.964  48.442  1.00  0.00     0.068 A 
HETATM   27  C23 UNL     1      26.117   6.449  48.684  1.00  0.00     0.037 A 
HETATM   28  C22 UNL     1      25.167   5.618  49.239  1.00  0.00     0.016 A 
BRANCH  26  29
HETATM   29  O1  UNL     1      28.414   6.684  47.895  1.00  0.00    -0.356 OA
HETATM   30  C1  UNL     1      29.765   6.551  48.225  1.00  0.00     0.210 C 
ENDBRANCH  26  29
ENDBRANCH   1  23
TORSDOF 5
ENDMDL
MODEL 7
REMARK VINA RESULT:      -8.4      3.850      5.935
REMARK  5 active torsions:
REMARK  status: ('A' for Active; 'I' for Inactive)
REMARK    1  A    between atoms: O1_2  and  C2_3 
REMARK    2  A    between atoms: C5_6  and  C6_7 
REMARK    3  A    between atoms: C7_10  and  N3_11 
REMARK    4  A    between atoms: C7_10  and  C8_12 
REMARK    5  A    between atoms: C14_18  and  C15_19 
ROOT
HETATM    1  C6  UNL     1      22.591   0.717  52.350  1.00  0.00     0.061 C 
HETATM    2  N1  UNL     1      22.320   0.210  51.181  1.00  0.00    -0.199 NA
HETATM    3  N2  UNL     1      20.973   0.275  50.878  1.00  0.00    -0.144 NA
HETATM    4  C7  UNL     1      19.589   0.858  50.914  1.00  0.00     0.284 A 
HETATM    5  C14 UNL     1      20.584   1.560  51.624  1.00  0.00     0.125 A 
HETATM    6  C21 UNL     1      21.264   1.181  52.919  1.00  0.00     0.098 C 
ENDROOT
BRANCH   4   7
HETATM    7  N3  UNL     1      19.301   1.390  49.557  1.00  0.00     0.111 N 
HETATM    8  H6  UNL     1      19.762   2.294  49.399  1.00  0.00     0.316 HD
HETATM    9  H7  UNL     1      19.541   0.630  48.896  1.00  0.00     0.316 HD
ENDBRANCH   4   7
BRANCH   4  10
HETATM   10  C8  UNL     1      18.486   0.054  51.421  1.00  0.00    -0.001 A 
HETATM   11  C9  UNL     1      17.328  -0.058  50.638  1.00  0.00     0.011 A 
HETATM   12  C10 UNL     1      16.201  -0.768  50.985  1.00  0.00     0.001 A 
HETATM   13  C11 UNL     1      16.188  -1.430  52.195  1.00  0.00     0.000 A 
HETATM   14  C12 UNL     1      17.285  -1.372  53.027  1.00  0.00     0.001 A 
HETATM   15  C13 UNL     1      18.371  -0.640  52.604  1.00  0.00     0.011 A 
ENDBRANCH   4  10
BRANCH   5  16
HETATM   16  C15 UNL     1      21.181   2.766  51.006  1.00  0.00    -0.029 A 
HETATM   17  C16 UNL     1      21.081   3.815  51.921  1.00  0.00     0.011 A 
HETATM   18  C17 UNL     1      21.548   5.093  51.645  1.00  0.00     0.019 A 
HETATM   19  C18 UNL     1      22.142   5.356  50.408  1.00  0.00     0.011 A 
HETATM   20 BR1  UNL     1      22.833   7.049  49.871  1.00  0.00    -0.051 Br
HETATM   21  C19 UNL     1      22.230   4.311  49.523  1.00  0.00     0.019 A 
HETATM   22  C20 UNL     1      21.770   3.057  49.796  1.00  0.00     0.011 A 
ENDBRANCH   5  16
BRANCH   1  23
HETATM   23  C5  UNL     1      23.874   0.834  53.018  1.00  0.00    -0.010 A 
HETATM   24  C4  UNL     1      24.611   1.983  53.020  1.00  0.00     0.016 A 
HETATM   25  C3  UNL     1      25.836   2.011  53.687  1.00  0.00     0.037 A 
HETATM   26  C2  UNL     1      26.307   0.890  54.343  1.00  0.00     0.068 A 
HETATM   27  C23 UNL     1      25.559  -0.264  54.336  1.00  0.00     0.037 A 
HETATM   28  C22 UNL     1      24.349  -0.283  53.675  1.00  0.00     0.016 A 
BRANCH  26  29
HETATM   29  O1  UNL     1      27.524   1.041  54.962  1.00  0.00    -0.356 OA
HETATM   30  C1  UNL     1      28.631   0.204  54.799  1.00  0.00     0.210 C 
ENDBRANCH  26  29
ENDBRANCH   1  23
TORSDOF 5
ENDMDL
MODEL 8
REMARK VINA RESULT:      -8.2      3.057      6.955
REMARK  5 active torsions:
REMARK  status: ('A' for Active; 'I' for Inactive)
REMARK    1  A    between atoms: O1_2  and  C2_3 
REMARK    2  A    between atoms: C5_6  and  C6_7 
REMARK    3  A    between atoms: C7_10  and  N3_11 
REMARK    4  A    between atoms: C7_10  and  C8_12 
REMARK    5  A    between atoms: C14_18  and  C15_19 
ROOT
HETATM    1  C6  UNL     1      22.768   1.923  51.619  1.00  0.00     0.061 C 
HETATM    2  N1  UNL     1      23.244   1.936  50.407  1.00  0.00    -0.199 NA
HETATM    3  N2  UNL     1      24.002   3.063  50.151  1.00  0.00    -0.144 NA
HETATM    4  C7  UNL     1      24.922   4.200  50.495  1.00  0.00     0.284 A 
HETATM    5  C14 UNL     1      24.578   3.332  51.550  1.00  0.00     0.125 A 
HETATM    6  C21 UNL     1      23.256   3.202  52.272  1.00  0.00     0.098 C 
ENDROOT
BRANCH   4   7
HETATM    7  N3  UNL     1      26.232   3.913  49.856  1.00  0.00     0.111 N 
HETATM    8  H6  UNL     1      26.367   2.906  49.705  1.00  0.00     0.316 HD
HETATM    9  H7  UNL     1      26.278   4.514  49.014  1.00  0.00     0.316 HD
ENDBRANCH   4   7
BRANCH   4  10
HETATM   10  C8  UNL     1      24.492   5.569  50.246  1.00  0.00    -0.001 A 
HETATM   11  C9  UNL     1      24.492   6.038  48.925  1.00  0.00     0.011 A 
HETATM   12  C10 UNL     1      24.127   7.307  48.533  1.00  0.00     0.001 A 
HETATM   13  C11 UNL     1      23.726   8.203  49.501  1.00  0.00     0.000 A 
HETATM   14  C12 UNL     1      23.698   7.825  50.827  1.00  0.00     0.001 A 
HETATM   15  C13 UNL     1      24.079   6.538  51.132  1.00  0.00     0.011 A 
ENDBRANCH   4  10
BRANCH   5  16
HETATM   16  C15 UNL     1      25.550   2.294  51.962  1.00  0.00    -0.029 A 
HETATM   17  C16 UNL     1      25.836   2.484  53.315  1.00  0.00     0.011 A 
HETATM   18  C17 UNL     1      26.722   1.672  54.011  1.00  0.00     0.019 A 
HETATM   19  C18 UNL     1      27.360   0.621  53.346  1.00  0.00     0.011 A 
HETATM   20 BR1  UNL     1      28.599  -0.582  54.150  1.00  0.00    -0.051 Br
HETATM   21  C19 UNL     1      27.065   0.453  52.017  1.00  0.00     0.019 A 
HETATM   22  C20 UNL     1      26.195   1.251  51.335  1.00  0.00     0.011 A 
ENDBRANCH   5  16
BRANCH   1  23
HETATM   23  C5  UNL     1      21.934   0.923  52.261  1.00  0.00    -0.010 A 
HETATM   24  C4  UNL     1      22.424  -0.007  53.133  1.00  0.00     0.016 A 
HETATM   25  C3  UNL     1      21.555  -0.935  53.706  1.00  0.00     0.037 A 
HETATM   26  C2  UNL     1      20.207  -0.920  53.400  1.00  0.00     0.068 A 
HETATM   27  C23 UNL     1      19.722   0.019  52.521  1.00  0.00     0.037 A 
HETATM   28  C22 UNL     1      20.588   0.933  51.959  1.00  0.00     0.016 A 
BRANCH  26  29
HETATM   29  O1  UNL     1      19.454  -1.882  54.027  1.00  0.00    -0.356 OA
HETATM   30  C1  UNL     1      18.146  -2.240  53.691  1.00  0.00     0.210 C 
ENDBRANCH  26  29
ENDBRANCH   1  23
TORSDOF 5
ENDMDL
MODEL 9
REMARK VINA RESULT:      -7.8      3.684      5.431
REMARK  5 active torsions:
REMARK  status: ('A' for Active; 'I' for Inactive)
REMARK    1  A    between atoms: O1_2  and  C2_3 
REMARK    2  A    between atoms: C5_6  and  C6_7 
REMARK    3  A    between atoms: C7_10  and  N3_11 
REMARK    4  A    between atoms: C7_10  and  C8_12 
REMARK    5  A    between atoms: C14_18  and  C15_19 
ROOT
HETATM    1  C6  UNL     1      23.801   3.849  51.022  1.00  0.00     0.061 C 
HETATM    2  N1  UNL     1      23.927   2.747  50.339  1.00  0.00    -0.199 NA
HETATM    3  N2  UNL     1      23.255   1.688  50.920  1.00  0.00    -0.144 NA
HETATM    4  C7  UNL     1      22.167   1.033  51.723  1.00  0.00     0.284 A 
HETATM    5  C14 UNL     1      22.084   2.433  51.579  1.00  0.00     0.125 A 
HETATM    6  C21 UNL     1      22.941   3.500  52.221  1.00  0.00     0.098 C 
ENDROOT
BRANCH   4   7
HETATM    7  N3  UNL     1      21.325   0.260  50.774  1.00  0.00     0.111 N 
HETATM    8  H6  UNL     1      21.418  -0.752  50.923  1.00  0.00     0.316 HD
HETATM    9  H7  UNL     1      20.370   0.651  50.854  1.00  0.00     0.316 HD
ENDBRANCH   4   7
BRANCH   4  10
HETATM   10  C8  UNL     1      22.518   0.244  52.895  1.00  0.00    -0.001 A 
HETATM   11  C9  UNL     1      21.483  -0.224  53.717  1.00  0.00     0.011 A 
HETATM   12  C10 UNL     1      21.654  -0.969  54.863  1.00  0.00     0.001 A 
HETATM   13  C11 UNL     1      22.938  -1.291  55.250  1.00  0.00     0.000 A 
HETATM   14  C12 UNL     1      24.015  -0.870  54.499  1.00  0.00     0.001 A 
HETATM   15  C13 UNL     1      23.755  -0.130  53.369  1.00  0.00     0.011 A 
ENDBRANCH   4  10
BRANCH   5  16
HETATM   16  C15 UNL     1      21.144   2.990  50.580  1.00  0.00    -0.029 A 
HETATM   17  C16 UNL     1      20.180   3.734  51.263  1.00  0.00     0.011 A 
HETATM   18  C17 UNL     1      19.144   4.389  50.610  1.00  0.00     0.019 A 
HETATM   19  C18 UNL     1      19.049   4.311  49.218  1.00  0.00     0.011 A 
HETATM   20 BR1  UNL     1      17.694   5.148  48.172  1.00  0.00    -0.051 Br
HETATM   21  C19 UNL     1      20.006   3.575  48.567  1.00  0.00     0.019 A 
HETATM   22  C20 UNL     1      21.022   2.931  49.210  1.00  0.00     0.011 A 
ENDBRANCH   5  16
BRANCH   1  23
HETATM   23  C5  UNL     1      24.353   5.163  50.743  1.00  0.00    -0.010 A 
HETATM   24  C4  UNL     1      23.796   6.318  51.210  1.00  0.00     0.016 A 
HETATM   25  C3  UNL     1      24.389   7.541  50.896  1.00  0.00     0.037 A 
HETATM   26  C2  UNL     1      25.530   7.592  50.118  1.00  0.00     0.068 A 
HETATM   27  C23 UNL     1      26.085   6.424  49.651  1.00  0.00     0.037 A 
HETATM   28  C22 UNL     1      25.492   5.219  49.967  1.00  0.00     0.016 A 
BRANCH  26  29
HETATM   29  O1  UNL     1      26.020   8.852  49.878  1.00  0.00    -0.356 OA
HETATM   30  C1  UNL     1      27.349   9.254  50.033  1.00  0.00     0.210 C 
ENDBRANCH  26  29
ENDBRANCH   1  23
TORSDOF 5
ENDMDL
