MODEL 1
REMARK VINA RESULT:      -8.9      0.000      0.000
REMARK  2 active torsions:
REMARK  status: ('A' for Active; 'I' for Inactive)
REMARK    1  A    between atoms: C7_7  and  C8_8 
REMARK    2  A    between atoms: C8_8  and  C9_9 
ROOT
HETATM    1  C9  UNL     1      24.988   0.614  52.325  1.00  0.00    -0.076 C 
HETATM    2  C10 UNL     1      24.588  -0.296  53.219  1.00  0.00     0.003 C 
HETATM    3  C11 UNL     1      23.412  -0.631  54.040  1.00  0.00     0.005 C 
HETATM    4  C12 UNL     1      22.122  -0.405  53.739  1.00  0.00    -0.060 C 
HETATM    5  C13 UNL     1      21.439  -0.952  54.927  1.00  0.00     0.139 C 
HETATM    6  N1  UNL     1      20.246  -1.696  54.610  1.00  0.00    -0.257 NA
HETATM    7  N2  UNL     1      19.567  -1.227  53.502  1.00  0.00    -0.260 NA
HETATM    8  C14 UNL     1      19.867   0.190  53.242  1.00  0.00     0.113 C 
HETATM    9  C15 UNL     1      21.293   0.170  52.673  1.00  0.00     0.030 C 
HETATM   10  C16 UNL     1      21.797   1.531  52.330  1.00  0.00     0.010 C 
HETATM   11  C17 UNL     1      22.868   1.353  51.256  1.00  0.00     0.005 C 
HETATM   12  C18 UNL     1      24.219   1.741  51.813  1.00  0.00     0.034 C 
HETATM   13  H14 UNL     1      20.453  -2.714  54.423  1.00  0.00     0.141 HD
HETATM   14  H15 UNL     1      19.815  -1.727  52.615  1.00  0.00     0.140 HD
ENDROOT
BRANCH   1  15
HETATM   15  C8  UNL     1      26.355   0.329  51.892  1.00  0.00     0.073 C 
BRANCH  15  16
HETATM   16  C7  UNL     1      27.435   0.842  52.721  1.00  0.00    -0.048 A 
HETATM   17  C2  UNL     1      28.238  -0.177  53.253  1.00  0.00    -0.055 A 
HETATM   18  C1  UNL     1      27.984  -1.637  52.978  1.00  0.00     0.049 C 
HETATM   19  C3  UNL     1      29.318   0.172  54.074  1.00  0.00     0.007 A 
HETATM   20  C4  UNL     1      29.641   1.470  54.392  1.00  0.00     0.001 A 
HETATM   21  C5  UNL     1      28.846   2.465  53.866  1.00  0.00     0.001 A 
HETATM   22  C6  UNL     1      27.796   2.126  53.068  1.00  0.00     0.008 A 
ENDBRANCH  15  16
ENDBRANCH   1  15
TORSDOF 2
ENDMDL
MODEL 2
REMARK VINA RESULT:      -8.8      3.933      5.197
REMARK  2 active torsions:
REMARK  status: ('A' for Active; 'I' for Inactive)
REMARK    1  A    between atoms: C7_7  and  C8_8 
REMARK    2  A    between atoms: C8_8  and  C9_9 
ROOT
HETATM    1  C9  UNL     1      25.155   1.017  52.249  1.00  0.00    -0.076 C 
HETATM    2  C10 UNL     1      26.199   1.509  51.573  1.00  0.00     0.003 C 
HETATM    3  C11 UNL     1      26.511   2.551  50.581  1.00  0.00     0.005 C 
HETATM    4  C12 UNL     1      25.891   3.733  50.423  1.00  0.00    -0.060 C 
HETATM    5  C13 UNL     1      26.643   4.316  49.295  1.00  0.00     0.139 C 
HETATM    6  N1  UNL     1      26.917   5.721  49.455  1.00  0.00    -0.257 NA
HETATM    7  N2  UNL     1      25.938   6.412  50.142  1.00  0.00    -0.260 NA
HETATM    8  C14 UNL     1      24.637   5.729  50.065  1.00  0.00     0.113 C 
HETATM    9  C15 UNL     1      24.795   4.521  50.999  1.00  0.00     0.030 C 
HETATM   10  C16 UNL     1      23.564   3.683  51.072  1.00  0.00     0.010 C 
HETATM   11  C17 UNL     1      23.601   2.950  52.412  1.00  0.00     0.005 C 
HETATM   12  C18 UNL     1      23.771   1.466  52.179  1.00  0.00     0.034 C 
HETATM   13  H14 UNL     1      27.821   5.892  49.973  1.00  0.00     0.141 HD
HETATM   14  H15 UNL     1      26.135   6.512  51.168  1.00  0.00     0.140 HD
ENDROOT
BRANCH   1  15
HETATM   15  C8  UNL     1      25.587  -0.077  53.116  1.00  0.00     0.073 C 
BRANCH  15  16
HETATM   16  C7  UNL     1      26.999  -0.129  53.467  1.00  0.00    -0.048 A 
HETATM   17  C2  UNL     1      27.632  -1.284  52.986  1.00  0.00    -0.055 A 
HETATM   18  C1  UNL     1      26.903  -2.340  52.193  1.00  0.00     0.049 C 
HETATM   19  C3  UNL     1      28.996  -1.467  53.250  1.00  0.00     0.007 A 
HETATM   20  C4  UNL     1      29.758  -0.572  53.962  1.00  0.00     0.001 A 
HETATM   21  C5  UNL     1      29.127   0.559  54.432  1.00  0.00     0.001 A 
HETATM   22  C6  UNL     1      27.802   0.739  54.175  1.00  0.00     0.008 A 
ENDBRANCH  15  16
ENDBRANCH   1  15
TORSDOF 2
ENDMDL
MODEL 3
REMARK VINA RESULT:      -8.7      3.099      6.688
REMARK  2 active torsions:
REMARK  status: ('A' for Active; 'I' for Inactive)
REMARK    1  A    between atoms: C7_7  and  C8_8 
REMARK    2  A    between atoms: C8_8  and  C9_9 
ROOT
HETATM    1  C9  UNL     1      25.225   1.212  52.911  1.00  0.00    -0.076 C 
HETATM    2  C10 UNL     1      25.248  -0.122  52.827  1.00  0.00     0.003 C 
HETATM    3  C11 UNL     1      26.200  -1.223  52.606  1.00  0.00     0.005 C 
HETATM    4  C12 UNL     1      27.498  -1.254  52.950  1.00  0.00    -0.060 C 
HETATM    5  C13 UNL     1      27.902  -2.591  52.474  1.00  0.00     0.139 C 
HETATM    6  N1  UNL     1      28.771  -3.286  53.389  1.00  0.00    -0.257 NA
HETATM    7  N2  UNL     1      29.614  -2.458  54.105  1.00  0.00    -0.260 NA
HETATM    8  C14 UNL     1      29.837  -1.179  53.411  1.00  0.00     0.113 C 
HETATM    9  C15 UNL     1      28.517  -0.419  53.599  1.00  0.00     0.030 C 
HETATM   10  C16 UNL     1      28.533   0.931  52.965  1.00  0.00     0.010 C 
HETATM   11  C17 UNL     1      27.509   1.785  53.708  1.00  0.00     0.005 C 
HETATM   12  C18 UNL     1      26.357   2.121  52.788  1.00  0.00     0.034 C 
HETATM   13  H14 UNL     1      28.231  -3.847  54.100  1.00  0.00     0.141 HD
HETATM   14  H15 UNL     1      29.242  -2.196  55.050  1.00  0.00     0.140 HD
ENDROOT
BRANCH   1  15
HETATM   15  C8  UNL     1      23.862   1.679  53.161  1.00  0.00     0.073 C 
BRANCH  15  16
HETATM   16  C7  UNL     1      22.870   1.416  52.129  1.00  0.00    -0.048 A 
HETATM   17  C2  UNL     1      21.789   0.659  52.600  1.00  0.00    -0.055 A 
HETATM   18  C1  UNL     1      21.692   0.182  54.027  1.00  0.00     0.049 C 
HETATM   19  C3  UNL     1      20.756   0.329  51.712  1.00  0.00     0.007 A 
HETATM   20  C4  UNL     1      20.741   0.708  50.391  1.00  0.00     0.001 A 
HETATM   21  C5  UNL     1      21.809   1.452  49.937  1.00  0.00     0.001 A 
HETATM   22  C6  UNL     1      22.812   1.773  50.799  1.00  0.00     0.008 A 
ENDBRANCH  15  16
ENDBRANCH   1  15
TORSDOF 2
ENDMDL
MODEL 4
REMARK VINA RESULT:      -8.4      3.504      6.755
REMARK  2 active torsions:
REMARK  status: ('A' for Active; 'I' for Inactive)
REMARK    1  A    between atoms: C7_7  and  C8_8 
REMARK    2  A    between atoms: C8_8  and  C9_9 
ROOT
HETATM    1  C9  UNL     1      23.709   1.500  52.963  1.00  0.00    -0.076 C 
HETATM    2  C10 UNL     1      24.671   2.428  53.011  1.00  0.00     0.003 C 
HETATM    3  C11 UNL     1      26.060   2.591  53.471  1.00  0.00     0.005 C 
HETATM    4  C12 UNL     1      27.013   1.646  53.526  1.00  0.00    -0.060 C 
HETATM    5  C13 UNL     1      28.159   2.407  54.059  1.00  0.00     0.139 C 
HETATM    6  N1  UNL     1      29.409   2.081  53.423  1.00  0.00    -0.257 NA
HETATM    7  N2  UNL     1      29.508   0.766  53.013  1.00  0.00    -0.260 NA
HETATM    8  C14 UNL     1      28.607  -0.110  53.779  1.00  0.00     0.113 C 
HETATM    9  C15 UNL     1      27.212   0.222  53.232  1.00  0.00     0.030 C 
HETATM   10  C16 UNL     1      26.132  -0.576  53.882  1.00  0.00     0.010 C 
HETATM   11  C17 UNL     1      24.969  -0.642  52.895  1.00  0.00     0.005 C 
HETATM   12  C18 UNL     1      23.788   0.127  53.443  1.00  0.00     0.034 C 
HETATM   13  H14 UNL     1      29.584   2.674  52.567  1.00  0.00     0.141 HD
HETATM   14  H15 UNL     1      29.244   0.618  52.009  1.00  0.00     0.140 HD
ENDROOT
BRANCH   1  15
HETATM   15  C8  UNL     1      22.509   2.049  52.335  1.00  0.00     0.073 C 
BRANCH  15  16
HETATM   16  C7  UNL     1      22.460   2.044  50.880  1.00  0.00    -0.048 A 
HETATM   17  C2  UNL     1      21.536   1.118  50.375  1.00  0.00    -0.055 A 
HETATM   18  C1  UNL     1      20.699   0.237  51.268  1.00  0.00     0.049 C 
HETATM   19  C3  UNL     1      21.382   1.003  48.988  1.00  0.00     0.007 A 
HETATM   20  C4  UNL     1      22.093   1.753  48.081  1.00  0.00     0.001 A 
HETATM   21  C5  UNL     1      22.999   2.661  48.586  1.00  0.00     0.001 A 
HETATM   22  C6  UNL     1      23.148   2.773  49.935  1.00  0.00     0.008 A 
ENDBRANCH  15  16
ENDBRANCH   1  15
TORSDOF 2
ENDMDL
MODEL 5
REMARK VINA RESULT:      -8.3      2.047      2.806
REMARK  2 active torsions:
REMARK  status: ('A' for Active; 'I' for Inactive)
REMARK    1  A    between atoms: C7_7  and  C8_8 
REMARK    2  A    between atoms: C8_8  and  C9_9 
ROOT
HETATM    1  C9  UNL     1      24.400   0.263  53.275  1.00  0.00    -0.076 C 
HETATM    2  C10 UNL     1      23.179  -0.256  53.104  1.00  0.00     0.003 C 
HETATM    3  C11 UNL     1      21.883   0.084  52.493  1.00  0.00     0.005 C 
HETATM    4  C12 UNL     1      21.673   0.853  51.412  1.00  0.00    -0.060 C 
HETATM    5  C13 UNL     1      20.203   0.816  51.300  1.00  0.00     0.139 C 
HETATM    6  N1  UNL     1      19.734   0.686  49.944  1.00  0.00    -0.257 NA
HETATM    7  N2  UNL     1      20.543   1.299  49.006  1.00  0.00    -0.260 NA
HETATM    8  C14 UNL     1      21.347   2.376  49.606  1.00  0.00     0.113 C 
HETATM    9  C15 UNL     1      22.418   1.633  50.417  1.00  0.00     0.030 C 
HETATM   10  C16 UNL     1      23.360   2.558  51.112  1.00  0.00     0.010 C 
HETATM   11  C17 UNL     1      24.661   1.789  51.330  1.00  0.00     0.005 C 
HETATM   12  C18 UNL     1      24.878   1.558  52.808  1.00  0.00     0.034 C 
HETATM   13  H14 UNL     1      19.650  -0.324  49.649  1.00  0.00     0.141 HD
HETATM   14  H15 UNL     1      21.239   0.651  48.565  1.00  0.00     0.140 HD
ENDROOT
BRANCH   1  15
HETATM   15  C8  UNL     1      25.245  -0.671  54.016  1.00  0.00     0.073 C 
BRANCH  15  16
HETATM   16  C7  UNL     1      26.673  -0.391  54.048  1.00  0.00    -0.048 A 
HETATM   17  C2  UNL     1      27.401  -1.197  53.161  1.00  0.00    -0.055 A 
HETATM   18  C1  UNL     1      26.746  -2.233  52.282  1.00  0.00     0.049 C 
HETATM   19  C3  UNL     1      28.791  -1.038  53.087  1.00  0.00     0.007 A 
HETATM   20  C4  UNL     1      29.491  -0.128  53.842  1.00  0.00     0.001 A 
HETATM   21  C5  UNL     1      28.768   0.659  54.712  1.00  0.00     0.001 A 
HETATM   22  C6  UNL     1      27.418   0.505  54.784  1.00  0.00     0.008 A 
ENDBRANCH  15  16
ENDBRANCH   1  15
TORSDOF 2
ENDMDL
MODEL 6
REMARK VINA RESULT:      -8.2      3.512      4.592
REMARK  2 active torsions:
REMARK  status: ('A' for Active; 'I' for Inactive)
REMARK    1  A    between atoms: C7_7  and  C8_8 
REMARK    2  A    between atoms: C8_8  and  C9_9 
ROOT
HETATM    1  C9  UNL     1      26.155   2.043  53.036  1.00  0.00    -0.076 C 
HETATM    2  C10 UNL     1      24.906   2.476  53.236  1.00  0.00     0.003 C 
HETATM    3  C11 UNL     1      23.924   3.402  52.648  1.00  0.00     0.005 C 
HETATM    4  C12 UNL     1      23.798   3.735  51.352  1.00  0.00    -0.060 C 
HETATM    5  C13 UNL     1      22.665   4.678  51.395  1.00  0.00     0.139 C 
HETATM    6  N1  UNL     1      21.733   4.504  50.310  1.00  0.00    -0.257 NA
HETATM    7  N2  UNL     1      22.315   4.083  49.130  1.00  0.00    -0.260 NA
HETATM    8  C14 UNL     1      23.743   4.435  49.073  1.00  0.00     0.113 C 
HETATM    9  C15 UNL     1      24.407   3.452  50.047  1.00  0.00     0.030 C 
HETATM   10  C16 UNL     1      25.885   3.637  50.136  1.00  0.00     0.010 C 
HETATM   11  C17 UNL     1      26.476   2.303  50.584  1.00  0.00     0.005 C 
HETATM   12  C18 UNL     1      27.064   2.443  51.970  1.00  0.00     0.034 C 
HETATM   13  H14 UNL     1      20.984   3.798  50.540  1.00  0.00     0.141 HD
HETATM   14  H15 UNL     1      22.284   3.043  48.994  1.00  0.00     0.140 HD
ENDROOT
BRANCH   1  15
HETATM   15  C8  UNL     1      26.520   1.065  54.059  1.00  0.00     0.073 C 
BRANCH  15  16
HETATM   16  C7  UNL     1      27.145  -0.169  53.605  1.00  0.00    -0.048 A 
HETATM   17  C2  UNL     1      28.518  -0.213  53.887  1.00  0.00    -0.055 A 
HETATM   18  C1  UNL     1      29.240   0.911  54.586  1.00  0.00     0.049 C 
HETATM   19  C3  UNL     1      29.251  -1.345  53.506  1.00  0.00     0.007 A 
HETATM   20  C4  UNL     1      28.697  -2.426  52.863  1.00  0.00     0.001 A 
HETATM   21  C5  UNL     1      27.347  -2.374  52.589  1.00  0.00     0.001 A 
HETATM   22  C6  UNL     1      26.634  -1.275  52.960  1.00  0.00     0.008 A 
ENDBRANCH  15  16
ENDBRANCH   1  15
TORSDOF 2
ENDMDL
MODEL 7
REMARK VINA RESULT:      -8.1      4.317      6.050
REMARK  2 active torsions:
REMARK  status: ('A' for Active; 'I' for Inactive)
REMARK    1  A    between atoms: C7_7  and  C8_8 
REMARK    2  A    between atoms: C8_8  and  C9_9 
ROOT
HETATM    1  C9  UNL     1      25.213   3.233  50.645  1.00  0.00    -0.076 C 
HETATM    2  C10 UNL     1      26.430   2.819  51.011  1.00  0.00     0.003 C 
HETATM    3  C11 UNL     1      27.082   2.021  52.062  1.00  0.00     0.005 C 
HETATM    4  C12 UNL     1      26.561   0.977  52.729  1.00  0.00    -0.060 C 
HETATM    5  C13 UNL     1      27.672   0.612  53.628  1.00  0.00     0.139 C 
HETATM    6  N1  UNL     1      27.866  -0.810  53.751  1.00  0.00    -0.257 NA
HETATM    7  N2  UNL     1      26.702  -1.548  53.658  1.00  0.00    -0.260 NA
HETATM    8  C14 UNL     1      25.521  -0.744  54.010  1.00  0.00     0.113 C 
HETATM    9  C15 UNL     1      25.329   0.183  52.802  1.00  0.00     0.030 C 
HETATM   10  C16 UNL     1      24.157   1.094  52.955  1.00  0.00     0.010 C 
HETATM   11  C17 UNL     1      23.703   1.477  51.547  1.00  0.00     0.005 C 
HETATM   12  C18 UNL     1      23.949   2.950  51.313  1.00  0.00     0.034 C 
HETATM   13  H14 UNL     1      28.517  -1.187  53.010  1.00  0.00     0.141 HD
HETATM   14  H15 UNL     1      26.509  -1.909  52.693  1.00  0.00     0.140 HD
ENDROOT
BRANCH   1  15
HETATM   15  C8  UNL     1      25.299   4.040  49.428  1.00  0.00     0.073 C 
BRANCH  15  16
HETATM   16  C7  UNL     1      25.344   5.486  49.592  1.00  0.00    -0.048 A 
HETATM   17  C2  UNL     1      26.540   6.045  49.122  1.00  0.00    -0.055 A 
HETATM   18  C1  UNL     1      27.643   5.213  48.517  1.00  0.00     0.049 C 
HETATM   19  C3  UNL     1      26.722   7.430  49.216  1.00  0.00     0.007 A 
HETATM   20  C4  UNL     1      25.787   8.284  49.750  1.00  0.00     0.001 A 
HETATM   21  C5  UNL     1      24.614   7.726  50.211  1.00  0.00     0.001 A 
HETATM   22  C6  UNL     1      24.436   6.379  50.119  1.00  0.00     0.008 A 
ENDBRANCH  15  16
ENDBRANCH   1  15
TORSDOF 2
ENDMDL
MODEL 8
REMARK VINA RESULT:      -7.9      2.211      3.844
REMARK  2 active torsions:
REMARK  status: ('A' for Active; 'I' for Inactive)
REMARK    1  A    between atoms: C7_7  and  C8_8 
REMARK    2  A    between atoms: C8_8  and  C9_9 
ROOT
HETATM    1  C9  UNL     1      22.654   1.239  52.962  1.00  0.00    -0.076 C 
HETATM    2  C10 UNL     1      21.475   1.528  52.400  1.00  0.00     0.003 C 
HETATM    3  C11 UNL     1      20.201   0.878  52.051  1.00  0.00     0.005 C 
HETATM    4  C12 UNL     1      19.610  -0.144  52.692  1.00  0.00    -0.060 C 
HETATM    5  C13 UNL     1      18.391  -0.340  51.883  1.00  0.00     0.139 C 
HETATM    6  N1  UNL     1      17.214  -0.597  52.673  1.00  0.00    -0.257 NA
HETATM    7  N2  UNL     1      17.459  -1.293  53.840  1.00  0.00    -0.260 NA
HETATM    8  C14 UNL     1      18.701  -2.077  53.754  1.00  0.00     0.113 C 
HETATM    9  C15 UNL     1      19.814  -1.024  53.849  1.00  0.00     0.030 C 
HETATM   10  C16 UNL     1      21.180  -1.620  53.787  1.00  0.00     0.010 C 
HETATM   11  C17 UNL     1      22.124  -0.648  54.491  1.00  0.00     0.005 C 
HETATM   12  C18 UNL     1      23.084  -0.050  53.489  1.00  0.00     0.034 C 
HETATM   13  H14 UNL     1      16.724   0.295  52.955  1.00  0.00     0.141 HD
HETATM   14  H15 UNL     1      17.583  -0.675  54.679  1.00  0.00     0.140 HD
ENDROOT
BRANCH   1  15
HETATM   15  C8  UNL     1      23.503   2.428  52.993  1.00  0.00     0.073 C 
BRANCH  15  16
HETATM   16  C7  UNL     1      24.372   2.655  51.848  1.00  0.00    -0.048 A 
HETATM   17  C2  UNL     1      25.722   2.412  52.140  1.00  0.00    -0.055 A 
HETATM   18  C1  UNL     1      26.191   1.966  53.502  1.00  0.00     0.049 C 
HETATM   19  C3  UNL     1      26.675   2.591  51.129  1.00  0.00     0.007 A 
HETATM   20  C4  UNL     1      26.361   2.996  49.853  1.00  0.00     0.001 A 
HETATM   21  C5  UNL     1      25.032   3.233  49.576  1.00  0.00     0.001 A 
HETATM   22  C6  UNL     1      24.105   3.059  50.558  1.00  0.00     0.008 A 
ENDBRANCH  15  16
ENDBRANCH   1  15
TORSDOF 2
ENDMDL
MODEL 9
REMARK VINA RESULT:      -7.9      4.927      7.163
REMARK  2 active torsions:
REMARK  status: ('A' for Active; 'I' for Inactive)
REMARK    1  A    between atoms: C7_7  and  C8_8 
REMARK    2  A    between atoms: C8_8  and  C9_9 
ROOT
HETATM    1  C9  UNL     1      22.341   2.633  50.380  1.00  0.00    -0.076 C 
HETATM    2  C10 UNL     1      23.524   2.851  49.796  1.00  0.00     0.003 C 
HETATM    3  C11 UNL     1      24.384   3.967  49.370  1.00  0.00     0.005 C 
HETATM    4  C12 UNL     1      24.475   5.182  49.935  1.00  0.00    -0.060 C 
HETATM    5  C13 UNL     1      25.480   5.837  49.076  1.00  0.00     0.139 C 
HETATM    6  N1  UNL     1      26.433   6.629  49.810  1.00  0.00    -0.257 NA
HETATM    7  N2  UNL     1      25.917   7.222  50.947  1.00  0.00    -0.260 NA
HETATM    8  C14 UNL     1      24.456   7.380  50.860  1.00  0.00     0.113 C 
HETATM    9  C15 UNL     1      23.915   5.956  51.049  1.00  0.00     0.030 C 
HETATM   10  C16 UNL     1      22.426   5.894  51.001  1.00  0.00     0.010 C 
HETATM   11  C17 UNL     1      22.006   4.654  51.788  1.00  0.00     0.005 C 
HETATM   12  C18 UNL     1      21.396   3.636  50.852  1.00  0.00     0.034 C 
HETATM   13  H14 UNL     1      27.264   6.060  50.123  1.00  0.00     0.141 HD
HETATM   14  H15 UNL     1      26.080   6.666  51.821  1.00  0.00     0.140 HD
ENDROOT
BRANCH   1  15
HETATM   15  C8  UNL     1      22.096   1.197  50.504  1.00  0.00     0.073 C 
BRANCH  15  16
HETATM   16  C7  UNL     1      22.154   0.626  51.842  1.00  0.00    -0.048 A 
HETATM   17  C2  UNL     1      20.900   0.201  52.301  1.00  0.00    -0.055 A 
HETATM   18  C1  UNL     1      19.645   0.332  51.475  1.00  0.00     0.049 C 
HETATM   19  C3  UNL     1      20.804  -0.370  53.577  1.00  0.00     0.007 A 
HETATM   20  C4  UNL     1      21.880  -0.537  54.415  1.00  0.00     0.001 A 
HETATM   21  C5  UNL     1      23.109  -0.115  53.956  1.00  0.00     0.001 A 
HETATM   22  C6  UNL     1      23.203   0.439  52.716  1.00  0.00     0.008 A 
ENDBRANCH  15  16
ENDBRANCH   1  15
TORSDOF 2
ENDMDL
