MODEL 1
REMARK VINA RESULT:      -7.3      0.000      0.000
REMARK  8 active torsions:
REMARK  status: ('A' for Active; 'I' for Inactive)
REMARK    1  A    between atoms: O1_2  and  C2_3 
REMARK    2  A    between atoms: C4_5  and  C5_6 
REMARK    3  A    between atoms: C6_8  and  O3_9 
REMARK    4  A    between atoms: O3_9  and  C7_10 
REMARK    5  A    between atoms: C7_10  and  C8_11 
REMARK    6  A    between atoms: C11_14  and  O4_15 
REMARK    7  A    between atoms: C13_17  and  O5_18 
REMARK    8  A    between atoms: C15_20  and  O6_21 
ROOT
HETATM    1  C2  UNL     1      20.620  -0.283  52.994  1.00  0.00     0.102 A 
HETATM    2  C3  UNL     1      21.070   0.547  52.049  1.00  0.00     0.055 A 
HETATM    3  C4  UNL     1      22.430   0.879  52.130  1.00  0.00     0.025 A 
HETATM    4  C6  UNL     1      23.228   0.369  53.109  1.00  0.00     0.084 A 
HETATM    5  C14 UNL     1      22.746  -0.516  54.097  1.00  0.00     0.077 A 
HETATM    6  C15 UNL     1      21.419  -0.801  53.993  1.00  0.00     0.101 A 
ENDROOT
BRANCH   4   7
HETATM    7  O3  UNL     1      24.418   0.874  52.975  1.00  0.00    -0.346 OA
BRANCH   7   8
HETATM    8  C7  UNL     1      25.616   1.443  52.945  1.00  0.00     0.217 C 
BRANCH   8   9
HETATM    9  C8  UNL     1      26.923   0.961  53.059  1.00  0.00    -0.001 A 
HETATM   10  C9  UNL     1      26.843  -0.318  52.675  1.00  0.00     0.015 A 
HETATM   11  C10 UNL     1      27.881  -1.295  52.904  1.00  0.00     0.037 A 
HETATM   12  C11 UNL     1      28.900  -0.613  53.570  1.00  0.00     0.068 A 
HETATM   13  C12 UNL     1      29.108   0.639  54.019  1.00  0.00     0.073 A 
HETATM   14  C13 UNL     1      28.063   1.525  53.747  1.00  0.00     0.076 A 
BRANCH  12  15
HETATM   15  O4  UNL     1      30.064  -1.434  53.856  1.00  0.00    -0.361 OA
HETATM   16  H10 UNL     1      30.956  -0.915  53.923  1.00  0.00     0.217 HD
ENDBRANCH  12  15
BRANCH  14  17
HETATM   17  O5  UNL     1      27.911   2.871  54.022  1.00  0.00    -0.360 OA
HETATM   18  H12 UNL     1      28.536   3.242  54.767  1.00  0.00     0.217 HD
ENDBRANCH  14  17
ENDBRANCH   8   9
ENDBRANCH   7   8
ENDBRANCH   4   7
BRANCH   3  19
HETATM   19  C5  UNL     1      22.936   1.674  50.963  1.00  0.00     0.190 C 
HETATM   20  O2  UNL     1      22.339   2.846  51.233  1.00  0.00    -0.204 OA
ENDBRANCH   3  19
BRANCH   6  21
HETATM   21  O6  UNL     1      20.863  -1.673  54.927  1.00  0.00    -0.358 OA
HETATM   22  H14 UNL     1      20.439  -2.523  54.622  1.00  0.00     0.217 HD
ENDBRANCH   6  21
BRANCH   1  23
HETATM   23  O1  UNL     1      19.224  -0.673  52.947  1.00  0.00    -0.353 OA
HETATM   24  C1  UNL     1      18.481  -0.163  51.821  1.00  0.00     0.210 C 
ENDBRANCH   1  23
TORSDOF 8
ENDMDL
MODEL 2
REMARK VINA RESULT:      -7.0      1.149      1.683
REMARK  8 active torsions:
REMARK  status: ('A' for Active; 'I' for Inactive)
REMARK    1  A    between atoms: O1_2  and  C2_3 
REMARK    2  A    between atoms: C4_5  and  C5_6 
REMARK    3  A    between atoms: C6_8  and  O3_9 
REMARK    4  A    between atoms: O3_9  and  C7_10 
REMARK    5  A    between atoms: C7_10  and  C8_11 
REMARK    6  A    between atoms: C11_14  and  O4_15 
REMARK    7  A    between atoms: C13_17  and  O5_18 
REMARK    8  A    between atoms: C15_20  and  O6_21 
ROOT
HETATM    1  C2  UNL     1      20.302  -0.268  53.386  1.00  0.00     0.102 A 
HETATM    2  C3  UNL     1      20.626   0.771  52.612  1.00  0.00     0.055 A 
HETATM    3  C4  UNL     1      21.974   1.158  52.649  1.00  0.00     0.025 A 
HETATM    4  C6  UNL     1      22.881   0.496  53.421  1.00  0.00     0.084 A 
HETATM    5  C14 UNL     1      22.531  -0.608  54.227  1.00  0.00     0.077 A 
HETATM    6  C15 UNL     1      21.212  -0.941  54.175  1.00  0.00     0.101 A 
ENDROOT
BRANCH   4   7
HETATM    7  O3  UNL     1      24.032   1.088  53.301  1.00  0.00    -0.346 OA
BRANCH   7   8
HETATM    8  C7  UNL     1      25.252   1.607  53.253  1.00  0.00     0.217 C 
BRANCH   8   9
HETATM    9  C8  UNL     1      26.523   1.133  53.593  1.00  0.00    -0.001 A 
HETATM   10  C9  UNL     1      27.310   2.213  53.529  1.00  0.00     0.015 A 
HETATM   11  C10 UNL     1      28.752   2.159  53.515  1.00  0.00     0.037 A 
HETATM   12  C11 UNL     1      29.080   0.804  53.582  1.00  0.00     0.068 A 
HETATM   13  C12 UNL     1      28.409  -0.362  53.639  1.00  0.00     0.073 A 
HETATM   14  C13 UNL     1      27.020  -0.223  53.662  1.00  0.00     0.076 A 
BRANCH  12  15
HETATM   15  O4  UNL     1      30.509   0.547  53.617  1.00  0.00    -0.361 OA
HETATM   16  H10 UNL     1      30.888   0.325  54.553  1.00  0.00     0.217 HD
ENDBRANCH  12  15
BRANCH  14  17
HETATM   17  O5  UNL     1      26.009  -1.162  53.736  1.00  0.00    -0.360 OA
HETATM   18  H12 UNL     1      25.050  -0.790  53.582  1.00  0.00     0.217 HD
ENDBRANCH  14  17
ENDBRANCH   8   9
ENDBRANCH   7   8
ENDBRANCH   4   7
BRANCH   3  19
HETATM   19  C5  UNL     1      22.336   2.214  51.646  1.00  0.00     0.190 C 
HETATM   20  O2  UNL     1      22.447   1.437  50.557  1.00  0.00    -0.204 OA
ENDBRANCH   3  19
BRANCH   6  21
HETATM   21  O6  UNL     1      20.782  -2.025  54.938  1.00  0.00    -0.358 OA
HETATM   22  H14 UNL     1      21.397  -2.435  55.610  1.00  0.00     0.217 HD
ENDBRANCH   6  21
BRANCH   1  23
HETATM   23  O1  UNL     1      18.923  -0.720  53.372  1.00  0.00    -0.353 OA
HETATM   24  C1  UNL     1      18.226  -0.529  52.125  1.00  0.00     0.210 C 
ENDBRANCH   1  23
TORSDOF 8
ENDMDL
MODEL 3
REMARK VINA RESULT:      -7.0      1.736      3.074
REMARK  8 active torsions:
REMARK  status: ('A' for Active; 'I' for Inactive)
REMARK    1  A    between atoms: O1_2  and  C2_3 
REMARK    2  A    between atoms: C4_5  and  C5_6 
REMARK    3  A    between atoms: C6_8  and  O3_9 
REMARK    4  A    between atoms: O3_9  and  C7_10 
REMARK    5  A    between atoms: C7_10  and  C8_11 
REMARK    6  A    between atoms: C11_14  and  O4_15 
REMARK    7  A    between atoms: C13_17  and  O5_18 
REMARK    8  A    between atoms: C15_20  and  O6_21 
ROOT
HETATM    1  C2  UNL     1      19.635  -0.185  52.756  1.00  0.00     0.102 A 
HETATM    2  C3  UNL     1      20.297  -0.648  53.819  1.00  0.00     0.055 A 
HETATM    3  C4  UNL     1      21.696  -0.607  53.728  1.00  0.00     0.025 A 
HETATM    4  C6  UNL     1      22.321  -0.110  52.624  1.00  0.00     0.084 A 
HETATM    5  C14 UNL     1      21.612   0.389  51.510  1.00  0.00     0.077 A 
HETATM    6  C15 UNL     1      20.258   0.315  51.631  1.00  0.00     0.101 A 
ENDROOT
BRANCH   4   7
HETATM    7  O3  UNL     1      23.605  -0.232  52.787  1.00  0.00    -0.346 OA
BRANCH   7   8
HETATM    8  C7  UNL     1      24.893  -0.364  53.074  1.00  0.00     0.217 C 
BRANCH   8   9
HETATM    9  C8  UNL     1      25.922   0.539  53.358  1.00  0.00    -0.001 A 
HETATM   10  C9  UNL     1      25.985   1.326  52.278  1.00  0.00     0.015 A 
HETATM   11  C10 UNL     1      27.085   2.216  51.992  1.00  0.00     0.037 A 
HETATM   12  C11 UNL     1      27.984   2.055  53.048  1.00  0.00     0.068 A 
HETATM   13  C12 UNL     1      28.054   1.311  54.168  1.00  0.00     0.073 A 
HETATM   14  C13 UNL     1      26.946   0.487  54.378  1.00  0.00     0.076 A 
BRANCH  12  15
HETATM   15  O4  UNL     1      29.155   2.909  52.955  1.00  0.00    -0.361 OA
HETATM   16  H10 UNL     1      30.024   2.426  52.673  1.00  0.00     0.217 HD
ENDBRANCH  12  15
BRANCH  14  17
HETATM   17  O5  UNL     1      26.641  -0.391  55.400  1.00  0.00    -0.360 OA
HETATM   18  H12 UNL     1      27.390  -0.518  56.111  1.00  0.00     0.217 HD
ENDBRANCH  14  17
ENDBRANCH   8   9
ENDBRANCH   7   8
ENDBRANCH   4   7
BRANCH   3  19
HETATM   19  C5  UNL     1      22.404  -0.976  54.998  1.00  0.00     0.190 C 
HETATM   20  O2  UNL     1      21.882  -2.200  55.179  1.00  0.00    -0.204 OA
ENDBRANCH   3  19
BRANCH   6  21
HETATM   21  O6  UNL     1      19.482   0.793  50.577  1.00  0.00    -0.358 OA
HETATM   22  H14 UNL     1      18.774   0.213  50.178  1.00  0.00     0.217 HD
ENDBRANCH   6  21
BRANCH   1  23
HETATM   23  O1  UNL     1      18.185  -0.189  52.805  1.00  0.00    -0.353 OA
HETATM   24  C1  UNL     1      17.583  -1.473  53.067  1.00  0.00     0.210 C 
ENDBRANCH   1  23
TORSDOF 8
ENDMDL
MODEL 4
REMARK VINA RESULT:      -6.9      1.757      7.536
REMARK  8 active torsions:
REMARK  status: ('A' for Active; 'I' for Inactive)
REMARK    1  A    between atoms: O1_2  and  C2_3 
REMARK    2  A    between atoms: C4_5  and  C5_6 
REMARK    3  A    between atoms: C6_8  and  O3_9 
REMARK    4  A    between atoms: O3_9  and  C7_10 
REMARK    5  A    between atoms: C7_10  and  C8_11 
REMARK    6  A    between atoms: C11_14  and  O4_15 
REMARK    7  A    between atoms: C13_17  and  O5_18 
REMARK    8  A    between atoms: C15_20  and  O6_21 
ROOT
HETATM    1  C2  UNL     1      27.407   1.396  53.017  1.00  0.00     0.102 A 
HETATM    2  C3  UNL     1      26.919   0.471  53.847  1.00  0.00     0.055 A 
HETATM    3  C4  UNL     1      25.526   0.307  53.823  1.00  0.00     0.025 A 
HETATM    4  C6  UNL     1      24.740   1.045  52.990  1.00  0.00     0.084 A 
HETATM    5  C14 UNL     1      25.266   2.013  52.108  1.00  0.00     0.077 A 
HETATM    6  C15 UNL     1      26.619   2.152  52.174  1.00  0.00     0.101 A 
ENDROOT
BRANCH   4   7
HETATM    7  O3  UNL     1      23.499   0.725  53.205  1.00  0.00    -0.346 OA
BRANCH   7   8
HETATM    8  C7  UNL     1      22.203   0.475  53.336  1.00  0.00     0.217 C 
BRANCH   8   9
HETATM    9  C8  UNL     1      21.157   0.268  52.431  1.00  0.00    -0.001 A 
HETATM   10  C9  UNL     1      21.616   0.756  51.273  1.00  0.00     0.015 A 
HETATM   11  C10 UNL     1      20.783   1.026  50.125  1.00  0.00     0.037 A 
HETATM   12  C11 UNL     1      19.488   0.673  50.508  1.00  0.00     0.068 A 
HETATM   13  C12 UNL     1      18.893   0.191  51.615  1.00  0.00     0.073 A 
HETATM   14  C13 UNL     1      19.769  -0.055  52.674  1.00  0.00     0.076 A 
BRANCH  12  15
HETATM   15  O4  UNL     1      18.500   0.841  49.456  1.00  0.00    -0.361 OA
HETATM   16  H10 UNL     1      18.879   0.809  48.495  1.00  0.00     0.217 HD
ENDBRANCH  12  15
BRANCH  14  17
HETATM   17  O5  UNL     1      19.551  -0.558  53.943  1.00  0.00    -0.360 OA
HETATM   18  H12 UNL     1      18.684  -1.124  54.049  1.00  0.00     0.217 HD
ENDBRANCH  14  17
ENDBRANCH   8   9
ENDBRANCH   7   8
ENDBRANCH   4   7
BRANCH   3  19
HETATM   19  C5  UNL     1      25.031  -0.850  54.639  1.00  0.00     0.190 C 
HETATM   20  O2  UNL     1      25.837  -0.714  55.704  1.00  0.00    -0.204 OA
ENDBRANCH   3  19
BRANCH   6  21
HETATM   21  O6  UNL     1      27.220   3.083  51.330  1.00  0.00    -0.358 OA
HETATM   22  H14 UNL     1      27.316   4.032  51.625  1.00  0.00     0.217 HD
ENDBRANCH   6  21
BRANCH   1  23
HETATM   23  O1  UNL     1      28.844   1.593  52.990  1.00  0.00    -0.353 OA
HETATM   24  C1  UNL     1      29.611   0.631  53.741  1.00  0.00     0.210 C 
ENDBRANCH   1  23
TORSDOF 8
ENDMDL
MODEL 5
REMARK VINA RESULT:      -6.9      1.243      7.100
REMARK  8 active torsions:
REMARK  status: ('A' for Active; 'I' for Inactive)
REMARK    1  A    between atoms: O1_2  and  C2_3 
REMARK    2  A    between atoms: C4_5  and  C5_6 
REMARK    3  A    between atoms: C6_8  and  O3_9 
REMARK    4  A    between atoms: O3_9  and  C7_10 
REMARK    5  A    between atoms: C7_10  and  C8_11 
REMARK    6  A    between atoms: C11_14  and  O4_15 
REMARK    7  A    between atoms: C13_17  and  O5_18 
REMARK    8  A    between atoms: C15_20  and  O6_21 
ROOT
HETATM    1  C2  UNL     1      28.412  -0.950  53.258  1.00  0.00     0.102 A 
HETATM    2  C3  UNL     1      28.080   0.325  53.476  1.00  0.00     0.055 A 
HETATM    3  C4  UNL     1      26.727   0.641  53.286  1.00  0.00     0.025 A 
HETATM    4  C6  UNL     1      25.822  -0.308  52.915  1.00  0.00     0.084 A 
HETATM    5  C14 UNL     1      26.180  -1.656  52.698  1.00  0.00     0.077 A 
HETATM    6  C15 UNL     1      27.504  -1.917  52.876  1.00  0.00     0.101 A 
ENDROOT
BRANCH   4   7
HETATM    7  O3  UNL     1      24.664   0.264  52.768  1.00  0.00    -0.346 OA
BRANCH   7   8
HETATM    8  C7  UNL     1      23.455   0.808  52.730  1.00  0.00     0.217 C 
BRANCH   8   9
HETATM    9  C8  UNL     1      22.190   0.395  53.159  1.00  0.00    -0.001 A 
HETATM   10  C9  UNL     1      22.426  -0.697  53.895  1.00  0.00     0.015 A 
HETATM   11  C10 UNL     1      21.404  -1.631  54.303  1.00  0.00     0.037 A 
HETATM   12  C11 UNL     1      20.210  -1.136  53.776  1.00  0.00     0.068 A 
HETATM   13  C12 UNL     1      19.834  -0.082  53.027  1.00  0.00     0.073 A 
HETATM   14  C13 UNL     1      20.879   0.779  52.686  1.00  0.00     0.076 A 
BRANCH  12  15
HETATM   15  O4  UNL     1      19.044  -1.933  54.117  1.00  0.00    -0.361 OA
HETATM   16  H10 UNL     1      18.703  -2.550  53.361  1.00  0.00     0.217 HD
ENDBRANCH  12  15
BRANCH  14  17
HETATM   17  O5  UNL     1      20.894   1.955  51.961  1.00  0.00    -0.360 OA
HETATM   18  H12 UNL     1      21.635   2.016  51.234  1.00  0.00     0.217 HD
ENDBRANCH  14  17
ENDBRANCH   8   9
ENDBRANCH   7   8
ENDBRANCH   4   7
BRANCH   3  19
HETATM   19  C5  UNL     1      26.360   2.035  53.700  1.00  0.00     0.190 C 
HETATM   20  O2  UNL     1      27.564   2.452  54.122  1.00  0.00    -0.204 OA
ENDBRANCH   3  19
BRANCH   6  21
HETATM   21  O6  UNL     1      27.942  -3.226  52.688  1.00  0.00    -0.358 OA
HETATM   22  H14 UNL     1      28.677  -3.592  53.256  1.00  0.00     0.217 HD
ENDBRANCH   6  21
BRANCH   1  23
HETATM   23  O1  UNL     1      29.796  -1.335  53.457  1.00  0.00    -0.353 OA
HETATM   24  C1  UNL     1      30.706  -0.246  53.714  1.00  0.00     0.210 C 
ENDBRANCH   1  23
TORSDOF 8
ENDMDL
MODEL 6
REMARK VINA RESULT:      -6.8      3.526      5.027
REMARK  8 active torsions:
REMARK  status: ('A' for Active; 'I' for Inactive)
REMARK    1  A    between atoms: O1_2  and  C2_3 
REMARK    2  A    between atoms: C4_5  and  C5_6 
REMARK    3  A    between atoms: C6_8  and  O3_9 
REMARK    4  A    between atoms: O3_9  and  C7_10 
REMARK    5  A    between atoms: C7_10  and  C8_11 
REMARK    6  A    between atoms: C11_14  and  O4_15 
REMARK    7  A    between atoms: C13_17  and  O5_18 
REMARK    8  A    between atoms: C15_20  and  O6_21 
ROOT
HETATM    1  C2  UNL     1      24.065   5.813  50.366  1.00  0.00     0.102 A 
HETATM    2  C3  UNL     1      25.098   5.175  49.811  1.00  0.00     0.055 A 
HETATM    3  C4  UNL     1      25.390   3.912  50.347  1.00  0.00     0.025 A 
HETATM    4  C6  UNL     1      24.647   3.380  51.357  1.00  0.00     0.084 A 
HETATM    5  C14 UNL     1      23.548   4.057  51.929  1.00  0.00     0.077 A 
HETATM    6  C15 UNL     1      23.309   5.286  51.394  1.00  0.00     0.101 A 
ENDROOT
BRANCH   4   7
HETATM    7  O3  UNL     1      25.160   2.232  51.686  1.00  0.00    -0.346 OA
BRANCH   7   8
HETATM    8  C7  UNL     1      25.691   1.103  52.135  1.00  0.00     0.217 C 
BRANCH   8   9
HETATM    9  C8  UNL     1      26.993   0.693  52.434  1.00  0.00    -0.001 A 
HETATM   10  C9  UNL     1      26.924  -0.642  52.472  1.00  0.00     0.015 A 
HETATM   11  C10 UNL     1      27.953  -1.488  53.029  1.00  0.00     0.037 A 
HETATM   12  C11 UNL     1      28.952  -0.621  53.475  1.00  0.00     0.068 A 
HETATM   13  C12 UNL     1      29.147   0.711  53.510  1.00  0.00     0.073 A 
HETATM   14  C13 UNL     1      28.112   1.456  52.941  1.00  0.00     0.076 A 
BRANCH  12  15
HETATM   15  O4  UNL     1      30.106  -1.299  54.040  1.00  0.00    -0.361 OA
HETATM   16  H10 UNL     1      30.770  -1.679  53.345  1.00  0.00     0.217 HD
ENDBRANCH  12  15
BRANCH  14  17
HETATM   17  O5  UNL     1      27.953   2.818  52.772  1.00  0.00    -0.360 OA
HETATM   18  H12 UNL     1      27.635   3.111  51.826  1.00  0.00     0.217 HD
ENDBRANCH  14  17
ENDBRANCH   8   9
ENDBRANCH   7   8
ENDBRANCH   4   7
BRANCH   3  19
HETATM   19  C5  UNL     1      26.445   3.156  49.593  1.00  0.00     0.190 C 
HETATM   20  O2  UNL     1      27.336   4.147  49.432  1.00  0.00    -0.204 OA
ENDBRANCH   3  19
BRANCH   6  21
HETATM   21  O6  UNL     1      22.237   6.020  51.898  1.00  0.00    -0.358 OA
HETATM   22  H14 UNL     1      22.082   6.061  52.883  1.00  0.00     0.217 HD
ENDBRANCH   6  21
BRANCH   1  23
HETATM   23  O1  UNL     1      23.710   7.116  49.838  1.00  0.00    -0.353 OA
HETATM   24  C1  UNL     1      24.460   8.222  50.378  1.00  0.00     0.210 C 
ENDBRANCH   1  23
TORSDOF 8
ENDMDL
MODEL 7
REMARK VINA RESULT:      -6.8      2.230      7.947
REMARK  8 active torsions:
REMARK  status: ('A' for Active; 'I' for Inactive)
REMARK    1  A    between atoms: O1_2  and  C2_3 
REMARK    2  A    between atoms: C4_5  and  C5_6 
REMARK    3  A    between atoms: C6_8  and  O3_9 
REMARK    4  A    between atoms: O3_9  and  C7_10 
REMARK    5  A    between atoms: C7_10  and  C8_11 
REMARK    6  A    between atoms: C11_14  and  O4_15 
REMARK    7  A    between atoms: C13_17  and  O5_18 
REMARK    8  A    between atoms: C15_20  and  O6_21 
ROOT
HETATM    1  C2  UNL     1      24.255  -0.635  54.365  1.00  0.00     0.102 A 
HETATM    2  C3  UNL     1      24.194   0.109  53.257  1.00  0.00     0.055 A 
HETATM    3  C4  UNL     1      22.910   0.309  52.730  1.00  0.00     0.025 A 
HETATM    4  C6  UNL     1      21.807  -0.219  53.330  1.00  0.00     0.084 A 
HETATM    5  C14 UNL     1      21.880  -0.995  54.507  1.00  0.00     0.077 A 
HETATM    6  C15 UNL     1      23.144  -1.179  54.976  1.00  0.00     0.101 A 
ENDROOT
BRANCH   4   7
HETATM    7  O3  UNL     1      20.765   0.081  52.612  1.00  0.00    -0.346 OA
BRANCH   7   8
HETATM    8  C7  UNL     1      19.671   0.269  51.886  1.00  0.00     0.217 C 
BRANCH   8   9
HETATM    9  C8  UNL     1      18.432  -0.373  51.813  1.00  0.00    -0.001 A 
HETATM   10  C9  UNL     1      17.894   0.068  50.670  1.00  0.00     0.015 A 
HETATM   11  C10 UNL     1      16.503  -0.094  50.318  1.00  0.00     0.037 A 
HETATM   12  C11 UNL     1      15.920  -0.773  51.389  1.00  0.00     0.068 A 
HETATM   13  C12 UNL     1      16.327  -1.257  52.578  1.00  0.00     0.073 A 
HETATM   14  C13 UNL     1      17.687  -1.072  52.836  1.00  0.00     0.076 A 
BRANCH  12  15
HETATM   15  O4  UNL     1      14.510  -1.066  51.200  1.00  0.00    -0.361 OA
HETATM   16  H10 UNL     1      13.863  -0.372  51.611  1.00  0.00     0.217 HD
ENDBRANCH  12  15
BRANCH  14  17
HETATM   17  O5  UNL     1      18.470  -1.437  53.914  1.00  0.00    -0.360 OA
HETATM   18  H12 UNL     1      19.401  -0.976  53.959  1.00  0.00     0.217 HD
ENDBRANCH  14  17
ENDBRANCH   8   9
ENDBRANCH   7   8
ENDBRANCH   4   7
BRANCH   3  19
HETATM   19  C5  UNL     1      22.861   1.282  51.589  1.00  0.00     0.190 C 
HETATM   20  O2  UNL     1      23.155   2.406  52.262  1.00  0.00    -0.204 OA
ENDBRANCH   3  19
BRANCH   6  21
HETATM   21  O6  UNL     1      23.305  -1.929  56.140  1.00  0.00    -0.358 OA
HETATM   22  H14 UNL     1      22.507  -2.322  56.592  1.00  0.00     0.217 HD
ENDBRANCH   6  21
BRANCH   1  23
HETATM   23  O1  UNL     1      25.558  -0.859  54.961  1.00  0.00    -0.353 OA
HETATM   24  C1  UNL     1      26.515   0.201  54.763  1.00  0.00     0.210 C 
ENDBRANCH   1  23
TORSDOF 8
ENDMDL
MODEL 8
REMARK VINA RESULT:      -6.6      1.956      3.673
REMARK  8 active torsions:
REMARK  status: ('A' for Active; 'I' for Inactive)
REMARK    1  A    between atoms: O1_2  and  C2_3 
REMARK    2  A    between atoms: C4_5  and  C5_6 
REMARK    3  A    between atoms: C6_8  and  O3_9 
REMARK    4  A    between atoms: O3_9  and  C7_10 
REMARK    5  A    between atoms: C7_10  and  C8_11 
REMARK    6  A    between atoms: C11_14  and  O4_15 
REMARK    7  A    between atoms: C13_17  and  O5_18 
REMARK    8  A    between atoms: C15_20  and  O6_21 
ROOT
HETATM    1  C2  UNL     1      22.265   3.624  52.302  1.00  0.00     0.102 A 
HETATM    2  C3  UNL     1      21.882   2.345  52.264  1.00  0.00     0.055 A 
HETATM    3  C4  UNL     1      22.851   1.409  52.651  1.00  0.00     0.025 A 
HETATM    4  C6  UNL     1      24.094   1.798  53.050  1.00  0.00     0.084 A 
HETATM    5  C14 UNL     1      24.487   3.153  53.099  1.00  0.00     0.077 A 
HETATM    6  C15 UNL     1      23.524   4.028  52.699  1.00  0.00     0.101 A 
ENDROOT
BRANCH   4   7
HETATM    7  O3  UNL     1      24.796   0.734  53.307  1.00  0.00    -0.346 OA
BRANCH   7   8
HETATM    8  C7  UNL     1      25.602  -0.300  53.504  1.00  0.00     0.217 C 
BRANCH   8   9
HETATM    9  C8  UNL     1      26.982  -0.437  53.679  1.00  0.00    -0.001 A 
HETATM   10  C9  UNL     1      27.388   0.770  54.090  1.00  0.00     0.015 A 
HETATM   11  C10 UNL     1      28.769   1.190  54.117  1.00  0.00     0.037 A 
HETATM   12  C11 UNL     1      29.504   0.100  53.645  1.00  0.00     0.068 A 
HETATM   13  C12 UNL     1      29.234  -1.141  53.199  1.00  0.00     0.073 A 
HETATM   14  C13 UNL     1      27.878  -1.473  53.216  1.00  0.00     0.076 A 
BRANCH  12  15
HETATM   15  O4  UNL     1      30.940   0.321  53.636  1.00  0.00    -0.361 OA
HETATM   16  H10 UNL     1      31.395   0.262  54.562  1.00  0.00     0.217 HD
ENDBRANCH  12  15
BRANCH  14  17
HETATM   17  O5  UNL     1      27.217  -2.634  52.862  1.00  0.00    -0.360 OA
HETATM   18  H12 UNL     1      26.407  -2.882  53.465  1.00  0.00     0.217 HD
ENDBRANCH  14  17
ENDBRANCH   8   9
ENDBRANCH   7   8
ENDBRANCH   4   7
BRANCH   3  19
HETATM   19  C5  UNL     1      22.337   0.003  52.757  1.00  0.00     0.190 C 
HETATM   20  O2  UNL     1      21.599   0.135  53.870  1.00  0.00    -0.204 OA
ENDBRANCH   3  19
BRANCH   6  21
HETATM   21  O6  UNL     1      23.828   5.388  52.723  1.00  0.00    -0.358 OA
HETATM   22  H14 UNL     1      24.668   5.717  52.295  1.00  0.00     0.217 HD
ENDBRANCH   6  21
BRANCH   1  23
HETATM   23  O1  UNL     1      21.296   4.635  51.927  1.00  0.00    -0.353 OA
HETATM   24  C1  UNL     1      20.408   4.267  50.853  1.00  0.00     0.210 C 
ENDBRANCH   1  23
TORSDOF 8
ENDMDL
MODEL 9
REMARK VINA RESULT:      -6.6      1.360      1.764
REMARK  8 active torsions:
REMARK  status: ('A' for Active; 'I' for Inactive)
REMARK    1  A    between atoms: O1_2  and  C2_3 
REMARK    2  A    between atoms: C4_5  and  C5_6 
REMARK    3  A    between atoms: C6_8  and  O3_9 
REMARK    4  A    between atoms: O3_9  and  C7_10 
REMARK    5  A    between atoms: C7_10  and  C8_11 
REMARK    6  A    between atoms: C11_14  and  O4_15 
REMARK    7  A    between atoms: C13_17  and  O5_18 
REMARK    8  A    between atoms: C15_20  and  O6_21 
ROOT
HETATM    1  C2  UNL     1      19.764   0.646  52.307  1.00  0.00     0.102 A 
HETATM    2  C3  UNL     1      20.803   1.222  51.697  1.00  0.00     0.055 A 
HETATM    3  C4  UNL     1      22.069   0.783  52.108  1.00  0.00     0.025 A 
HETATM    4  C6  UNL     1      22.211  -0.181  53.061  1.00  0.00     0.084 A 
HETATM    5  C14 UNL     1      21.107  -0.792  53.693  1.00  0.00     0.077 A 
HETATM    6  C15 UNL     1      19.898  -0.326  53.278  1.00  0.00     0.101 A 
ENDROOT
BRANCH   4   7
HETATM    7  O3  UNL     1      23.480  -0.361  53.279  1.00  0.00    -0.346 OA
BRANCH   7   8
HETATM    8  C7  UNL     1      24.751  -0.531  53.619  1.00  0.00     0.217 C 
BRANCH   8   9
HETATM    9  C8  UNL     1      25.930   0.172  53.353  1.00  0.00    -0.001 A 
HETATM   10  C9  UNL     1      26.849  -0.780  53.155  1.00  0.00     0.015 A 
HETATM   11  C10 UNL     1      28.271  -0.535  53.137  1.00  0.00     0.037 A 
HETATM   12  C11 UNL     1      28.421   0.834  53.360  1.00  0.00     0.068 A 
HETATM   13  C12 UNL     1      27.607   1.884  53.580  1.00  0.00     0.073 A 
HETATM   14  C13 UNL     1      26.248   1.566  53.569  1.00  0.00     0.076 A 
BRANCH  12  15
HETATM   15  O4  UNL     1      29.803   1.284  53.339  1.00  0.00    -0.361 OA
HETATM   16  H10 UNL     1      30.108   1.706  52.446  1.00  0.00     0.217 HD
ENDBRANCH  12  15
BRANCH  14  17
HETATM   17  O5  UNL     1      25.124   2.353  53.733  1.00  0.00    -0.360 OA
HETATM   18  H12 UNL     1      24.230   1.831  53.830  1.00  0.00     0.217 HD
ENDBRANCH  14  17
ENDBRANCH   8   9
ENDBRANCH   7   8
ENDBRANCH   4   7
BRANCH   3  19
HETATM   19  C5  UNL     1      23.202   1.326  51.288  1.00  0.00     0.190 C 
HETATM   20  O2  UNL     1      23.175   2.599  51.712  1.00  0.00    -0.204 OA
ENDBRANCH   3  19
BRANCH   6  21
HETATM   21  O6  UNL     1      18.754  -0.882  53.847  1.00  0.00    -0.358 OA
HETATM   22  H14 UNL     1      18.792  -1.795  54.250  1.00  0.00     0.217 HD
ENDBRANCH   6  21
BRANCH   1  23
HETATM   23  O1  UNL     1      18.431   1.053  51.908  1.00  0.00    -0.353 OA
HETATM   24  C1  UNL     1      18.297   2.438  51.533  1.00  0.00     0.210 C 
ENDBRANCH   1  23
TORSDOF 8
ENDMDL
