MODEL 1
REMARK VINA RESULT:      -7.0      0.000      0.000
REMARK  6 active torsions:
REMARK  status: ('A' for Active; 'I' for Inactive)
REMARK    1  A    between atoms: C2_2  and  C3_3 
REMARK    2  A    between atoms: C11_13  and  C12_14 
REMARK    3  A    between atoms: C12_14  and  O1_15 
REMARK    4  A    between atoms: O1_15  and  C13_16 
REMARK    5  A    between atoms: C13_16  and  C14_17 
REMARK    6  A    between atoms: C15_18  and  C16_19 
ROOT
HETATM    1  C16 UNL     1      33.177   8.579  44.938  1.00  0.00     0.150 C 
HETATM    2  C17 UNL     1      34.546   8.986  45.159  1.00  0.00     0.062 C 
HETATM    3  N3  UNL     1      35.650   9.296  45.328  1.00  0.00    -0.197 NA
ENDROOT
BRANCH   1   4
HETATM    4  C15 UNL     1      33.114   7.092  44.769  1.00  0.00    -0.015 C 
HETATM    5  C14 UNL     1      33.825   6.074  45.211  1.00  0.00    -0.004 C 
BRANCH   5   6
HETATM    6  C13 UNL     1      34.117   4.620  45.308  1.00  0.00     0.195 C 
BRANCH   6   7
HETATM    7  O1  UNL     1      33.156   3.921  46.000  1.00  0.00    -0.383 OA
BRANCH   7   8
HETATM    8  C12 UNL     1      33.249   3.981  47.364  1.00  0.00     0.206 C 
BRANCH   8   9
HETATM    9  C11 UNL     1      32.241   4.934  47.945  1.00  0.00    -0.032 A 
HETATM   10  C10 UNL     1      32.672   5.917  48.802  1.00  0.00     0.038 A 
HETATM   11  C9  UNL     1      31.770   6.800  49.349  1.00  0.00     0.031 A 
HETATM   12  N2  UNL     1      31.618   7.989  50.149  1.00  0.00    -0.357 N 
HETATM   13  C20 UNL     1      30.641   6.282  48.747  1.00  0.00     0.041 A 
HETATM   14  C7  UNL     1      30.805   8.908  49.313  1.00  0.00     0.343 C 
HETATM   15  H12 UNL     1      32.179   7.538  50.897  1.00  0.00     0.162 HD
HETATM   16  C6  UNL     1      31.031   8.651  47.855  1.00  0.00     0.030 C 
HETATM   17  N1  UNL     1      29.436   9.032  49.634  1.00  0.00     0.114 N 
HETATM   18  C5  UNL     1      30.063   7.988  47.252  1.00  0.00     0.009 C 
HETATM   19  C4  UNL     1      28.923   7.344  47.977  1.00  0.00    -0.023 C 
HETATM   20  C3  UNL     1      28.550   6.036  48.186  1.00  0.00    -0.040 C 
HETATM   21  C8  UNL     1      28.470   8.561  48.641  1.00  0.00     0.311 C 
HETATM   22  C19 UNL     1      29.848   5.420  47.922  1.00  0.00    -0.027 A 
HETATM   23  C18 UNL     1      30.952   4.703  47.539  1.00  0.00     0.021 A 
HETATM   24  H9  UNL     1      29.149   9.952  50.022  1.00  0.00     0.319 HD
BRANCH  20  25
HETATM   25  C2  UNL     1      27.800   4.863  48.632  1.00  0.00     0.035 C 
HETATM   26  C1  UNL     1      26.366   5.224  48.966  1.00  0.00     0.010 C 
ENDBRANCH  20  25
ENDBRANCH   8   9
ENDBRANCH   7   8
ENDBRANCH   6   7
ENDBRANCH   5   6
ENDBRANCH   1   4
TORSDOF 6
ENDMDL
MODEL 2
REMARK VINA RESULT:      -6.9      8.816     12.724
REMARK  6 active torsions:
REMARK  status: ('A' for Active; 'I' for Inactive)
REMARK    1  A    between atoms: C2_2  and  C3_3 
REMARK    2  A    between atoms: C11_13  and  C12_14 
REMARK    3  A    between atoms: C12_14  and  O1_15 
REMARK    4  A    between atoms: O1_15  and  C13_16 
REMARK    5  A    between atoms: C13_16  and  C14_17 
REMARK    6  A    between atoms: C15_18  and  C16_19 
ROOT
HETATM    1  C16 UNL     1      18.746   1.678  51.274  1.00  0.00     0.150 C 
HETATM    2  C17 UNL     1      17.334   1.915  51.084  1.00  0.00     0.062 C 
HETATM    3  N3  UNL     1      16.196   2.093  50.946  1.00  0.00    -0.197 NA
ENDROOT
BRANCH   1   4
HETATM    4  C15 UNL     1      18.949   0.351  51.940  1.00  0.00    -0.015 C 
HETATM    5  C14 UNL     1      19.694  -0.088  52.936  1.00  0.00    -0.004 C 
BRANCH   5   6
HETATM    6  C13 UNL     1      20.177  -1.164  53.839  1.00  0.00     0.195 C 
BRANCH   6   7
HETATM    7  O1  UNL     1      21.437  -1.612  53.520  1.00  0.00    -0.383 OA
BRANCH   7   8
HETATM    8  C12 UNL     1      22.324  -1.675  54.560  1.00  0.00     0.206 C 
BRANCH   8   9
HETATM    9  C11 UNL     1      23.506  -0.772  54.333  1.00  0.00    -0.032 A 
HETATM   10  C10 UNL     1      24.685  -1.045  54.981  1.00  0.00     0.038 A 
HETATM   11  C9  UNL     1      25.780  -0.234  54.792  1.00  0.00     0.031 A 
HETATM   12  N2  UNL     1      27.184  -0.060  55.072  1.00  0.00    -0.357 N 
HETATM   13  C20 UNL     1      25.185   0.651  53.915  1.00  0.00     0.041 A 
HETATM   14  C7  UNL     1      27.817   0.115  53.740  1.00  0.00     0.343 C 
HETATM   15  H12 UNL     1      26.977  -0.157  56.084  1.00  0.00     0.162 HD
HETATM   16  C6  UNL     1      27.044  -0.602  52.677  1.00  0.00     0.030 C 
HETATM   17  N1  UNL     1      28.166   1.429  53.360  1.00  0.00     0.114 N 
HETATM   18  C5  UNL     1      26.299   0.174  51.913  1.00  0.00     0.009 C 
HETATM   19  C4  UNL     1      26.055   1.624  52.192  1.00  0.00    -0.023 C 
HETATM   20  C3  UNL     1      24.943   2.343  52.564  1.00  0.00    -0.040 C 
HETATM   21  C8  UNL     1      27.463   2.005  52.213  1.00  0.00     0.311 C 
HETATM   22  C19 UNL     1      24.162   1.230  53.098  1.00  0.00    -0.027 A 
HETATM   23  C18 UNL     1      23.261   0.266  53.470  1.00  0.00     0.021 A 
HETATM   24  H9  UNL     1      29.185   1.623  53.304  1.00  0.00     0.319 HD
BRANCH  20  25
HETATM   25  C2  UNL     1      24.073   3.460  52.930  1.00  0.00     0.035 C 
HETATM   26  C1  UNL     1      22.883   3.557  51.994  1.00  0.00     0.010 C 
ENDBRANCH  20  25
ENDBRANCH   8   9
ENDBRANCH   7   8
ENDBRANCH   6   7
ENDBRANCH   5   6
ENDBRANCH   1   4
TORSDOF 6
ENDMDL
MODEL 3
REMARK VINA RESULT:      -6.7      8.383     10.189
REMARK  6 active torsions:
REMARK  status: ('A' for Active; 'I' for Inactive)
REMARK    1  A    between atoms: C2_2  and  C3_3 
REMARK    2  A    between atoms: C11_13  and  C12_14 
REMARK    3  A    between atoms: C12_14  and  O1_15 
REMARK    4  A    between atoms: O1_15  and  C13_16 
REMARK    5  A    between atoms: C13_16  and  C14_17 
REMARK    6  A    between atoms: C15_18  and  C16_19 
ROOT
HETATM    1  C16 UNL     1      27.176   1.869  51.898  1.00  0.00     0.150 C 
HETATM    2  C17 UNL     1      27.741   2.226  53.179  1.00  0.00     0.062 C 
HETATM    3  N3  UNL     1      28.186   2.497  54.214  1.00  0.00    -0.197 NA
ENDROOT
BRANCH   1   4
HETATM    4  C15 UNL     1      25.988   0.980  52.102  1.00  0.00    -0.015 C 
HETATM    5  C14 UNL     1      25.470   0.338  53.131  1.00  0.00    -0.004 C 
BRANCH   5   6
HETATM    6  C13 UNL     1      24.447  -0.547  53.747  1.00  0.00     0.195 C 
BRANCH   6   7
HETATM    7  O1  UNL     1      23.247  -0.532  53.077  1.00  0.00    -0.383 OA
BRANCH   7   8
HETATM    8  C12 UNL     1      22.381   0.465  53.437  1.00  0.00     0.206 C 
BRANCH   8   9
HETATM    9  C11 UNL     1      22.368   1.578  52.424  1.00  0.00    -0.032 A 
HETATM   10  C10 UNL     1      22.347   2.878  52.865  1.00  0.00     0.038 A 
HETATM   11  C9  UNL     1      22.333   3.914  51.961  1.00  0.00     0.031 A 
HETATM   12  N2  UNL     1      22.405   5.344  51.802  1.00  0.00    -0.357 N 
HETATM   13  C20 UNL     1      22.343   3.139  50.818  1.00  0.00     0.041 A 
HETATM   14  C7  UNL     1      23.509   5.564  50.834  1.00  0.00     0.343 C 
HETATM   15  H12 UNL     1      21.619   5.442  52.473  1.00  0.00     0.162 HD
HETATM   16  C6  UNL     1      24.528   4.470  50.922  1.00  0.00     0.030 C 
HETATM   17  N1  UNL     1      23.151   5.862  49.502  1.00  0.00     0.114 N 
HETATM   18  C5  UNL     1      24.472   3.580  49.951  1.00  0.00     0.009 C 
HETATM   19  C4  UNL     1      23.362   3.515  48.949  1.00  0.00    -0.023 C 
HETATM   20  C3  UNL     1      22.357   2.607  48.705  1.00  0.00    -0.040 C 
HETATM   21  C8  UNL     1      23.517   4.886  48.475  1.00  0.00     0.311 C 
HETATM   22  C19 UNL     1      22.363   1.955  50.011  1.00  0.00    -0.027 A 
HETATM   23  C18 UNL     1      22.376   1.150  51.121  1.00  0.00     0.021 A 
HETATM   24  H9  UNL     1      23.365   6.829  49.186  1.00  0.00     0.319 HD
BRANCH  20  25
HETATM   25  C2  UNL     1      21.198   1.952  48.101  1.00  0.00     0.035 C 
HETATM   26  C1  UNL     1      20.161   2.968  47.662  1.00  0.00     0.010 C 
ENDBRANCH  20  25
ENDBRANCH   8   9
ENDBRANCH   7   8
ENDBRANCH   6   7
ENDBRANCH   5   6
ENDBRANCH   1   4
TORSDOF 6
ENDMDL
MODEL 4
REMARK VINA RESULT:      -6.7      8.458     11.247
REMARK  6 active torsions:
REMARK  status: ('A' for Active; 'I' for Inactive)
REMARK    1  A    between atoms: C2_2  and  C3_3 
REMARK    2  A    between atoms: C11_13  and  C12_14 
REMARK    3  A    between atoms: C12_14  and  O1_15 
REMARK    4  A    between atoms: O1_15  and  C13_16 
REMARK    5  A    between atoms: C13_16  and  C14_17 
REMARK    6  A    between atoms: C15_18  and  C16_19 
ROOT
HETATM    1  C16 UNL     1      29.513  -0.393  53.871  1.00  0.00     0.150 C 
HETATM    2  C17 UNL     1      29.291   0.984  54.249  1.00  0.00     0.062 C 
HETATM    3  N3  UNL     1      29.094   2.085  54.555  1.00  0.00    -0.197 NA
ENDROOT
BRANCH   1   4
HETATM    4  C15 UNL     1      28.236  -0.989  53.365  1.00  0.00    -0.015 C 
HETATM    5  C14 UNL     1      26.961  -0.659  53.437  1.00  0.00    -0.004 C 
BRANCH   5   6
HETATM    6  C13 UNL     1      25.524  -0.895  53.139  1.00  0.00     0.195 C 
BRANCH   6   7
HETATM    7  O1  UNL     1      24.690  -0.502  54.159  1.00  0.00    -0.383 OA
BRANCH   7   8
HETATM    8  C12 UNL     1      23.352  -0.660  53.922  1.00  0.00     0.206 C 
BRANCH   8   9
HETATM    9  C11 UNL     1      22.850   0.331  52.906  1.00  0.00    -0.032 A 
HETATM   10  C10 UNL     1      21.835  -0.040  52.060  1.00  0.00     0.038 A 
HETATM   11  C9  UNL     1      21.360   0.846  51.121  1.00  0.00     0.031 A 
HETATM   12  N2  UNL     1      20.352   1.075  50.117  1.00  0.00    -0.357 N 
HETATM   13  C20 UNL     1      22.200   1.894  51.439  1.00  0.00     0.041 A 
HETATM   14  C7  UNL     1      19.724   2.366  50.496  1.00  0.00     0.343 C 
HETATM   15  H12 UNL     1      20.625   0.182  49.663  1.00  0.00     0.162 HD
HETATM   16  C6  UNL     1      19.793   2.585  51.976  1.00  0.00     0.030 C 
HETATM   17  N1  UNL     1      20.108   3.509  49.763  1.00  0.00     0.114 N 
HETATM   18  C5  UNL     1      20.714   3.445  52.367  1.00  0.00     0.009 C 
HETATM   19  C4  UNL     1      21.760   4.010  51.459  1.00  0.00    -0.023 C 
HETATM   20  C3  UNL     1      23.126   3.865  51.381  1.00  0.00    -0.040 C 
HETATM   21  C8  UNL     1      20.823   4.561  50.487  1.00  0.00     0.311 C 
HETATM   22  C19 UNL     1      23.231   2.614  52.126  1.00  0.00    -0.027 A 
HETATM   23  C18 UNL     1      23.492   1.543  52.942  1.00  0.00     0.021 A 
HETATM   24  H9  UNL     1      19.373   3.916  49.151  1.00  0.00     0.319 HD
BRANCH  20  25
HETATM   25  C2  UNL     1      24.514   4.017  50.944  1.00  0.00     0.035 C 
HETATM   26  C1  UNL     1      24.638   3.838  49.444  1.00  0.00     0.010 C 
ENDBRANCH  20  25
ENDBRANCH   8   9
ENDBRANCH   7   8
ENDBRANCH   6   7
ENDBRANCH   5   6
ENDBRANCH   1   4
TORSDOF 6
ENDMDL
MODEL 5
REMARK VINA RESULT:      -6.5      9.005     12.656
REMARK  6 active torsions:
REMARK  status: ('A' for Active; 'I' for Inactive)
REMARK    1  A    between atoms: C2_2  and  C3_3 
REMARK    2  A    between atoms: C11_13  and  C12_14 
REMARK    3  A    between atoms: C12_14  and  O1_15 
REMARK    4  A    between atoms: O1_15  and  C13_16 
REMARK    5  A    between atoms: C13_16  and  C14_17 
REMARK    6  A    between atoms: C15_18  and  C16_19 
ROOT
HETATM    1  C16 UNL     1      18.607  -0.172  51.608  1.00  0.00     0.150 C 
HETATM    2  C17 UNL     1      17.248  -0.130  52.097  1.00  0.00     0.062 C 
HETATM    3  N3  UNL     1      16.159  -0.078  52.490  1.00  0.00    -0.197 NA
ENDROOT
BRANCH   1   4
HETATM    4  C15 UNL     1      19.332   1.070  52.029  1.00  0.00    -0.015 C 
HETATM    5  C14 UNL     1      19.335   2.327  51.630  1.00  0.00    -0.004 C 
BRANCH   5   6
HETATM    6  C13 UNL     1      19.812   3.732  51.719  1.00  0.00     0.195 C 
BRANCH   6   7
HETATM    7  O1  UNL     1      21.020   3.932  51.092  1.00  0.00    -0.383 OA
BRANCH   7   8
HETATM    8  C12 UNL     1      22.068   4.244  51.913  1.00  0.00     0.206 C 
BRANCH   8   9
HETATM    9  C11 UNL     1      23.051   3.108  52.011  1.00  0.00    -0.032 A 
HETATM   10  C10 UNL     1      24.224   3.181  51.302  1.00  0.00     0.038 A 
HETATM   11  C9  UNL     1      25.138   2.156  51.372  1.00  0.00     0.031 A 
HETATM   12  N2  UNL     1      26.459   1.722  50.991  1.00  0.00    -0.357 N 
HETATM   13  C20 UNL     1      24.422   1.351  52.236  1.00  0.00     0.041 A 
HETATM   14  C7  UNL     1      27.113   1.333  52.266  1.00  0.00     0.343 C 
HETATM   15  H12 UNL     1      26.222   1.927  50.001  1.00  0.00     0.162 HD
HETATM   16  C6  UNL     1      26.562   2.117  53.416  1.00  0.00     0.030 C 
HETATM   17  N1  UNL     1      27.205  -0.047  52.548  1.00  0.00     0.114 N 
HETATM   18  C5  UNL     1      25.716   1.458  54.183  1.00  0.00     0.009 C 
HETATM   19  C4  UNL     1      25.165   0.109  53.841  1.00  0.00    -0.023 C 
HETATM   20  C3  UNL     1      23.911  -0.345  53.504  1.00  0.00    -0.040 C 
HETATM   21  C8  UNL     1      26.462  -0.545  53.706  1.00  0.00     0.311 C 
HETATM   22  C19 UNL     1      23.347   0.936  53.087  1.00  0.00    -0.027 A 
HETATM   23  C18 UNL     1      22.644   2.085  52.829  1.00  0.00     0.021 A 
HETATM   24  H9  UNL     1      28.165  -0.446  52.526  1.00  0.00     0.319 HD
BRANCH  20  25
HETATM   25  C2  UNL     1      22.812  -1.237  53.136  1.00  0.00     0.035 C 
HETATM   26  C1  UNL     1      21.830  -1.398  54.281  1.00  0.00     0.010 C 
ENDBRANCH  20  25
ENDBRANCH   8   9
ENDBRANCH   7   8
ENDBRANCH   6   7
ENDBRANCH   5   6
ENDBRANCH   1   4
TORSDOF 6
ENDMDL
MODEL 6
REMARK VINA RESULT:      -6.5      7.456      9.452
REMARK  6 active torsions:
REMARK  status: ('A' for Active; 'I' for Inactive)
REMARK    1  A    between atoms: C2_2  and  C3_3 
REMARK    2  A    between atoms: C11_13  and  C12_14 
REMARK    3  A    between atoms: C12_14  and  O1_15 
REMARK    4  A    between atoms: O1_15  and  C13_16 
REMARK    5  A    between atoms: C13_16  and  C14_17 
REMARK    6  A    between atoms: C15_18  and  C16_19 
ROOT
HETATM    1  C16 UNL     1      28.733  -0.507  53.851  1.00  0.00     0.150 C 
HETATM    2  C17 UNL     1      29.074   0.808  54.342  1.00  0.00     0.062 C 
HETATM    3  N3  UNL     1      29.330   1.870  54.733  1.00  0.00    -0.197 NA
ENDROOT
BRANCH   1   4
HETATM    4  C15 UNL     1      27.542  -0.414  52.947  1.00  0.00    -0.015 C 
HETATM    5  C14 UNL     1      26.436   0.304  52.934  1.00  0.00    -0.004 C 
BRANCH   5   6
HETATM    6  C13 UNL     1      25.136   0.702  52.334  1.00  0.00     0.195 C 
BRANCH   6   7
HETATM    7  O1  UNL     1      24.312   1.356  53.219  1.00  0.00    -0.383 OA
BRANCH   7   8
HETATM    8  C12 UNL     1      23.078   1.697  52.736  1.00  0.00     0.206 C 
BRANCH   8   9
HETATM    9  C11 UNL     1      23.130   2.974  51.940  1.00  0.00    -0.032 A 
HETATM   10  C10 UNL     1      23.710   4.084  52.501  1.00  0.00     0.038 A 
HETATM   11  C9  UNL     1      23.768   5.264  51.795  1.00  0.00     0.031 A 
HETATM   12  N2  UNL     1      24.282   6.610  51.786  1.00  0.00    -0.357 N 
HETATM   13  C20 UNL     1      23.136   4.809  50.655  1.00  0.00     0.041 A 
HETATM   14  C7  UNL     1      25.017   6.727  50.501  1.00  0.00     0.343 C 
HETATM   15  H12 UNL     1      23.842   6.767  52.713  1.00  0.00     0.162 HD
HETATM   16  C6  UNL     1      25.558   5.399  50.067  1.00  0.00     0.030 C 
HETATM   17  N1  UNL     1      24.376   7.418  49.451  1.00  0.00     0.114 N 
HETATM   18  C5  UNL     1      24.882   4.815  49.096  1.00  0.00     0.009 C 
HETATM   19  C4  UNL     1      23.560   5.307  48.595  1.00  0.00    -0.023 C 
HETATM   20  C3  UNL     1      22.279   4.806  48.652  1.00  0.00    -0.040 C 
HETATM   21  C8  UNL     1      24.024   6.647  48.258  1.00  0.00     0.311 C 
HETATM   22  C19 UNL     1      22.478   3.892  49.773  1.00  0.00    -0.027 A 
HETATM   23  C18 UNL     1      22.566   2.879  50.694  1.00  0.00     0.021 A 
HETATM   24  H9  UNL     1      24.801   8.330  49.189  1.00  0.00     0.319 HD
BRANCH  20  25
HETATM   25  C2  UNL     1      20.835   4.669  48.468  1.00  0.00     0.035 C 
HETATM   26  C1  UNL     1      20.437   4.948  47.031  1.00  0.00     0.010 C 
ENDBRANCH  20  25
ENDBRANCH   8   9
ENDBRANCH   7   8
ENDBRANCH   6   7
ENDBRANCH   5   6
ENDBRANCH   1   4
TORSDOF 6
ENDMDL
MODEL 7
REMARK VINA RESULT:      -6.5      8.357     11.927
REMARK  6 active torsions:
REMARK  status: ('A' for Active; 'I' for Inactive)
REMARK    1  A    between atoms: C2_2  and  C3_3 
REMARK    2  A    between atoms: C11_13  and  C12_14 
REMARK    3  A    between atoms: C12_14  and  O1_15 
REMARK    4  A    between atoms: O1_15  and  C13_16 
REMARK    5  A    between atoms: C13_16  and  C14_17 
REMARK    6  A    between atoms: C15_18  and  C16_19 
ROOT
HETATM    1  C16 UNL     1      25.426   0.066  53.615  1.00  0.00     0.150 C 
HETATM    2  C17 UNL     1      26.638  -0.069  54.391  1.00  0.00     0.062 C 
HETATM    3  N3  UNL     1      27.603  -0.194  55.022  1.00  0.00    -0.197 NA
ENDROOT
BRANCH   1   4
HETATM    4  C15 UNL     1      24.312  -0.676  54.287  1.00  0.00    -0.015 C 
HETATM    5  C14 UNL     1      23.012  -0.779  54.094  1.00  0.00    -0.004 C 
BRANCH   5   6
HETATM    6  C13 UNL     1      21.671  -1.315  54.445  1.00  0.00     0.195 C 
BRANCH   6   7
HETATM    7  O1  UNL     1      20.650  -0.712  53.749  1.00  0.00    -0.383 OA
BRANCH   7   8
HETATM    8  C12 UNL     1      20.706   0.653  53.681  1.00  0.00     0.206 C 
BRANCH   8   9
HETATM    9  C11 UNL     1      21.284   1.119  52.372  1.00  0.00    -0.032 A 
HETATM   10  C10 UNL     1      20.781   0.605  51.203  1.00  0.00     0.038 A 
HETATM   11  C9  UNL     1      21.294   1.012  49.993  1.00  0.00     0.031 A 
HETATM   12  N2  UNL     1      21.146   0.935  48.561  1.00  0.00    -0.357 N 
HETATM   13  C20 UNL     1      22.236   1.887  50.495  1.00  0.00     0.041 A 
HETATM   14  C7  UNL     1      21.079   2.348  48.110  1.00  0.00     0.343 C 
HETATM   15  H12 UNL     1      21.168  -0.101  48.631  1.00  0.00     0.162 HD
HETATM   16  C6  UNL     1      20.499   3.227  49.174  1.00  0.00     0.030 C 
HETATM   17  N1  UNL     1      22.244   2.897  47.533  1.00  0.00     0.114 N 
HETATM   18  C5  UNL     1      21.378   3.960  49.829  1.00  0.00     0.009 C 
HETATM   19  C4  UNL     1      22.859   3.796  49.694  1.00  0.00    -0.023 C 
HETATM   20  C3  UNL     1      23.845   3.355  50.547  1.00  0.00    -0.040 C 
HETATM   21  C8  UNL     1      22.894   3.995  48.250  1.00  0.00     0.311 C 
HETATM   22  C19 UNL     1      22.988   2.619  51.471  1.00  0.00    -0.027 A 
HETATM   23  C18 UNL     1      22.292   2.040  52.501  1.00  0.00     0.021 A 
HETATM   24  H9  UNL     1      22.186   3.104  46.516  1.00  0.00     0.319 HD
BRANCH  20  25
HETATM   25  C2  UNL     1      25.159   2.992  51.077  1.00  0.00     0.035 C 
HETATM   26  C1  UNL     1      26.256   3.291  50.074  1.00  0.00     0.010 C 
ENDBRANCH  20  25
ENDBRANCH   8   9
ENDBRANCH   7   8
ENDBRANCH   6   7
ENDBRANCH   5   6
ENDBRANCH   1   4
TORSDOF 6
ENDMDL
MODEL 8
REMARK VINA RESULT:      -6.4      3.125      5.466
REMARK  6 active torsions:
REMARK  status: ('A' for Active; 'I' for Inactive)
REMARK    1  A    between atoms: C2_2  and  C3_3 
REMARK    2  A    between atoms: C11_13  and  C12_14 
REMARK    3  A    between atoms: C12_14  and  O1_15 
REMARK    4  A    between atoms: O1_15  and  C13_16 
REMARK    5  A    between atoms: C13_16  and  C14_17 
REMARK    6  A    between atoms: C15_18  and  C16_19 
ROOT
HETATM    1  C16 UNL     1      32.891   4.254  46.197  1.00  0.00     0.150 C 
HETATM    2  C17 UNL     1      34.136   3.662  46.631  1.00  0.00     0.062 C 
HETATM    3  N3  UNL     1      35.127   3.184  46.996  1.00  0.00    -0.197 NA
ENDROOT
BRANCH   1   4
HETATM    4  C15 UNL     1      32.105   4.703  47.390  1.00  0.00    -0.015 C 
HETATM    5  C14 UNL     1      31.630   5.859  47.812  1.00  0.00    -0.004 C 
BRANCH   5   6
HETATM    6  C13 UNL     1      30.891   6.696  48.793  1.00  0.00     0.195 C 
BRANCH   6   7
HETATM    7  O1  UNL     1      29.854   7.401  48.228  1.00  0.00    -0.383 OA
BRANCH   7   8
HETATM    8  C12 UNL     1      28.918   6.651  47.571  1.00  0.00     0.206 C 
BRANCH   8   9
HETATM    9  C11 UNL     1      27.753   6.316  48.462  1.00  0.00    -0.032 A 
HETATM   10  C10 UNL     1      27.074   7.336  49.080  1.00  0.00     0.038 A 
HETATM   11  C9  UNL     1      26.006   7.057  49.901  1.00  0.00     0.031 A 
HETATM   12  N2  UNL     1      24.931   7.625  50.676  1.00  0.00    -0.357 N 
HETATM   13  C20 UNL     1      26.045   5.684  49.766  1.00  0.00     0.041 A 
HETATM   14  C7  UNL     1      23.706   6.950  50.178  1.00  0.00     0.343 C 
HETATM   15  H12 UNL     1      25.625   8.215  51.175  1.00  0.00     0.162 HD
HETATM   16  C6  UNL     1      23.860   6.544  48.745  1.00  0.00     0.030 C 
HETATM   17  N1  UNL     1      23.168   5.918  50.976  1.00  0.00     0.114 N 
HETATM   18  C5  UNL     1      24.089   5.259  48.553  1.00  0.00     0.009 C 
HETATM   19  C4  UNL     1      24.390   4.297  49.660  1.00  0.00    -0.023 C 
HETATM   20  C3  UNL     1      25.513   3.586  50.018  1.00  0.00    -0.040 C 
HETATM   21  C8  UNL     1      23.174   4.566  50.418  1.00  0.00     0.311 C 
HETATM   22  C19 UNL     1      26.494   4.402  49.309  1.00  0.00    -0.027 A 
HETATM   23  C18 UNL     1      27.492   4.973  48.562  1.00  0.00     0.021 A 
HETATM   24  H9  UNL     1      22.253   6.129  51.424  1.00  0.00     0.319 HD
BRANCH  20  25
HETATM   25  C2  UNL     1      26.408   2.678  50.733  1.00  0.00     0.035 C 
HETATM   26  C1  UNL     1      25.842   2.304  52.089  1.00  0.00     0.010 C 
ENDBRANCH  20  25
ENDBRANCH   8   9
ENDBRANCH   7   8
ENDBRANCH   6   7
ENDBRANCH   5   6
ENDBRANCH   1   4
TORSDOF 6
ENDMDL
MODEL 9
REMARK VINA RESULT:      -6.4      7.320     11.041
REMARK  6 active torsions:
REMARK  status: ('A' for Active; 'I' for Inactive)
REMARK    1  A    between atoms: C2_2  and  C3_3 
REMARK    2  A    between atoms: C11_13  and  C12_14 
REMARK    3  A    between atoms: C12_14  and  O1_15 
REMARK    4  A    between atoms: O1_15  and  C13_16 
REMARK    5  A    between atoms: C13_16  and  C14_17 
REMARK    6  A    between atoms: C15_18  and  C16_19 
ROOT
HETATM    1  C16 UNL     1      25.969   4.964  49.524  1.00  0.00     0.150 C 
HETATM    2  C17 UNL     1      24.593   4.862  49.095  1.00  0.00     0.062 C 
HETATM    3  N3  UNL     1      23.487   4.764  48.760  1.00  0.00    -0.197 NA
ENDROOT
BRANCH   1   4
HETATM    4  C15 UNL     1      26.498   3.601  49.847  1.00  0.00    -0.015 C 
HETATM    5  C14 UNL     1      26.409   2.788  50.882  1.00  0.00    -0.004 C 
BRANCH   5   6
HETATM    6  C13 UNL     1      26.716   1.511  51.579  1.00  0.00     0.195 C 
BRANCH   6   7
HETATM    7  O1  UNL     1      25.724   1.120  52.447  1.00  0.00    -0.383 OA
BRANCH   7   8
HETATM    8  C12 UNL     1      25.023   2.134  53.040  1.00  0.00     0.206 C 
BRANCH   8   9
HETATM    9  C11 UNL     1      23.568   2.098  52.658  1.00  0.00    -0.032 A 
HETATM   10  C10 UNL     1      22.967   3.252  52.222  1.00  0.00     0.038 A 
HETATM   11  C9  UNL     1      21.637   3.247  51.868  1.00  0.00     0.031 A 
HETATM   12  N2  UNL     1      20.564   4.021  51.297  1.00  0.00    -0.357 N 
HETATM   13  C20 UNL     1      21.400   1.912  52.127  1.00  0.00     0.041 A 
HETATM   14  C7  UNL     1      20.046   3.188  50.182  1.00  0.00     0.343 C 
HETATM   15  H12 UNL     1      20.746   4.762  52.001  1.00  0.00     0.162 HD
HETATM   16  C6  UNL     1      21.125   2.319  49.613  1.00  0.00     0.030 C 
HETATM   17  N1  UNL     1      18.846   2.480  50.409  1.00  0.00     0.114 N 
HETATM   18  C5  UNL     1      21.066   1.052  49.976  1.00  0.00     0.009 C 
HETATM   19  C4  UNL     1      20.142   0.535  51.034  1.00  0.00    -0.023 C 
HETATM   20  C3  UNL     1      20.340   0.016  52.293  1.00  0.00    -0.040 C 
HETATM   21  C8  UNL     1      18.919   1.019  50.406  1.00  0.00     0.311 C 
HETATM   22  C19 UNL     1      21.674   0.562  52.521  1.00  0.00    -0.027 A 
HETATM   23  C18 UNL     1      22.983   0.865  52.796  1.00  0.00     0.021 A 
HETATM   24  H9  UNL     1      18.023   2.810  49.867  1.00  0.00     0.319 HD
BRANCH  20  25
HETATM   25  C2  UNL     1      20.080  -0.572  53.607  1.00  0.00     0.035 C 
HETATM   26  C1  UNL     1      18.889  -1.509  53.562  1.00  0.00     0.010 C 
ENDBRANCH  20  25
ENDBRANCH   8   9
ENDBRANCH   7   8
ENDBRANCH   6   7
ENDBRANCH   5   6
ENDBRANCH   1   4
TORSDOF 6
ENDMDL
