MODEL 1
REMARK VINA RESULT:      -7.8      0.000      0.000
REMARK  4 active torsions:
REMARK  status: ('A' for Active; 'I' for Inactive)
REMARK    1  A    between atoms: O1_2  and  C2_3 
REMARK    2  A    between atoms: C2_3  and  C3_4 
REMARK    3  A    between atoms: C4_5  and  C5_6 
REMARK    4  A    between atoms: C5_6  and  C6_8 
ROOT
HETATM    1  C6  UNL     1      25.895   1.533  52.000  1.00  0.00     0.120 C 
HETATM    2  C7  UNL     1      24.609   0.938  52.424  1.00  0.00     0.193 C 
HETATM    3  O3  UNL     1      24.851  -0.118  53.359  1.00  0.00    -0.344 OA
HETATM    4  C8  UNL     1      23.708  -0.867  53.771  1.00  0.00     0.247 C 
HETATM    5  N1  UNL     1      22.535  -1.119  54.196  1.00  0.00    -0.259 NA
HETATM    6  C9  UNL     1      21.620  -0.088  54.535  1.00  0.00     0.271 C 
HETATM    7  N2  UNL     1      20.720   0.227  53.462  1.00  0.00    -0.380 N 
HETATM    8  C10 UNL     1      21.253   0.763  52.258  1.00  0.00     0.103 C 
HETATM    9  C11 UNL     1      21.515   1.930  51.637  1.00  0.00     0.128 C 
HETATM   10  N3  UNL     1      21.981   2.788  50.573  1.00  0.00    -0.282 N 
HETATM   11  C12 UNL     1      20.901   3.373  49.847  1.00  0.00     0.179 C 
HETATM   12  N4  UNL     1      23.284   2.532  50.892  1.00  0.00    -0.155 NA
HETATM   13  C13 UNL     1      24.357   3.037  50.457  1.00  0.00     0.150 A 
HETATM   14  N5  UNL     1      24.666   4.037  49.500  1.00  0.00    -0.370 N 
HETATM   15  C14 UNL     1      26.102   4.210  49.406  1.00  0.00     0.149 A 
HETATM   16  C15 UNL     1      26.626   3.247  50.369  1.00  0.00     0.004 A 
HETATM   17  C16 UNL     1      25.657   2.583  50.967  1.00  0.00     0.001 A 
HETATM   18  H14 UNL     1      19.780   0.300  52.995  1.00  0.00     0.160 HD
HETATM   19  H20 UNL     1      23.931   4.551  48.962  1.00  0.00     0.161 HD
ENDROOT
BRANCH   1  20
HETATM   20  C5  UNL     1      26.617   2.077  53.171  1.00  0.00     0.159 C 
HETATM   21  O2  UNL     1      25.963   2.554  54.149  1.00  0.00    -0.292 OA
BRANCH  20  22
HETATM   22  C4  UNL     1      28.054   2.066  53.209  1.00  0.00     0.049 C 
HETATM   23  C3  UNL     1      28.803   1.228  53.908  1.00  0.00     0.003 C 
BRANCH  23  24
HETATM   24  C2  UNL     1      28.554   0.103  54.820  1.00  0.00     0.194 C 
BRANCH  24  25
HETATM   25  O1  UNL     1      28.269  -1.058  54.098  1.00  0.00    -0.392 OA
HETATM   26  C1  UNL     1      29.395  -1.496  53.414  1.00  0.00     0.201 C 
ENDBRANCH  24  25
ENDBRANCH  23  24
ENDBRANCH  20  22
ENDBRANCH   1  20
TORSDOF 4
ENDMDL
MODEL 2
REMARK VINA RESULT:      -7.6      2.333      5.172
REMARK  4 active torsions:
REMARK  status: ('A' for Active; 'I' for Inactive)
REMARK    1  A    between atoms: O1_2  and  C2_3 
REMARK    2  A    between atoms: C2_3  and  C3_4 
REMARK    3  A    between atoms: C4_5  and  C5_6 
REMARK    4  A    between atoms: C5_6  and  C6_8 
ROOT
HETATM    1  C6  UNL     1      23.875   2.050  50.814  1.00  0.00     0.120 C 
HETATM    2  C7  UNL     1      24.654   1.308  51.829  1.00  0.00     0.193 C 
HETATM    3  O3  UNL     1      26.040   1.645  51.715  1.00  0.00    -0.344 OA
HETATM    4  C8  UNL     1      26.935   0.917  52.556  1.00  0.00     0.247 C 
HETATM    5  N1  UNL     1      27.424   0.389  53.605  1.00  0.00    -0.259 NA
HETATM    6  C9  UNL     1      26.786   0.495  54.868  1.00  0.00     0.271 C 
HETATM    7  N2  UNL     1      25.967  -0.645  55.171  1.00  0.00    -0.380 N 
HETATM    8  C10 UNL     1      24.837  -0.912  54.351  1.00  0.00     0.103 C 
HETATM    9  C11 UNL     1      23.512  -0.686  54.258  1.00  0.00     0.128 C 
HETATM   10  N3  UNL     1      22.193  -0.764  53.675  1.00  0.00    -0.282 N 
HETATM   11  C12 UNL     1      21.347  -1.666  54.388  1.00  0.00     0.179 C 
HETATM   12  N4  UNL     1      22.533   0.135  52.704  1.00  0.00    -0.155 NA
HETATM   13  C13 UNL     1      21.831   0.702  51.820  1.00  0.00     0.150 A 
HETATM   14  N5  UNL     1      20.458   0.660  51.465  1.00  0.00    -0.370 N 
HETATM   15  C14 UNL     1      20.207   1.539  50.341  1.00  0.00     0.149 A 
HETATM   16  C15 UNL     1      21.520   2.106  50.051  1.00  0.00     0.004 A 
HETATM   17  C16 UNL     1      22.440   1.645  50.874  1.00  0.00     0.001 A 
HETATM   18  H14 UNL     1      25.685  -1.501  55.716  1.00  0.00     0.160 HD
HETATM   19  H20 UNL     1      19.762   0.065  51.970  1.00  0.00     0.161 HD
ENDROOT
BRANCH   1  20
HETATM   20  C5  UNL     1      24.038   3.507  51.009  1.00  0.00     0.159 C 
HETATM   21  O2  UNL     1      23.916   4.004  52.170  1.00  0.00    -0.292 OA
BRANCH  20  22
HETATM   22  C4  UNL     1      24.335   4.361  49.893  1.00  0.00     0.049 C 
HETATM   23  C3  UNL     1      25.513   4.475  49.298  1.00  0.00     0.003 C 
BRANCH  23  24
HETATM   24  C2  UNL     1      26.844   3.878  49.474  1.00  0.00     0.194 C 
BRANCH  24  25
HETATM   25  O1  UNL     1      27.773   4.503  48.640  1.00  0.00    -0.392 OA
HETATM   26  C1  UNL     1      27.485   5.855  48.515  1.00  0.00     0.201 C 
ENDBRANCH  24  25
ENDBRANCH  23  24
ENDBRANCH  20  22
ENDBRANCH   1  20
TORSDOF 4
ENDMDL
MODEL 3
REMARK VINA RESULT:      -7.5      2.941      7.217
REMARK  4 active torsions:
REMARK  status: ('A' for Active; 'I' for Inactive)
REMARK    1  A    between atoms: O1_2  and  C2_3 
REMARK    2  A    between atoms: C2_3  and  C3_4 
REMARK    3  A    between atoms: C4_5  and  C5_6 
REMARK    4  A    between atoms: C5_6  and  C6_8 
ROOT
HETATM    1  C6  UNL     1      21.758   0.318  51.898  1.00  0.00     0.120 C 
HETATM    2  C7  UNL     1      22.792   1.234  51.370  1.00  0.00     0.193 C 
HETATM    3  O3  UNL     1      22.324   1.849  50.166  1.00  0.00    -0.344 OA
HETATM    4  C8  UNL     1      23.262   2.674  49.475  1.00  0.00     0.247 C 
HETATM    5  N1  UNL     1      24.143   3.570  49.275  1.00  0.00    -0.259 NA
HETATM    6  C9  UNL     1      24.637   4.387  50.324  1.00  0.00     0.271 C 
HETATM    7  N2  UNL     1      25.862   3.888  50.883  1.00  0.00    -0.380 N 
HETATM    8  C10 UNL     1      25.849   2.628  51.542  1.00  0.00     0.103 C 
HETATM    9  C11 UNL     1      25.717   2.066  52.760  1.00  0.00     0.128 C 
HETATM   10  N3  UNL     1      25.650   0.990  53.722  1.00  0.00    -0.282 N 
HETATM   11  C12 UNL     1      26.837   0.905  54.510  1.00  0.00     0.179 C 
HETATM   12  N4  UNL     1      24.399   0.644  53.296  1.00  0.00    -0.155 NA
HETATM   13  C13 UNL     1      23.571  -0.191  53.758  1.00  0.00     0.150 A 
HETATM   14  N5  UNL     1      23.573  -1.087  54.858  1.00  0.00    -0.370 N 
HETATM   15  C14 UNL     1      22.324  -1.820  54.906  1.00  0.00     0.149 A 
HETATM   16  C15 UNL     1      21.580  -1.302  53.762  1.00  0.00     0.004 A 
HETATM   17  C16 UNL     1      22.268  -0.387  53.110  1.00  0.00     0.001 A 
HETATM   18  H14 UNL     1      26.889   3.919  51.115  1.00  0.00     0.160 HD
HETATM   19  H20 UNL     1      24.382  -1.173  55.514  1.00  0.00     0.161 HD
ENDROOT
BRANCH   1  20
HETATM   20  C5  UNL     1      20.514   1.064  52.186  1.00  0.00     0.159 C 
HETATM   21  O2  UNL     1      20.526   2.003  53.040  1.00  0.00    -0.292 OA
BRANCH  20  22
HETATM   22  C4  UNL     1      19.293   0.734  51.503  1.00  0.00     0.049 C 
HETATM   23  C3  UNL     1      18.374  -0.117  51.931  1.00  0.00     0.003 C 
BRANCH  23  24
HETATM   24  C2  UNL     1      18.202  -0.978  53.110  1.00  0.00     0.194 C 
BRANCH  24  25
HETATM   25  O1  UNL     1      17.202  -1.925  52.881  1.00  0.00    -0.392 OA
HETATM   26  C1  UNL     1      17.465  -3.092  53.586  1.00  0.00     0.201 C 
ENDBRANCH  24  25
ENDBRANCH  23  24
ENDBRANCH  20  22
ENDBRANCH   1  20
TORSDOF 4
ENDMDL
MODEL 4
REMARK VINA RESULT:      -7.3      2.741      6.923
REMARK  4 active torsions:
REMARK  status: ('A' for Active; 'I' for Inactive)
REMARK    1  A    between atoms: O1_2  and  C2_3 
REMARK    2  A    between atoms: C2_3  and  C3_4 
REMARK    3  A    between atoms: C4_5  and  C5_6 
REMARK    4  A    between atoms: C5_6  and  C6_8 
ROOT
HETATM    1  C6  UNL     1      21.821   0.682  51.560  1.00  0.00     0.120 C 
HETATM    2  C7  UNL     1      23.003   1.457  51.127  1.00  0.00     0.193 C 
HETATM    3  O3  UNL     1      22.713   2.138  49.903  1.00  0.00    -0.344 OA
HETATM    4  C8  UNL     1      23.801   2.837  49.298  1.00  0.00     0.247 C 
HETATM    5  N1  UNL     1      24.805   3.610  49.180  1.00  0.00    -0.259 NA
HETATM    6  C9  UNL     1      25.322   4.346  50.278  1.00  0.00     0.271 C 
HETATM    7  N2  UNL     1      26.425   3.684  50.916  1.00  0.00    -0.380 N 
HETATM    8  C10 UNL     1      26.196   2.432  51.550  1.00  0.00     0.103 C 
HETATM    9  C11 UNL     1      25.899   1.883  52.744  1.00  0.00     0.128 C 
HETATM   10  N3  UNL     1      25.619   0.817  53.679  1.00  0.00    -0.282 N 
HETATM   11  C12 UNL     1      26.720   0.569  54.551  1.00  0.00     0.179 C 
HETATM   12  N4  UNL     1      24.368   0.643  53.156  1.00  0.00    -0.155 NA
HETATM   13  C13 UNL     1      23.405  -0.078  53.539  1.00  0.00     0.150 A 
HETATM   14  N5  UNL     1      23.206  -0.976  54.620  1.00  0.00    -0.370 N 
HETATM   15  C14 UNL     1      21.871  -1.537  54.562  1.00  0.00     0.149 A 
HETATM   16  C15 UNL     1      21.290  -0.915  53.376  1.00  0.00     0.004 A 
HETATM   17  C16 UNL     1      22.140  -0.094  52.794  1.00  0.00     0.001 A 
HETATM   18  H14 UNL     1      27.426   3.577  51.224  1.00  0.00     0.160 HD
HETATM   19  H20 UNL     1      23.945  -1.174  55.333  1.00  0.00     0.161 HD
ENDROOT
BRANCH   1  20
HETATM   20  C5  UNL     1      20.668   1.585  51.769  1.00  0.00     0.159 C 
HETATM   21  O2  UNL     1      19.581   1.372  51.150  1.00  0.00    -0.292 OA
BRANCH  20  22
HETATM   22  C4  UNL     1      20.772   2.700  52.670  1.00  0.00     0.049 C 
HETATM   23  C3  UNL     1      20.826   3.975  52.318  1.00  0.00     0.003 C 
BRANCH  23  24
HETATM   24  C2  UNL     1      20.808   4.721  51.052  1.00  0.00     0.194 C 
BRANCH  24  25
HETATM   25  O1  UNL     1      21.968   5.487  50.920  1.00  0.00    -0.392 OA
HETATM   26  C1  UNL     1      21.654   6.837  50.839  1.00  0.00     0.201 C 
ENDBRANCH  24  25
ENDBRANCH  23  24
ENDBRANCH  20  22
ENDBRANCH   1  20
TORSDOF 4
ENDMDL
MODEL 5
REMARK VINA RESULT:      -7.2      2.804      5.893
REMARK  4 active torsions:
REMARK  status: ('A' for Active; 'I' for Inactive)
REMARK    1  A    between atoms: O1_2  and  C2_3 
REMARK    2  A    between atoms: C2_3  and  C3_4 
REMARK    3  A    between atoms: C4_5  and  C5_6 
REMARK    4  A    between atoms: C5_6  and  C6_8 
ROOT
HETATM    1  C6  UNL     1      23.919   2.035  50.674  1.00  0.00     0.120 C 
HETATM    2  C7  UNL     1      24.716   1.365  51.724  1.00  0.00     0.193 C 
HETATM    3  O3  UNL     1      26.084   1.773  51.628  1.00  0.00    -0.344 OA
HETATM    4  C8  UNL     1      26.999   1.118  52.505  1.00  0.00     0.247 C 
HETATM    5  N1  UNL     1      27.494   0.646  53.578  1.00  0.00    -0.259 NA
HETATM    6  C9  UNL     1      26.825   0.750  54.825  1.00  0.00     0.271 C 
HETATM    7  N2  UNL     1      26.063  -0.424  55.144  1.00  0.00    -0.380 N 
HETATM    8  C10 UNL     1      24.966  -0.775  54.309  1.00  0.00     0.103 C 
HETATM    9  C11 UNL     1      23.633  -0.623  54.185  1.00  0.00     0.128 C 
HETATM   10  N3  UNL     1      22.332  -0.789  53.579  1.00  0.00    -0.282 N 
HETATM   11  C12 UNL     1      21.522  -1.716  54.300  1.00  0.00     0.179 C 
HETATM   12  N4  UNL     1      22.643   0.101  52.590  1.00  0.00    -0.155 NA
HETATM   13  C13 UNL     1      21.930   0.606  51.678  1.00  0.00     0.150 A 
HETATM   14  N5  UNL     1      20.569   0.479  51.298  1.00  0.00    -0.370 N 
HETATM   15  C14 UNL     1      20.294   1.313  50.145  1.00  0.00     0.149 A 
HETATM   16  C15 UNL     1      21.581   1.943  49.864  1.00  0.00     0.004 A 
HETATM   17  C16 UNL     1      22.507   1.555  50.718  1.00  0.00     0.001 A 
HETATM   18  H14 UNL     1      25.817  -1.280  55.706  1.00  0.00     0.160 HD
HETATM   19  H20 UNL     1      19.896  -0.139  51.805  1.00  0.00     0.161 HD
ENDROOT
BRANCH   1  20
HETATM   20  C5  UNL     1      23.999   3.504  50.832  1.00  0.00     0.159 C 
HETATM   21  O2  UNL     1      24.472   4.214  49.893  1.00  0.00    -0.292 OA
BRANCH  20  22
HETATM   22  C4  UNL     1      23.543   4.130  52.043  1.00  0.00     0.049 C 
HETATM   23  C3  UNL     1      22.522   4.966  52.143  1.00  0.00     0.003 C 
BRANCH  23  24
HETATM   24  C2  UNL     1      21.541   5.547  51.216  1.00  0.00     0.194 C 
BRANCH  24  25
HETATM   25  O1  UNL     1      21.618   6.941  51.233  1.00  0.00    -0.392 OA
HETATM   26  C1  UNL     1      22.100   7.418  50.022  1.00  0.00     0.201 C 
ENDBRANCH  24  25
ENDBRANCH  23  24
ENDBRANCH  20  22
ENDBRANCH   1  20
TORSDOF 4
ENDMDL
MODEL 6
REMARK VINA RESULT:      -7.0      2.719      5.554
REMARK  4 active torsions:
REMARK  status: ('A' for Active; 'I' for Inactive)
REMARK    1  A    between atoms: O1_2  and  C2_3 
REMARK    2  A    between atoms: C2_3  and  C3_4 
REMARK    3  A    between atoms: C4_5  and  C5_6 
REMARK    4  A    between atoms: C5_6  and  C6_8 
ROOT
HETATM    1  C6  UNL     1      21.869   1.535  53.115  1.00  0.00     0.120 C 
HETATM    2  C7  UNL     1      20.728   2.124  52.381  1.00  0.00     0.193 C 
HETATM    3  O3  UNL     1      21.074   3.434  51.921  1.00  0.00    -0.344 OA
HETATM    4  C8  UNL     1      20.029   4.177  51.294  1.00  0.00     0.247 C 
HETATM    5  N1  UNL     1      19.059   4.450  50.517  1.00  0.00    -0.259 NA
HETATM    6  C9  UNL     1      18.545   3.504  49.592  1.00  0.00     0.271 C 
HETATM    7  N2  UNL     1      17.403   2.799  50.101  1.00  0.00    -0.380 N 
HETATM    8  C10 UNL     1      17.567   1.962  51.239  1.00  0.00     0.103 C 
HETATM    9  C11 UNL     1      17.813   0.686  51.594  1.00  0.00     0.128 C 
HETATM   10  N3  UNL     1      18.030  -0.419  52.500  1.00  0.00    -0.282 N 
HETATM   11  C12 UNL     1      16.899  -1.286  52.562  1.00  0.00     0.179 C 
HETATM   12  N4  UNL     1      19.284   0.031  52.801  1.00  0.00    -0.155 NA
HETATM   13  C13 UNL     1      20.209  -0.494  53.482  1.00  0.00     0.150 A 
HETATM   14  N5  UNL     1      20.347  -1.713  54.196  1.00  0.00    -0.370 N 
HETATM   15  C14 UNL     1      21.660  -1.788  54.805  1.00  0.00     0.149 A 
HETATM   16  C15 UNL     1      22.292  -0.534  54.408  1.00  0.00     0.004 A 
HETATM   17  C16 UNL     1      21.489   0.200  53.665  1.00  0.00     0.001 A 
HETATM   18  H14 UNL     1      16.391   2.508  50.121  1.00  0.00     0.160 HD
HETATM   19  H20 UNL     1      19.584  -2.427  54.248  1.00  0.00     0.161 HD
ENDROOT
BRANCH   1  20
HETATM   20  C5  UNL     1      23.051   1.442  52.230  1.00  0.00     0.159 C 
HETATM   21  O2  UNL     1      22.928   0.963  51.062  1.00  0.00    -0.292 OA
BRANCH  20  22
HETATM   22  C4  UNL     1      24.337   1.893  52.687  1.00  0.00     0.049 C 
HETATM   23  C3  UNL     1      25.366   1.117  52.989  1.00  0.00     0.003 C 
BRANCH  23  24
HETATM   24  C2  UNL     1      25.629  -0.329  52.996  1.00  0.00     0.194 C 
BRANCH  24  25
HETATM   25  O1  UNL     1      26.025  -0.746  54.268  1.00  0.00    -0.392 OA
HETATM   26  C1  UNL     1      26.843   0.205  54.862  1.00  0.00     0.201 C 
ENDBRANCH  24  25
ENDBRANCH  23  24
ENDBRANCH  20  22
ENDBRANCH   1  20
TORSDOF 4
ENDMDL
MODEL 7
REMARK VINA RESULT:      -7.0      2.089      2.932
REMARK  4 active torsions:
REMARK  status: ('A' for Active; 'I' for Inactive)
REMARK    1  A    between atoms: O1_2  and  C2_3 
REMARK    2  A    between atoms: C2_3  and  C3_4 
REMARK    3  A    between atoms: C4_5  and  C5_6 
REMARK    4  A    between atoms: C5_6  and  C6_8 
ROOT
HETATM    1  C6  UNL     1      24.871   2.492  50.414  1.00  0.00     0.120 C 
HETATM    2  C7  UNL     1      23.421   2.516  50.702  1.00  0.00     0.193 C 
HETATM    3  O3  UNL     1      23.001   1.232  51.176  1.00  0.00    -0.344 OA
HETATM    4  C8  UNL     1      21.599   1.067  51.386  1.00  0.00     0.247 C 
HETATM    5  N1  UNL     1      20.416   1.306  51.787  1.00  0.00    -0.259 NA
HETATM    6  C9  UNL     1      20.097   2.463  52.545  1.00  0.00     0.271 C 
HETATM    7  N2  UNL     1      19.598   3.535  51.731  1.00  0.00    -0.380 N 
HETATM    8  C10 UNL     1      20.459   4.113  50.758  1.00  0.00     0.103 C 
HETATM    9  C11 UNL     1      21.331   5.123  50.574  1.00  0.00     0.128 C 
HETATM   10  N3  UNL     1      22.278   5.941  49.851  1.00  0.00    -0.282 N 
HETATM   11  C12 UNL     1      21.717   7.196  49.472  1.00  0.00     0.179 C 
HETATM   12  N4  UNL     1      23.239   4.974  49.951  1.00  0.00    -0.155 NA
HETATM   13  C13 UNL     1      24.462   4.990  49.639  1.00  0.00     0.150 A 
HETATM   14  N5  UNL     1      25.332   5.961  49.079  1.00  0.00    -0.370 N 
HETATM   15  C14 UNL     1      26.665   5.413  48.936  1.00  0.00     0.149 A 
HETATM   16  C15 UNL     1      26.532   4.052  49.447  1.00  0.00     0.004 A 
HETATM   17  C16 UNL     1      25.301   3.803  49.846  1.00  0.00     0.001 A 
HETATM   18  H14 UNL     1      18.876   4.226  51.399  1.00  0.00     0.160 HD
HETATM   19  H20 UNL     1      25.012   6.923  48.821  1.00  0.00     0.161 HD
ENDROOT
BRANCH   1  20
HETATM   20  C5  UNL     1      25.629   2.155  51.640  1.00  0.00     0.159 C 
HETATM   21  O2  UNL     1      25.444   2.829  52.699  1.00  0.00    -0.292 OA
BRANCH  20  22
HETATM   22  C4  UNL     1      26.571   1.070  51.637  1.00  0.00     0.049 C 
HETATM   23  C3  UNL     1      26.436  -0.072  52.293  1.00  0.00     0.003 C 
BRANCH  23  24
HETATM   24  C2  UNL     1      25.427  -0.664  53.182  1.00  0.00     0.194 C 
BRANCH  24  25
HETATM   25  O1  UNL     1      25.987  -0.962  54.426  1.00  0.00    -0.392 OA
HETATM   26  C1  UNL     1      26.506   0.184  55.014  1.00  0.00     0.201 C 
ENDBRANCH  24  25
ENDBRANCH  23  24
ENDBRANCH  20  22
ENDBRANCH   1  20
TORSDOF 4
ENDMDL
MODEL 8
REMARK VINA RESULT:      -6.9      2.970      5.117
REMARK  4 active torsions:
REMARK  status: ('A' for Active; 'I' for Inactive)
REMARK    1  A    between atoms: O1_2  and  C2_3 
REMARK    2  A    between atoms: C2_3  and  C3_4 
REMARK    3  A    between atoms: C4_5  and  C5_6 
REMARK    4  A    between atoms: C5_6  and  C6_8 
ROOT
HETATM    1  C6  UNL     1      23.575   3.166  52.119  1.00  0.00     0.120 C 
HETATM    2  C7  UNL     1      22.136   2.827  52.161  1.00  0.00     0.193 C 
HETATM    3  O3  UNL     1      21.364   3.934  51.683  1.00  0.00    -0.344 OA
HETATM    4  C8  UNL     1      19.946   3.798  51.774  1.00  0.00     0.247 C 
HETATM    5  N1  UNL     1      18.787   3.286  51.665  1.00  0.00    -0.259 NA
HETATM    6  C9  UNL     1      18.581   2.001  51.098  1.00  0.00     0.271 C 
HETATM    7  N2  UNL     1      18.496   0.967  52.091  1.00  0.00    -0.380 N 
HETATM    8  C10 UNL     1      19.637   0.697  52.897  1.00  0.00     0.103 C 
HETATM    9  C11 UNL     1      20.724  -0.094  52.970  1.00  0.00     0.128 C 
HETATM   10  N3  UNL     1      21.949  -0.614  53.535  1.00  0.00    -0.282 N 
HETATM   11  C12 UNL     1      21.758  -1.894  54.135  1.00  0.00     0.179 C 
HETATM   12  N4  UNL     1      22.640   0.498  53.143  1.00  0.00    -0.155 NA
HETATM   13  C13 UNL     1      23.875   0.759  53.178  1.00  0.00     0.150 A 
HETATM   14  N5  UNL     1      25.026   0.053  53.614  1.00  0.00    -0.370 N 
HETATM   15  C14 UNL     1      26.212   0.861  53.412  1.00  0.00     0.149 A 
HETATM   16  C15 UNL     1      25.690   2.093  52.827  1.00  0.00     0.004 A 
HETATM   17  C16 UNL     1      24.381   2.048  52.689  1.00  0.00     0.001 A 
HETATM   18  H14 UNL     1      18.021   0.200  52.633  1.00  0.00     0.160 HD
HETATM   19  H20 UNL     1      24.979  -0.910  54.018  1.00  0.00     0.161 HD
ENDROOT
BRANCH   1  20
HETATM   20  C5  UNL     1      23.984   3.480  50.733  1.00  0.00     0.159 C 
HETATM   21  O2  UNL     1      23.746   2.651  49.802  1.00  0.00    -0.292 OA
BRANCH  20  22
HETATM   22  C4  UNL     1      24.649   4.719  50.434  1.00  0.00     0.049 C 
HETATM   23  C3  UNL     1      25.823   4.842  49.834  1.00  0.00     0.003 C 
BRANCH  23  24
HETATM   24  C2  UNL     1      26.827   3.920  49.285  1.00  0.00     0.194 C 
BRANCH  24  25
HETATM   25  O1  UNL     1      27.957   4.624  48.864  1.00  0.00    -0.392 OA
HETATM   26  C1  UNL     1      27.603   5.886  48.406  1.00  0.00     0.201 C 
ENDBRANCH  24  25
ENDBRANCH  23  24
ENDBRANCH  20  22
ENDBRANCH   1  20
TORSDOF 4
ENDMDL
MODEL 9
REMARK VINA RESULT:      -6.9      3.281      6.979
REMARK  4 active torsions:
REMARK  status: ('A' for Active; 'I' for Inactive)
REMARK    1  A    between atoms: O1_2  and  C2_3 
REMARK    2  A    between atoms: C2_3  and  C3_4 
REMARK    3  A    between atoms: C4_5  and  C5_6 
REMARK    4  A    between atoms: C5_6  and  C6_8 
ROOT
HETATM    1  C6  UNL     1      21.662   0.054  52.001  1.00  0.00     0.120 C 
HETATM    2  C7  UNL     1      21.763   0.965  50.841  1.00  0.00     0.193 C 
HETATM    3  O3  UNL     1      20.545   0.927  50.090  1.00  0.00    -0.344 OA
HETATM    4  C8  UNL     1      20.535   1.670  48.871  1.00  0.00     0.247 C 
HETATM    5  N1  UNL     1      20.691   2.640  48.063  1.00  0.00    -0.259 NA
HETATM    6  C9  UNL     1      21.209   3.893  48.482  1.00  0.00     0.271 C 
HETATM    7  N2  UNL     1      22.622   4.011  48.253  1.00  0.00    -0.380 N 
HETATM    8  C10 UNL     1      23.503   3.139  48.951  1.00  0.00     0.103 C 
HETATM    9  C11 UNL     1      24.255   3.055  50.066  1.00  0.00     0.128 C 
HETATM   10  N3  UNL     1      25.161   2.442  51.009  1.00  0.00    -0.282 N 
HETATM   11  C12 UNL     1      26.472   3.000  50.929  1.00  0.00     0.179 C 
HETATM   12  N4  UNL     1      24.174   1.619  51.473  1.00  0.00    -0.155 NA
HETATM   13  C13 UNL     1      24.158   0.815  52.446  1.00  0.00     0.150 A 
HETATM   14  N5  UNL     1      25.103   0.431  53.433  1.00  0.00    -0.370 N 
HETATM   15  C14 UNL     1      24.524  -0.557  54.320  1.00  0.00     0.149 A 
HETATM   16  C15 UNL     1      23.173  -0.737  53.796  1.00  0.00     0.004 A 
HETATM   17  C16 UNL     1      22.955   0.028  52.745  1.00  0.00     0.001 A 
HETATM   18  H14 UNL     1      23.488   4.419  47.815  1.00  0.00     0.160 HD
HETATM   19  H20 UNL     1      26.068   0.831  53.476  1.00  0.00     0.161 HD
ENDROOT
BRANCH   1  20
HETATM   20  C5  UNL     1      20.540   0.463  52.875  1.00  0.00     0.159 C 
HETATM   21  O2  UNL     1      20.419   1.679  53.216  1.00  0.00    -0.292 OA
BRANCH  20  22
HETATM   22  C4  UNL     1      19.588  -0.509  53.338  1.00  0.00     0.049 C 
HETATM   23  C3  UNL     1      18.430  -0.792  52.761  1.00  0.00     0.003 C 
BRANCH  23  24
HETATM   24  C2  UNL     1      17.700  -0.321  51.576  1.00  0.00     0.194 C 
BRANCH  24  25
HETATM   25  O1  UNL     1      17.011   0.859  51.863  1.00  0.00    -0.392 OA
HETATM   26  C1  UNL     1      17.195   1.790  50.849  1.00  0.00     0.201 C 
ENDBRANCH  24  25
ENDBRANCH  23  24
ENDBRANCH  20  22
ENDBRANCH   1  20
TORSDOF 4
ENDMDL
