MODEL 1
REMARK VINA RESULT:     -10.5      0.000      0.000
REMARK  1 active torsions:
REMARK  status: ('A' for Active; 'I' for Inactive)
REMARK    1  A    between atoms: C3_4  and  C4_5 
ROOT
HETATM    1  O1  UNL     1      24.159   2.533  50.175  1.00  0.00    -0.273 OA
HETATM    2  C1  UNL     1      23.573   2.361  51.237  1.00  0.00     0.224 C 
HETATM    3  C2  UNL     1      24.574   1.838  52.166  1.00  0.00     0.116 C 
HETATM    4  C3  UNL     1      25.897   1.702  51.454  1.00  0.00     0.051 C 
HETATM    5  C14 UNL     1      26.124   2.882  50.604  1.00  0.00    -0.017 C 
HETATM    6  C15 UNL     1      26.822   3.436  49.645  1.00  0.00    -0.002 C 
HETATM    7  C16 UNL     1      27.020   4.602  48.811  1.00  0.00     0.017 C 
HETATM    8  C17 UNL     1      26.302   5.726  48.811  1.00  0.00     0.090 C 
HETATM    9  N1  UNL     1      25.195   5.918  49.674  1.00  0.00    -0.350 N 
HETATM   10  C18 UNL     1      23.780   5.846  49.966  1.00  0.00     0.142 A 
HETATM   11  N2  UNL     1      23.472   6.964  50.618  1.00  0.00    -0.223 NA
HETATM   12  C19 UNL     1      22.283   7.294  51.131  1.00  0.00     0.236 A 
HETATM   13  N3  UNL     1      21.266   6.394  50.980  1.00  0.00    -0.241 NA
HETATM   14  C20 UNL     1      21.597   5.239  50.303  1.00  0.00     0.071 A 
HETATM   15  C21 UNL     1      22.825   4.845  49.739  1.00  0.00     0.054 A 
HETATM   16  C22 UNL     1      22.647   3.655  49.133  1.00  0.00     0.112 C 
HETATM   17  N4  UNL     1      22.577   2.864  50.362  1.00  0.00    -0.324 N 
HETATM   18  C23 UNL     1      21.146   2.905  50.499  1.00  0.00     0.161 C 
HETATM   19  C24 UNL     1      20.619   4.309  50.250  1.00  0.00     0.026 C 
HETATM   20  H15 UNL     1      25.892   6.276  50.395  1.00  0.00     0.166 HD
ENDROOT
BRANCH   4  21
HETATM   21  C4  UNL     1      26.996   1.321  52.332  1.00  0.00    -0.039 A 
HETATM   22  C5  UNL     1      27.618   2.437  52.907  1.00  0.00     0.009 A 
HETATM   23  C6  UNL     1      28.705   2.278  53.774  1.00  0.00     0.001 A 
HETATM   24  C7  UNL     1      29.179   1.036  54.077  1.00  0.00     0.012 A 
HETATM   25  C8  UNL     1      28.572  -0.067  53.516  1.00  0.00    -0.025 A 
HETATM   26  C9  UNL     1      28.960  -1.374  53.749  1.00  0.00     0.012 A 
HETATM   27  C13 UNL     1      27.508   0.092  52.668  1.00  0.00    -0.019 A 
HETATM   28  C10 UNL     1      28.326  -2.458  53.170  1.00  0.00     0.001 A 
HETATM   29  C11 UNL     1      27.242  -2.257  52.309  1.00  0.00     0.001 A 
HETATM   30  C12 UNL     1      26.846  -0.959  52.069  1.00  0.00     0.013 A 
ENDBRANCH   4  21
TORSDOF 1
ENDMDL
MODEL 2
REMARK VINA RESULT:     -10.0      1.999      4.378
REMARK  1 active torsions:
REMARK  status: ('A' for Active; 'I' for Inactive)
REMARK    1  A    between atoms: C3_4  and  C4_5 
ROOT
HETATM    1  O1  UNL     1      23.569   2.530  52.637  1.00  0.00    -0.273 OA
HETATM    2  C1  UNL     1      24.239   2.851  51.664  1.00  0.00     0.224 C 
HETATM    3  C2  UNL     1      25.394   1.953  51.660  1.00  0.00     0.116 C 
HETATM    4  C3  UNL     1      25.312   1.024  52.845  1.00  0.00     0.051 C 
HETATM    5  C14 UNL     1      23.927   0.555  53.009  1.00  0.00    -0.017 C 
HETATM    6  C15 UNL     1      23.045  -0.046  53.768  1.00  0.00    -0.002 C 
HETATM    7  C16 UNL     1      21.675  -0.489  53.914  1.00  0.00     0.017 C 
HETATM    8  C17 UNL     1      20.674  -0.317  53.049  1.00  0.00     0.090 C 
HETATM    9  N1  UNL     1      20.846   0.363  51.818  1.00  0.00    -0.350 N 
HETATM   10  C18 UNL     1      20.816   1.563  51.009  1.00  0.00     0.142 A 
HETATM   11  N2  UNL     1      20.294   1.215  49.837  1.00  0.00    -0.223 NA
HETATM   12  C19 UNL     1      20.130   1.996  48.765  1.00  0.00     0.236 A 
HETATM   13  N3  UNL     1      20.544   3.294  48.871  1.00  0.00    -0.241 NA
HETATM   14  C20 UNL     1      21.084   3.643  50.091  1.00  0.00     0.071 A 
HETATM   15  C21 UNL     1      21.272   2.866  51.249  1.00  0.00     0.054 A 
HETATM   16  C22 UNL     1      21.788   3.659  52.209  1.00  0.00     0.112 C 
HETATM   17  N4  UNL     1      23.133   3.737  51.638  1.00  0.00    -0.324 N 
HETATM   18  C23 UNL     1      22.919   4.943  50.885  1.00  0.00     0.161 C 
HETATM   19  C24 UNL     1      21.586   4.896  50.155  1.00  0.00     0.026 C 
HETATM   20  H15 UNL     1      21.139  -0.575  51.407  1.00  0.00     0.166 HD
ENDROOT
BRANCH   4  21
HETATM   21  C4  UNL     1      26.345  -0.004  52.853  1.00  0.00    -0.039 A 
HETATM   22  C5  UNL     1      25.865  -1.232  52.379  1.00  0.00     0.009 A 
HETATM   23  C6  UNL     1      26.705  -2.350  52.320  1.00  0.00     0.001 A 
HETATM   24  C7  UNL     1      28.006  -2.265  52.722  1.00  0.00     0.012 A 
HETATM   25  C8  UNL     1      28.486  -1.061  53.189  1.00  0.00    -0.025 A 
HETATM   26  C9  UNL     1      29.782  -0.852  53.620  1.00  0.00     0.012 A 
HETATM   27  C13 UNL     1      27.660   0.031  53.245  1.00  0.00    -0.019 A 
HETATM   28  C10 UNL     1      30.231   0.372  54.081  1.00  0.00     0.001 A 
HETATM   29  C11 UNL     1      29.359   1.465  54.123  1.00  0.00     0.001 A 
HETATM   30  C12 UNL     1      28.064   1.270  53.696  1.00  0.00     0.013 A 
ENDBRANCH   4  21
TORSDOF 1
ENDMDL
MODEL 3
REMARK VINA RESULT:      -9.7      3.216      6.563
REMARK  1 active torsions:
REMARK  status: ('A' for Active; 'I' for Inactive)
REMARK    1  A    between atoms: C3_4  and  C4_5 
ROOT
HETATM    1  O1  UNL     1      24.471   1.064  51.703  1.00  0.00    -0.273 OA
HETATM    2  C1  UNL     1      24.823   1.592  52.749  1.00  0.00     0.224 C 
HETATM    3  C2  UNL     1      25.093   2.992  52.420  1.00  0.00     0.116 C 
HETATM    4  C3  UNL     1      24.858   3.215  50.947  1.00  0.00     0.051 C 
HETATM    5  C14 UNL     1      23.634   2.511  50.531  1.00  0.00    -0.017 C 
HETATM    6  C15 UNL     1      22.887   2.079  49.546  1.00  0.00    -0.002 C 
HETATM    7  C16 UNL     1      21.685   1.373  49.158  1.00  0.00     0.017 C 
HETATM    8  C17 UNL     1      20.788   0.802  49.964  1.00  0.00     0.090 C 
HETATM    9  N1  UNL     1      20.920   0.818  51.375  1.00  0.00    -0.350 N 
HETATM   10  C18 UNL     1      21.367   0.233  52.620  1.00  0.00     0.142 A 
HETATM   11  N2  UNL     1      20.390   0.425  53.501  1.00  0.00    -0.223 NA
HETATM   12  C19 UNL     1      20.397   0.095  54.795  1.00  0.00     0.236 A 
HETATM   13  N3  UNL     1      21.527  -0.501  55.281  1.00  0.00    -0.241 NA
HETATM   14  C20 UNL     1      22.534  -0.695  54.358  1.00  0.00     0.071 A 
HETATM   15  C21 UNL     1      22.576  -0.375  52.989  1.00  0.00     0.054 A 
HETATM   16  C22 UNL     1      23.752  -0.805  52.492  1.00  0.00     0.112 C 
HETATM   17  N4  UNL     1      24.571   0.243  53.103  1.00  0.00    -0.324 N 
HETATM   18  C23 UNL     1      24.910  -0.491  54.293  1.00  0.00     0.161 C 
HETATM   19  C24 UNL     1      23.685  -1.186  54.866  1.00  0.00     0.026 C 
HETATM   20  H15 UNL     1      20.414   1.755  51.354  1.00  0.00     0.166 HD
ENDROOT
BRANCH   4  21
HETATM   21  C4  UNL     1      24.964   4.612  50.544  1.00  0.00    -0.039 A 
HETATM   22  C5  UNL     1      23.918   5.387  51.061  1.00  0.00     0.009 A 
HETATM   23  C6  UNL     1      23.839   6.755  50.776  1.00  0.00     0.001 A 
HETATM   24  C7  UNL     1      24.777   7.359  49.992  1.00  0.00     0.012 A 
HETATM   25  C8  UNL     1      25.810   6.604  49.481  1.00  0.00    -0.025 A 
HETATM   26  C9  UNL     1      26.819   7.102  48.678  1.00  0.00     0.012 A 
HETATM   27  C13 UNL     1      25.884   5.265  49.761  1.00  0.00    -0.019 A 
HETATM   28  C10 UNL     1      27.842   6.314  48.184  1.00  0.00     0.001 A 
HETATM   29  C11 UNL     1      27.886   4.950  48.492  1.00  0.00     0.001 A 
HETATM   30  C12 UNL     1      26.885   4.441  49.291  1.00  0.00     0.013 A 
ENDBRANCH   4  21
TORSDOF 1
ENDMDL
MODEL 4
REMARK VINA RESULT:      -9.2      2.641      4.265
REMARK  1 active torsions:
REMARK  status: ('A' for Active; 'I' for Inactive)
REMARK    1  A    between atoms: C3_4  and  C4_5 
ROOT
HETATM    1  O1  UNL     1      21.394   4.432  50.817  1.00  0.00    -0.273 OA
HETATM    2  C1  UNL     1      22.158   5.091  51.510  1.00  0.00     0.224 C 
HETATM    3  C2  UNL     1      22.975   4.121  52.239  1.00  0.00     0.116 C 
HETATM    4  C3  UNL     1      22.543   2.724  51.871  1.00  0.00     0.051 C 
HETATM    5  C14 UNL     1      22.303   2.648  50.421  1.00  0.00    -0.017 C 
HETATM    6  C15 UNL     1      21.805   1.971  49.416  1.00  0.00    -0.002 C 
HETATM    7  C16 UNL     1      21.568   1.921  47.989  1.00  0.00     0.017 C 
HETATM    8  C17 UNL     1      21.880   2.852  47.086  1.00  0.00     0.090 C 
HETATM    9  N1  UNL     1      22.512   4.070  47.441  1.00  0.00    -0.350 N 
HETATM   10  C18 UNL     1      22.467   5.464  47.826  1.00  0.00     0.142 A 
HETATM   11  N2  UNL     1      23.440   6.073  47.154  1.00  0.00    -0.223 NA
HETATM   12  C19 UNL     1      23.798   7.356  47.245  1.00  0.00     0.236 A 
HETATM   13  N3  UNL     1      23.101   8.139  48.123  1.00  0.00    -0.241 NA
HETATM   14  C20 UNL     1      22.095   7.496  48.814  1.00  0.00     0.071 A 
HETATM   15  C21 UNL     1      21.673   6.156  48.752  1.00  0.00     0.054 A 
HETATM   16  C22 UNL     1      20.617   6.008  49.576  1.00  0.00     0.112 C 
HETATM   17  N4  UNL     1      21.383   6.058  50.821  1.00  0.00    -0.324 N 
HETATM   18  C23 UNL     1      21.242   7.472  51.041  1.00  0.00     0.161 C 
HETATM   19  C24 UNL     1      21.481   8.247  49.755  1.00  0.00     0.026 C 
HETATM   20  H15 UNL     1      23.437   3.553  47.338  1.00  0.00     0.166 HD
ENDROOT
BRANCH   4  21
HETATM   21  C4  UNL     1      23.390   1.682  52.438  1.00  0.00    -0.039 A 
HETATM   22  C5  UNL     1      24.712   1.777  51.983  1.00  0.00     0.009 A 
HETATM   23  C6  UNL     1      25.678   0.857  52.407  1.00  0.00     0.001 A 
HETATM   24  C7  UNL     1      25.352  -0.147  53.271  1.00  0.00     0.012 A 
HETATM   25  C8  UNL     1      24.055  -0.246  53.724  1.00  0.00    -0.025 A 
HETATM   26  C9  UNL     1      23.606  -1.216  54.600  1.00  0.00     0.012 A 
HETATM   27  C13 UNL     1      23.111   0.656  53.306  1.00  0.00    -0.019 A 
HETATM   28  C10 UNL     1      22.295  -1.285  55.036  1.00  0.00     0.001 A 
HETATM   29  C11 UNL     1      21.360  -0.346  54.589  1.00  0.00     0.001 A 
HETATM   30  C12 UNL     1      21.795   0.627  53.715  1.00  0.00     0.013 A 
ENDBRANCH   4  21
TORSDOF 1
ENDMDL
MODEL 5
REMARK VINA RESULT:      -9.2      3.133      5.521
REMARK  1 active torsions:
REMARK  status: ('A' for Active; 'I' for Inactive)
REMARK    1  A    between atoms: C3_4  and  C4_5 
ROOT
HETATM    1  O1  UNL     1      25.186   5.474  50.208  1.00  0.00    -0.273 OA
HETATM    2  C1  UNL     1      25.661   4.737  49.354  1.00  0.00     0.224 C 
HETATM    3  C2  UNL     1      24.920   3.480  49.454  1.00  0.00     0.116 C 
HETATM    4  C3  UNL     1      23.902   3.584  50.562  1.00  0.00     0.051 C 
HETATM    5  C14 UNL     1      23.250   4.903  50.511  1.00  0.00    -0.017 C 
HETATM    6  C15 UNL     1      22.488   5.784  51.109  1.00  0.00    -0.002 C 
HETATM    7  C16 UNL     1      21.866   7.089  51.044  1.00  0.00     0.017 C 
HETATM    8  C17 UNL     1      21.974   7.987  50.063  1.00  0.00     0.090 C 
HETATM    9  N1  UNL     1      22.760   7.755  48.907  1.00  0.00    -0.350 N 
HETATM   10  C18 UNL     1      24.003   7.845  48.172  1.00  0.00     0.142 A 
HETATM   11  N2  UNL     1      23.681   8.163  46.922  1.00  0.00    -0.223 NA
HETATM   12  C19 UNL     1      24.513   8.295  45.885  1.00  0.00     0.236 A 
HETATM   13  N3  UNL     1      25.842   8.077  46.120  1.00  0.00    -0.241 NA
HETATM   14  C20 UNL     1      26.164   7.748  47.420  1.00  0.00     0.071 A 
HETATM   15  C21 UNL     1      25.333   7.603  48.546  1.00  0.00     0.054 A 
HETATM   16  C22 UNL     1      26.110   7.324  49.610  1.00  0.00     0.112 C 
HETATM   17  N4  UNL     1      26.400   5.941  49.232  1.00  0.00    -0.324 N 
HETATM   18  C23 UNL     1      27.623   6.219  48.527  1.00  0.00     0.161 C 
HETATM   19  C24 UNL     1      27.461   7.430  47.622  1.00  0.00     0.026 C 
HETATM   20  H15 UNL     1      21.900   7.289  48.486  1.00  0.00     0.166 HD
ENDROOT
BRANCH   4  21
HETATM   21  C4  UNL     1      23.015   2.431  50.651  1.00  0.00    -0.039 A 
HETATM   22  C5  UNL     1      22.085   2.405  49.603  1.00  0.00     0.009 A 
HETATM   23  C6  UNL     1      21.137   1.379  49.518  1.00  0.00     0.001 A 
HETATM   24  C7  UNL     1      21.100   0.386  50.452  1.00  0.00     0.012 A 
HETATM   25  C8  UNL     1      22.012   0.404  51.486  1.00  0.00    -0.025 A 
HETATM   26  C9  UNL     1      22.075  -0.546  52.487  1.00  0.00     0.012 A 
HETATM   27  C13 UNL     1      22.938   1.410  51.565  1.00  0.00    -0.019 A 
HETATM   28  C10 UNL     1      23.006  -0.498  53.509  1.00  0.00     0.001 A 
HETATM   29  C11 UNL     1      23.937   0.545  53.557  1.00  0.00     0.001 A 
HETATM   30  C12 UNL     1      23.885   1.499  52.564  1.00  0.00     0.013 A 
ENDBRANCH   4  21
TORSDOF 1
ENDMDL
MODEL 6
REMARK VINA RESULT:      -9.2      2.337      3.510
REMARK  1 active torsions:
REMARK  status: ('A' for Active; 'I' for Inactive)
REMARK    1  A    between atoms: C3_4  and  C4_5 
ROOT
HETATM    1  O1  UNL     1      23.055   3.532  49.763  1.00  0.00    -0.273 OA
HETATM    2  C1  UNL     1      22.267   3.910  50.621  1.00  0.00     0.224 C 
HETATM    3  C2  UNL     1      22.422   2.983  51.742  1.00  0.00     0.116 C 
HETATM    4  C3  UNL     1      23.453   1.940  51.392  1.00  0.00     0.051 C 
HETATM    5  C14 UNL     1      24.591   2.580  50.713  1.00  0.00    -0.017 C 
HETATM    6  C15 UNL     1      25.685   2.431  50.008  1.00  0.00    -0.002 C 
HETATM    7  C16 UNL     1      26.789   3.081  49.336  1.00  0.00     0.017 C 
HETATM    8  C17 UNL     1      27.008   4.391  49.224  1.00  0.00     0.090 C 
HETATM    9  N1  UNL     1      26.130   5.356  49.779  1.00  0.00    -0.350 N 
HETATM   10  C18 UNL     1      24.997   6.250  49.686  1.00  0.00     0.142 A 
HETATM   11  N2  UNL     1      25.349   7.371  50.309  1.00  0.00    -0.223 NA
HETATM   12  C19 UNL     1      24.589   8.450  50.516  1.00  0.00     0.236 A 
HETATM   13  N3  UNL     1      23.306   8.409  50.044  1.00  0.00    -0.241 NA
HETATM   14  C20 UNL     1      22.953   7.241  49.400  1.00  0.00     0.071 A 
HETATM   15  C21 UNL     1      23.712   6.084  49.151  1.00  0.00     0.054 A 
HETATM   16  C22 UNL     1      22.953   5.227  48.440  1.00  0.00     0.112 C 
HETATM   17  N4  UNL     1      22.091   4.825  49.552  1.00  0.00    -0.324 N 
HETATM   18  C23 UNL     1      21.057   5.796  49.314  1.00  0.00     0.161 C 
HETATM   19  C24 UNL     1      21.656   7.165  49.031  1.00  0.00     0.026 C 
HETATM   20  H15 UNL     1      26.692   5.264  50.679  1.00  0.00     0.166 HD
ENDROOT
BRANCH   4  21
HETATM   21  C4  UNL     1      23.783   1.051  52.499  1.00  0.00    -0.039 A 
HETATM   22  C5  UNL     1      25.137   1.129  52.848  1.00  0.00     0.009 A 
HETATM   23  C6  UNL     1      25.652   0.342  53.884  1.00  0.00     0.001 A 
HETATM   24  C7  UNL     1      24.846  -0.516  54.574  1.00  0.00     0.012 A 
HETATM   25  C8  UNL     1      23.512  -0.599  54.237  1.00  0.00    -0.025 A 
HETATM   26  C9  UNL     1      22.599  -1.426  54.863  1.00  0.00     0.012 A 
HETATM   27  C13 UNL     1      23.012   0.174  53.222  1.00  0.00    -0.019 A 
HETATM   28  C10 UNL     1      21.266  -1.482  54.499  1.00  0.00     0.001 A 
HETATM   29  C11 UNL     1      20.791  -0.678  53.458  1.00  0.00     0.001 A 
HETATM   30  C12 UNL     1      21.691   0.152  52.826  1.00  0.00     0.013 A 
ENDBRANCH   4  21
TORSDOF 1
ENDMDL
MODEL 7
REMARK VINA RESULT:      -9.1      2.346      3.883
REMARK  1 active torsions:
REMARK  status: ('A' for Active; 'I' for Inactive)
REMARK    1  A    between atoms: C3_4  and  C4_5 
ROOT
HETATM    1  O1  UNL     1      23.123   3.582  48.751  1.00  0.00    -0.273 OA
HETATM    2  C1  UNL     1      22.264   2.757  48.467  1.00  0.00     0.224 C 
HETATM    3  C2  UNL     1      22.292   1.764  49.541  1.00  0.00     0.116 C 
HETATM    4  C3  UNL     1      23.363   2.133  50.537  1.00  0.00     0.051 C 
HETATM    5  C14 UNL     1      23.330   3.584  50.782  1.00  0.00    -0.017 C 
HETATM    6  C15 UNL     1      23.928   4.634  51.287  1.00  0.00    -0.002 C 
HETATM    7  C16 UNL     1      23.883   6.064  51.507  1.00  0.00     0.017 C 
HETATM    8  C17 UNL     1      22.938   6.913  51.100  1.00  0.00     0.090 C 
HETATM    9  N1  UNL     1      21.807   6.490  50.360  1.00  0.00    -0.350 N 
HETATM   10  C18 UNL     1      21.124   6.235  49.110  1.00  0.00     0.142 A 
HETATM   11  N2  UNL     1      19.874   6.659  49.269  1.00  0.00    -0.223 NA
HETATM   12  C19 UNL     1      18.875   6.568  48.386  1.00  0.00     0.236 A 
HETATM   13  N3  UNL     1      19.154   5.973  47.187  1.00  0.00    -0.241 NA
HETATM   14  C20 UNL     1      20.454   5.537  47.034  1.00  0.00     0.071 A 
HETATM   15  C21 UNL     1      21.541   5.613  47.924  1.00  0.00     0.054 A 
HETATM   16  C22 UNL     1      22.625   5.100  47.310  1.00  0.00     0.112 C 
HETATM   17  N4  UNL     1      22.211   3.700  47.410  1.00  0.00    -0.324 N 
HETATM   18  C23 UNL     1      21.564   3.631  46.127  1.00  0.00     0.161 C 
HETATM   19  C24 UNL     1      20.696   4.856  45.893  1.00  0.00     0.026 C 
HETATM   20  H15 UNL     1      21.337   6.300  51.296  1.00  0.00     0.166 HD
ENDROOT
BRANCH   4  21
HETATM   21  C4  UNL     1      23.377   1.282  51.721  1.00  0.00    -0.039 A 
HETATM   22  C5  UNL     1      22.086   1.050  52.215  1.00  0.00     0.009 A 
HETATM   23  C6  UNL     1      21.892   0.262  53.355  1.00  0.00     0.001 A 
HETATM   24  C7  UNL     1      22.953  -0.294  54.007  1.00  0.00     0.012 A 
HETATM   25  C8  UNL     1      24.225  -0.071  53.527  1.00  0.00    -0.025 A 
HETATM   26  C9  UNL     1      25.376  -0.583  54.098  1.00  0.00     0.012 A 
HETATM   27  C13 UNL     1      24.412   0.700  52.410  1.00  0.00    -0.019 A 
HETATM   28  C10 UNL     1      26.638  -0.340  53.588  1.00  0.00     0.001 A 
HETATM   29  C11 UNL     1      26.790   0.453  52.445  1.00  0.00     0.001 A 
HETATM   30  C12 UNL     1      25.651   0.968  51.866  1.00  0.00     0.013 A 
ENDBRANCH   4  21
TORSDOF 1
ENDMDL
MODEL 8
REMARK VINA RESULT:      -9.0      6.257      9.972
REMARK  1 active torsions:
REMARK  status: ('A' for Active; 'I' for Inactive)
REMARK    1  A    between atoms: C3_4  and  C4_5 
ROOT
HETATM    1  O1  UNL     1      31.989   5.638  48.169  1.00  0.00    -0.273 OA
HETATM    2  C1  UNL     1      31.532   4.625  47.657  1.00  0.00     0.224 C 
HETATM    3  C2  UNL     1      30.083   4.819  47.610  1.00  0.00     0.116 C 
HETATM    4  C3  UNL     1      29.735   6.154  48.221  1.00  0.00     0.051 C 
HETATM    5  C14 UNL     1      30.700   7.169  47.768  1.00  0.00    -0.017 C 
HETATM    6  C15 UNL     1      31.190   8.374  47.919  1.00  0.00    -0.002 C 
HETATM    7  C16 UNL     1      32.154   9.354  47.467  1.00  0.00     0.017 C 
HETATM    8  C17 UNL     1      33.066   9.205  46.506  1.00  0.00     0.090 C 
HETATM    9  N1  UNL     1      33.208   7.998  45.777  1.00  0.00    -0.350 N 
HETATM   10  C18 UNL     1      33.805   6.696  45.572  1.00  0.00     0.142 A 
HETATM   11  N2  UNL     1      34.030   6.585  44.266  1.00  0.00    -0.223 NA
HETATM   12  C19 UNL     1      34.519   5.522  43.622  1.00  0.00     0.236 A 
HETATM   13  N3  UNL     1      34.823   4.422  44.373  1.00  0.00    -0.241 NA
HETATM   14  C20 UNL     1      34.585   4.549  45.726  1.00  0.00     0.071 A 
HETATM   15  C21 UNL     1      34.080   5.642  46.454  1.00  0.00     0.054 A 
HETATM   16  C22 UNL     1      34.076   5.312  47.760  1.00  0.00     0.112 C 
HETATM   17  N4  UNL     1      32.932   4.404  47.687  1.00  0.00    -0.324 N 
HETATM   18  C23 UNL     1      33.692   3.201  47.480  1.00  0.00     0.161 C 
HETATM   19  C24 UNL     1      34.786   3.425  46.448  1.00  0.00     0.026 C 
HETATM   20  H15 UNL     1      32.465   8.377  45.115  1.00  0.00     0.166 HD
ENDROOT
BRANCH   4  21
HETATM   21  C4  UNL     1      28.326   6.504  48.095  1.00  0.00    -0.039 A 
HETATM   22  C5  UNL     1      28.148   7.730  47.439  1.00  0.00     0.009 A 
HETATM   23  C6  UNL     1      26.864   8.245  47.231  1.00  0.00     0.001 A 
HETATM   24  C7  UNL     1      25.762   7.565  47.661  1.00  0.00     0.012 A 
HETATM   25  C8  UNL     1      25.928   6.359  48.306  1.00  0.00    -0.025 A 
HETATM   26  C9  UNL     1      24.892   5.579  48.783  1.00  0.00     0.012 A 
HETATM   27  C13 UNL     1      27.187   5.858  48.509  1.00  0.00    -0.019 A 
HETATM   28  C10 UNL     1      25.096   4.371  49.425  1.00  0.00     0.001 A 
HETATM   29  C11 UNL     1      26.396   3.891  49.613  1.00  0.00     0.001 A 
HETATM   30  C12 UNL     1      27.438   4.659  49.142  1.00  0.00     0.013 A 
ENDBRANCH   4  21
TORSDOF 1
ENDMDL
MODEL 9
REMARK VINA RESULT:      -9.0      6.583      9.443
REMARK  1 active torsions:
REMARK  status: ('A' for Active; 'I' for Inactive)
REMARK    1  A    between atoms: C3_4  and  C4_5 
ROOT
HETATM    1  O1  UNL     1      30.952   8.650  48.444  1.00  0.00    -0.273 OA
HETATM    2  C1  UNL     1      31.437   9.479  47.685  1.00  0.00     0.224 C 
HETATM    3  C2  UNL     1      32.210   8.718  46.703  1.00  0.00     0.116 C 
HETATM    4  C3  UNL     1      32.121   7.247  47.025  1.00  0.00     0.051 C 
HETATM    5  C14 UNL     1      30.739   6.908  47.402  1.00  0.00    -0.017 C 
HETATM    6  C15 UNL     1      29.919   6.032  47.927  1.00  0.00    -0.002 C 
HETATM    7  C16 UNL     1      28.556   5.723  48.301  1.00  0.00     0.017 C 
HETATM    8  C17 UNL     1      27.487   6.511  48.180  1.00  0.00     0.090 C 
HETATM    9  N1  UNL     1      27.568   7.820  47.643  1.00  0.00    -0.350 N 
HETATM   10  C18 UNL     1      27.730   9.250  47.791  1.00  0.00     0.142 A 
HETATM   11  N2  UNL     1      26.861   9.817  46.960  1.00  0.00    -0.223 NA
HETATM   12  C19 UNL     1      26.705  11.123  46.726  1.00  0.00     0.236 A 
HETATM   13  N3  UNL     1      27.524  11.980  47.407  1.00  0.00    -0.241 NA
HETATM   14  C20 UNL     1      28.420  11.381  48.267  1.00  0.00     0.071 A 
HETATM   15  C21 UNL     1      28.621  10.019  48.554  1.00  0.00     0.054 A 
HETATM   16  C22 UNL     1      29.576   9.924  49.500  1.00  0.00     0.112 C 
HETATM   17  N4  UNL     1      30.699  10.247  48.620  1.00  0.00    -0.324 N 
HETATM   18  C23 UNL     1      30.708  11.661  48.882  1.00  0.00     0.161 C 
HETATM   19  C24 UNL     1      29.296  12.225  48.856  1.00  0.00     0.026 C 
HETATM   20  H15 UNL     1      27.440   7.373  46.685  1.00  0.00     0.166 HD
ENDROOT
BRANCH   4  21
HETATM   21  C4  UNL     1      32.743   6.391  46.023  1.00  0.00    -0.039 A 
HETATM   22  C5  UNL     1      32.377   6.759  44.721  1.00  0.00     0.009 A 
HETATM   23  C6  UNL     1      32.864   6.049  43.618  1.00  0.00     0.001 A 
HETATM   24  C7  UNL     1      33.703   4.987  43.788  1.00  0.00     0.012 A 
HETATM   25  C8  UNL     1      34.068   4.619  45.065  1.00  0.00    -0.025 A 
HETATM   26  C9  UNL     1      34.911   3.565  45.363  1.00  0.00     0.012 A 
HETATM   27  C13 UNL     1      33.589   5.316  46.143  1.00  0.00    -0.019 A 
HETATM   28  C10 UNL     1      35.258   3.225  46.659  1.00  0.00     0.001 A 
HETATM   29  C11 UNL     1      34.749   3.961  47.734  1.00  0.00     0.001 A 
HETATM   30  C12 UNL     1      33.907   5.014  47.450  1.00  0.00     0.013 A 
ENDBRANCH   4  21
TORSDOF 1
ENDMDL
