MODEL 1
REMARK VINA RESULT:      -9.1      0.000      0.000
REMARK  6 active torsions:
REMARK  status: ('A' for Active; 'I' for Inactive)
REMARK    1  A    between atoms: O1_2  and  C2_3 
REMARK    2  A    between atoms: C4_5  and  O2_6 
REMARK    3  A    between atoms: O2_6  and  C5_7 
REMARK       I    between atoms: N1_10  and  C8_11 
REMARK    4  A    between atoms: C13_17  and  N2_18 
REMARK    5  A    between atoms: N2_18  and  S1_19 
REMARK    6  A    between atoms: S1_19  and  C14_20 
ROOT
HETATM    1  C2  UNL     1      19.121  -0.275  52.403  1.00  0.00     0.073 A 
HETATM    2  C3  UNL     1      19.999   0.335  51.535  1.00  0.00     0.074 A 
HETATM    3  C4  UNL     1      21.363   0.436  51.675  1.00  0.00     0.088 A 
HETATM    4  C12 UNL     1      21.843  -0.168  52.844  1.00  0.00     0.073 A 
HETATM    5  C13 UNL     1      23.204  -0.124  53.116  1.00  0.00     0.150 A 
HETATM    6  N3  UNL     1      23.637  -0.695  54.244  1.00  0.00    -0.223 NA
HETATM    7  C20 UNL     1      22.814  -1.303  55.115  1.00  0.00     0.236 A 
HETATM    8  N4  UNL     1      21.492  -1.355  54.871  1.00  0.00    -0.241 NA
HETATM    9  C21 UNL     1      20.982  -0.803  53.757  1.00  0.00     0.077 A 
HETATM   10  C22 UNL     1      19.641  -0.845  53.522  1.00  0.00     0.069 A 
ENDROOT
BRANCH   5  11
HETATM   11  N2  UNL     1      24.166   0.494  52.278  1.00  0.00    -0.310 N 
HETATM   12  H17 UNL     1      24.386   0.349  51.261  1.00  0.00     0.176 HD
BRANCH  11  13
HETATM   13  S1  UNL     1      24.833   1.548  53.518  1.00  0.00    -0.013 SA
BRANCH  13  14
HETATM   14  C14 UNL     1      26.600   1.368  53.555  1.00  0.00     0.023 A 
HETATM   15  C15 UNL     1      27.628   2.272  53.708  1.00  0.00     0.023 A 
HETATM   16  C16 UNL     1      28.922   1.796  53.678  1.00  0.00     0.045 A 
HETATM   17  C17 UNL     1      29.250   0.491  53.506  1.00  0.00     0.138 A 
HETATM   18  F1  UNL     1      30.550   0.120  53.490  1.00  0.00    -0.204 F 
HETATM   19  C18 UNL     1      28.226  -0.444  53.348  1.00  0.00     0.073 A 
HETATM   20 CL1  UNL     1      28.731  -2.098  53.129  1.00  0.00    -0.081 Cl
HETATM   21  C19 UNL     1      26.907   0.020  53.376  1.00  0.00     0.047 A 
ENDBRANCH  13  14
ENDBRANCH  11  13
ENDBRANCH   5  11
BRANCH   3  22
HETATM   22  O2  UNL     1      22.241   1.048  50.798  1.00  0.00    -0.345 OA
BRANCH  22  23
HETATM   23  C5  UNL     1      21.979   2.275  50.154  1.00  0.00     0.132 C 
HETATM   24  C6  UNL     1      21.671   3.406  51.032  1.00  0.00     0.052 C 
HETATM   25  C7  UNL     1      22.502   4.624  51.022  1.00  0.00     0.128 C 
HETATM   26  N1  UNL     1      23.390   4.684  49.904  1.00  0.00    -0.352 N 
HETATM   27  C8  UNL     1      24.565   5.494  50.002  1.00  0.00     0.215 C 
HETATM   28  C10 UNL     1      23.138   3.953  48.677  1.00  0.00     0.128 C 
HETATM   29  C9  UNL     1      25.568   5.648  48.914  1.00  0.00     0.117 C 
HETATM   30  O3  UNL     1      24.505   5.997  51.177  1.00  0.00    -0.274 OA
HETATM   31  C11 UNL     1      23.006   2.509  49.076  1.00  0.00     0.052 C 
ENDBRANCH  22  23
ENDBRANCH   3  22
BRANCH   1  32
HETATM   32  O1  UNL     1      17.761  -0.283  52.106  1.00  0.00    -0.356 OA
HETATM   33  C1  UNL     1      17.250   0.312  50.939  1.00  0.00     0.210 C 
ENDBRANCH   1  32
TORSDOF 6
ENDMDL
MODEL 2
REMARK VINA RESULT:      -9.1      3.567      7.993
REMARK  6 active torsions:
REMARK  status: ('A' for Active; 'I' for Inactive)
REMARK    1  A    between atoms: O1_2  and  C2_3 
REMARK    2  A    between atoms: C4_5  and  O2_6 
REMARK    3  A    between atoms: O2_6  and  C5_7 
REMARK       I    between atoms: N1_10  and  C8_11 
REMARK    4  A    between atoms: C13_17  and  N2_18 
REMARK    5  A    between atoms: N2_18  and  S1_19 
REMARK    6  A    between atoms: S1_19  and  C14_20 
ROOT
HETATM    1  C2  UNL     1      27.046   4.627  49.102  1.00  0.00     0.073 A 
HETATM    2  C3  UNL     1      26.684   3.491  49.792  1.00  0.00     0.074 A 
HETATM    3  C4  UNL     1      25.529   3.296  50.513  1.00  0.00     0.088 A 
HETATM    4  C12 UNL     1      24.678   4.407  50.502  1.00  0.00     0.073 A 
HETATM    5  C13 UNL     1      23.483   4.349  51.206  1.00  0.00     0.150 A 
HETATM    6  N3  UNL     1      22.692   5.426  51.192  1.00  0.00    -0.223 NA
HETATM    7  C20 UNL     1      23.007   6.551  50.529  1.00  0.00     0.236 A 
HETATM    8  N4  UNL     1      24.161   6.629  49.841  1.00  0.00    -0.241 NA
HETATM    9  C21 UNL     1      25.007   5.586  49.810  1.00  0.00     0.077 A 
HETATM   10  C22 UNL     1      26.181   5.675  49.125  1.00  0.00     0.069 A 
ENDROOT
BRANCH   5  11
HETATM   11  N2  UNL     1      23.047   3.221  51.947  1.00  0.00    -0.310 N 
HETATM   12  H17 UNL     1      23.552   2.620  52.646  1.00  0.00     0.176 HD
BRANCH  11  13
HETATM   13  S1  UNL     1      21.415   3.196  51.292  1.00  0.00    -0.013 SA
BRANCH  13  14
HETATM   14  C14 UNL     1      20.576   1.737  51.860  1.00  0.00     0.023 A 
HETATM   15  C15 UNL     1      19.431   1.096  51.442  1.00  0.00     0.023 A 
HETATM   16  C16 UNL     1      19.035  -0.037  52.123  1.00  0.00     0.045 A 
HETATM   17  C17 UNL     1      19.703  -0.563  53.180  1.00  0.00     0.138 A 
HETATM   18  F1  UNL     1      19.235  -1.679  53.784  1.00  0.00    -0.204 F 
HETATM   19  C18 UNL     1      20.865   0.069  53.622  1.00  0.00     0.073 A 
HETATM   20 CL1  UNL     1      21.662  -0.667  54.987  1.00  0.00    -0.081 Cl
HETATM   21  C19 UNL     1      21.282   1.219  52.945  1.00  0.00     0.047 A 
ENDBRANCH  13  14
ENDBRANCH  11  13
ENDBRANCH   5  11
BRANCH   3  22
HETATM   22  O2  UNL     1      25.169   2.151  51.202  1.00  0.00    -0.345 OA
BRANCH  22  23
HETATM   23  C5  UNL     1      25.646   1.827  52.490  1.00  0.00     0.132 C 
HETATM   24  C6  UNL     1      25.123   0.589  53.074  1.00  0.00     0.052 C 
HETATM   25  C7  UNL     1      26.026  -0.510  53.459  1.00  0.00     0.128 C 
HETATM   26  N1  UNL     1      27.400  -0.119  53.485  1.00  0.00    -0.352 N 
HETATM   27  C8  UNL     1      28.406  -1.127  53.343  1.00  0.00     0.215 C 
HETATM   28  C10 UNL     1      27.808   1.264  53.650  1.00  0.00     0.128 C 
HETATM   29  C9  UNL     1      29.868  -0.858  53.356  1.00  0.00     0.117 C 
HETATM   30  O3  UNL     1      27.744  -2.215  53.218  1.00  0.00    -0.274 OA
HETATM   31  C11 UNL     1      27.138   2.027  52.541  1.00  0.00     0.052 C 
ENDBRANCH  22  23
ENDBRANCH   3  22
BRANCH   1  32
HETATM   32  O1  UNL     1      28.260   4.656  48.423  1.00  0.00    -0.356 OA
HETATM   33  C1  UNL     1      28.930   5.860  48.144  1.00  0.00     0.210 C 
ENDBRANCH   1  32
TORSDOF 6
ENDMDL
MODEL 3
REMARK VINA RESULT:      -8.8      3.765      6.665
REMARK  6 active torsions:
REMARK  status: ('A' for Active; 'I' for Inactive)
REMARK    1  A    between atoms: O1_2  and  C2_3 
REMARK    2  A    between atoms: C4_5  and  O2_6 
REMARK    3  A    between atoms: O2_6  and  C5_7 
REMARK       I    between atoms: N1_10  and  C8_11 
REMARK    4  A    between atoms: C13_17  and  N2_18 
REMARK    5  A    between atoms: N2_18  and  S1_19 
REMARK    6  A    between atoms: S1_19  and  C14_20 
ROOT
HETATM    1  C2  UNL     1      20.923   1.660  52.730  1.00  0.00     0.073 A 
HETATM    2  C3  UNL     1      22.275   1.396  52.748  1.00  0.00     0.074 A 
HETATM    3  C4  UNL     1      23.284   2.227  52.320  1.00  0.00     0.088 A 
HETATM    4  C12 UNL     1      22.818   3.452  51.828  1.00  0.00     0.073 A 
HETATM    5  C13 UNL     1      23.734   4.378  51.348  1.00  0.00     0.150 A 
HETATM    6  N3  UNL     1      23.266   5.536  50.871  1.00  0.00    -0.223 NA
HETATM    7  C20 UNL     1      21.956   5.833  50.840  1.00  0.00     0.236 A 
HETATM    8  N4  UNL     1      21.051   4.949  51.299  1.00  0.00    -0.241 NA
HETATM    9  C21 UNL     1      21.447   3.764  51.793  1.00  0.00     0.077 A 
HETATM   10  C22 UNL     1      20.527   2.866  52.243  1.00  0.00     0.069 A 
ENDROOT
BRANCH   5  11
HETATM   11  N2  UNL     1      25.137   4.175  51.323  1.00  0.00    -0.310 N 
HETATM   12  H17 UNL     1      25.838   4.118  52.104  1.00  0.00     0.176 HD
BRANCH  11  13
HETATM   13  S1  UNL     1      25.270   4.059  49.574  1.00  0.00    -0.013 SA
BRANCH  13  14
HETATM   14  C14 UNL     1      26.603   5.093  49.016  1.00  0.00     0.023 A 
HETATM   15  C15 UNL     1      27.890   4.819  48.608  1.00  0.00     0.023 A 
HETATM   16  C16 UNL     1      28.694   5.878  48.240  1.00  0.00     0.045 A 
HETATM   17  C17 UNL     1      28.299   7.175  48.253  1.00  0.00     0.138 A 
HETATM   18  F1  UNL     1      29.162   8.145  47.874  1.00  0.00    -0.204 F 
HETATM   19  C18 UNL     1      27.001   7.478  48.663  1.00  0.00     0.073 A 
HETATM   20 CL1  UNL     1      26.573   9.168  48.655  1.00  0.00    -0.081 Cl
HETATM   21  C19 UNL     1      26.170   6.418  49.041  1.00  0.00     0.047 A 
ENDBRANCH  13  14
ENDBRANCH  11  13
ENDBRANCH   5  11
BRANCH   3  22
HETATM   22  O2  UNL     1      24.641   1.957  52.343  1.00  0.00    -0.345 OA
BRANCH  22  23
HETATM   23  C5  UNL     1      25.321   1.442  53.467  1.00  0.00     0.132 C 
HETATM   24  C6  UNL     1      25.030   0.047  53.807  1.00  0.00     0.052 C 
HETATM   25  C7  UNL     1      26.100  -0.966  53.838  1.00  0.00     0.128 C 
HETATM   26  N1  UNL     1      27.409  -0.395  53.807  1.00  0.00    -0.352 N 
HETATM   27  C8  UNL     1      28.498  -1.196  53.337  1.00  0.00     0.215 C 
HETATM   28  C10 UNL     1      27.670   0.966  54.236  1.00  0.00     0.128 C 
HETATM   29  C9  UNL     1      29.907  -0.728  53.257  1.00  0.00     0.117 C 
HETATM   30  O3  UNL     1      27.958  -2.317  53.039  1.00  0.00    -0.274 OA
HETATM   31  C11 UNL     1      26.773   1.840  53.404  1.00  0.00     0.052 C 
ENDBRANCH  22  23
ENDBRANCH   3  22
BRANCH   1  32
HETATM   32  O1  UNL     1      20.033   0.700  53.202  1.00  0.00    -0.356 OA
HETATM   33  C1  UNL     1      20.463  -0.410  53.951  1.00  0.00     0.210 C 
ENDBRANCH   1  32
TORSDOF 6
ENDMDL
MODEL 4
REMARK VINA RESULT:      -8.7      3.247      5.857
REMARK  6 active torsions:
REMARK  status: ('A' for Active; 'I' for Inactive)
REMARK    1  A    between atoms: O1_2  and  C2_3 
REMARK    2  A    between atoms: C4_5  and  O2_6 
REMARK    3  A    between atoms: O2_6  and  C5_7 
REMARK       I    between atoms: N1_10  and  C8_11 
REMARK    4  A    between atoms: C13_17  and  N2_18 
REMARK    5  A    between atoms: N2_18  and  S1_19 
REMARK    6  A    between atoms: S1_19  and  C14_20 
ROOT
HETATM    1  C2  UNL     1      22.567  -0.892  54.283  1.00  0.00     0.073 A 
HETATM    2  C3  UNL     1      23.486  -0.204  53.522  1.00  0.00     0.074 A 
HETATM    3  C4  UNL     1      23.229   0.562  52.408  1.00  0.00     0.088 A 
HETATM    4  C12 UNL     1      21.871   0.602  52.069  1.00  0.00     0.073 A 
HETATM    5  C13 UNL     1      21.476   1.328  50.953  1.00  0.00     0.150 A 
HETATM    6  N3  UNL     1      20.177   1.342  50.641  1.00  0.00    -0.223 NA
HETATM    7  C20 UNL     1      19.249   0.687  51.359  1.00  0.00     0.236 A 
HETATM    8  N4  UNL     1      19.611  -0.023  52.443  1.00  0.00    -0.241 NA
HETATM    9  C21 UNL     1      20.899  -0.084  52.819  1.00  0.00     0.077 A 
HETATM   10  C22 UNL     1      21.263  -0.816  53.908  1.00  0.00     0.069 A 
ENDROOT
BRANCH   5  11
HETATM   11  N2  UNL     1      22.363   2.051  50.116  1.00  0.00    -0.310 N 
HETATM   12  H17 UNL     1      23.170   1.728  49.526  1.00  0.00     0.176 HD
BRANCH  11  13
HETATM   13  S1  UNL     1      21.647   3.629  50.419  1.00  0.00    -0.013 SA
BRANCH  13  14
HETATM   14  C14 UNL     1      22.925   4.862  50.427  1.00  0.00     0.023 A 
HETATM   15  C15 UNL     1      22.951   6.179  50.834  1.00  0.00     0.023 A 
HETATM   16  C16 UNL     1      24.130   6.880  50.691  1.00  0.00     0.045 A 
HETATM   17  C17 UNL     1      25.270   6.357  50.176  1.00  0.00     0.138 A 
HETATM   18  F1  UNL     1      26.378   7.126  50.076  1.00  0.00    -0.204 F 
HETATM   19  C18 UNL     1      25.269   5.026  49.757  1.00  0.00     0.073 A 
HETATM   20 CL1  UNL     1      26.772   4.431  49.103  1.00  0.00    -0.081 Cl
HETATM   21  C19 UNL     1      24.083   4.299  49.893  1.00  0.00     0.047 A 
ENDBRANCH  13  14
ENDBRANCH  11  13
ENDBRANCH   5  11
BRANCH   3  22
HETATM   22  O2  UNL     1      24.157   1.253  51.649  1.00  0.00    -0.345 OA
BRANCH  22  23
HETATM   23  C5  UNL     1      25.303   1.875  52.186  1.00  0.00     0.132 C 
HETATM   24  C6  UNL     1      25.320   2.043  53.641  1.00  0.00     0.052 C 
HETATM   25  C7  UNL     1      26.381   1.437  54.465  1.00  0.00     0.128 C 
HETATM   26  N1  UNL     1      27.487   0.968  53.691  1.00  0.00    -0.352 N 
HETATM   27  C8  UNL     1      28.327  -0.053  54.240  1.00  0.00     0.215 C 
HETATM   28  C10 UNL     1      27.785   1.491  52.371  1.00  0.00     0.128 C 
HETATM   29  C9  UNL     1      29.509  -0.626  53.544  1.00  0.00     0.117 C 
HETATM   30  O3  UNL     1      27.815  -0.298  55.386  1.00  0.00    -0.274 OA
HETATM   31  C11 UNL     1      26.539   1.286  51.555  1.00  0.00     0.052 C 
ENDBRANCH  22  23
ENDBRANCH   3  22
BRANCH   1  32
HETATM   32  O1  UNL     1      23.002  -1.624  55.383  1.00  0.00    -0.356 OA
HETATM   33  C1  UNL     1      24.271  -1.423  55.957  1.00  0.00     0.210 C 
ENDBRANCH   1  32
TORSDOF 6
ENDMDL
MODEL 5
REMARK VINA RESULT:      -8.7      3.848      5.581
REMARK  6 active torsions:
REMARK  status: ('A' for Active; 'I' for Inactive)
REMARK    1  A    between atoms: O1_2  and  C2_3 
REMARK    2  A    between atoms: C4_5  and  O2_6 
REMARK    3  A    between atoms: O2_6  and  C5_7 
REMARK       I    between atoms: N1_10  and  C8_11 
REMARK    4  A    between atoms: C13_17  and  N2_18 
REMARK    5  A    between atoms: N2_18  and  S1_19 
REMARK    6  A    between atoms: S1_19  and  C14_20 
ROOT
HETATM    1  C2  UNL     1      23.280  -0.434  53.356  1.00  0.00     0.073 A 
HETATM    2  C3  UNL     1      22.839   0.685  52.685  1.00  0.00     0.074 A 
HETATM    3  C4  UNL     1      23.615   1.690  52.155  1.00  0.00     0.088 A 
HETATM    4  C12 UNL     1      24.987   1.490  52.354  1.00  0.00     0.073 A 
HETATM    5  C13 UNL     1      25.882   2.440  51.883  1.00  0.00     0.150 A 
HETATM    6  N3  UNL     1      27.185   2.235  52.096  1.00  0.00    -0.223 NA
HETATM    7  C20 UNL     1      27.657   1.155  52.742  1.00  0.00     0.236 A 
HETATM    8  N4  UNL     1      26.805   0.223  53.208  1.00  0.00    -0.241 NA
HETATM    9  C21 UNL     1      25.480   0.361  53.032  1.00  0.00     0.077 A 
HETATM   10  C22 UNL     1      24.622  -0.578  53.519  1.00  0.00     0.069 A 
ENDROOT
BRANCH   5  11
HETATM   11  N2  UNL     1      25.504   3.621  51.195  1.00  0.00    -0.310 N 
HETATM   12  H17 UNL     1      24.896   4.425  51.491  1.00  0.00     0.176 HD
BRANCH  11  13
HETATM   13  S1  UNL     1      26.390   3.259  49.719  1.00  0.00    -0.013 SA
BRANCH  13  14
HETATM   14  C14 UNL     1      26.916   4.777  48.962  1.00  0.00     0.023 A 
HETATM   15  C15 UNL     1      28.139   5.222  48.511  1.00  0.00     0.023 A 
HETATM   16  C16 UNL     1      28.212   6.488  47.970  1.00  0.00     0.045 A 
HETATM   17  C17 UNL     1      27.153   7.329  47.853  1.00  0.00     0.138 A 
HETATM   18  F1  UNL     1      27.324   8.555  47.309  1.00  0.00    -0.204 F 
HETATM   19  C18 UNL     1      25.904   6.902  48.303  1.00  0.00     0.073 A 
HETATM   20 CL1  UNL     1      24.597   8.041  48.120  1.00  0.00    -0.081 Cl
HETATM   21  C19 UNL     1      25.810   5.620  48.854  1.00  0.00     0.047 A 
ENDBRANCH  13  14
ENDBRANCH  11  13
ENDBRANCH   5  11
BRANCH   3  22
HETATM   22  O2  UNL     1      23.166   2.811  51.480  1.00  0.00    -0.345 OA
BRANCH  22  23
HETATM   23  C5  UNL     1      22.003   2.835  50.684  1.00  0.00     0.132 C 
HETATM   24  C6  UNL     1      21.323   4.129  50.581  1.00  0.00     0.052 C 
HETATM   25  C7  UNL     1      21.128   4.784  49.275  1.00  0.00     0.128 C 
HETATM   26  N1  UNL     1      21.383   3.912  48.172  1.00  0.00    -0.352 N 
HETATM   27  C8  UNL     1      21.725   4.487  46.906  1.00  0.00     0.215 C 
HETATM   28  C10 UNL     1      21.306   2.469  48.292  1.00  0.00     0.128 C 
HETATM   29  C9  UNL     1      22.010   3.697  45.679  1.00  0.00     0.117 C 
HETATM   30  O3  UNL     1      21.712   5.748  47.120  1.00  0.00    -0.274 OA
HETATM   31  C11 UNL     1      22.257   2.096  49.396  1.00  0.00     0.052 C 
ENDBRANCH  22  23
ENDBRANCH   3  22
BRANCH   1  32
HETATM   32  O1  UNL     1      22.352  -1.356  53.830  1.00  0.00    -0.356 OA
HETATM   33  C1  UNL     1      21.212  -0.961  54.554  1.00  0.00     0.210 C 
ENDBRANCH   1  32
TORSDOF 6
ENDMDL
MODEL 6
REMARK VINA RESULT:      -8.6      1.831      2.606
REMARK  6 active torsions:
REMARK  status: ('A' for Active; 'I' for Inactive)
REMARK    1  A    between atoms: O1_2  and  C2_3 
REMARK    2  A    between atoms: C4_5  and  O2_6 
REMARK    3  A    between atoms: O2_6  and  C5_7 
REMARK       I    between atoms: N1_10  and  C8_11 
REMARK    4  A    between atoms: C13_17  and  N2_18 
REMARK    5  A    between atoms: N2_18  and  S1_19 
REMARK    6  A    between atoms: S1_19  and  C14_20 
ROOT
HETATM    1  C2  UNL     1      19.343  -0.268  52.539  1.00  0.00     0.073 A 
HETATM    2  C3  UNL     1      20.247   0.230  51.626  1.00  0.00     0.074 A 
HETATM    3  C4  UNL     1      21.617   0.261  51.752  1.00  0.00     0.088 A 
HETATM    4  C12 UNL     1      22.071  -0.288  52.958  1.00  0.00     0.073 A 
HETATM    5  C13 UNL     1      23.434  -0.304  53.219  1.00  0.00     0.150 A 
HETATM    6  N3  UNL     1      23.845  -0.821  54.382  1.00  0.00    -0.223 NA
HETATM    7  C20 UNL     1      22.996  -1.319  55.296  1.00  0.00     0.236 A 
HETATM    8  N4  UNL     1      21.671  -1.312  55.063  1.00  0.00    -0.241 NA
HETATM    9  C21 UNL     1      21.184  -0.809  53.916  1.00  0.00     0.077 A 
HETATM   10  C22 UNL     1      19.841  -0.789  53.691  1.00  0.00     0.069 A 
ENDROOT
BRANCH   5  11
HETATM   11  N2  UNL     1      24.423   0.199  52.336  1.00  0.00    -0.310 N 
HETATM   12  H17 UNL     1      24.640  -0.043  51.337  1.00  0.00     0.176 HD
BRANCH  11  13
HETATM   13  S1  UNL     1      25.129   1.330  53.483  1.00  0.00    -0.013 SA
BRANCH  13  14
HETATM   14  C14 UNL     1      26.884   1.063  53.567  1.00  0.00     0.023 A 
HETATM   15  C15 UNL     1      27.949   1.912  53.774  1.00  0.00     0.023 A 
HETATM   16  C16 UNL     1      29.218   1.374  53.770  1.00  0.00     0.045 A 
HETATM   17  C17 UNL     1      29.489   0.059  53.574  1.00  0.00     0.138 A 
HETATM   18  F1  UNL     1      30.770  -0.374  53.587  1.00  0.00    -0.204 F 
HETATM   19  C18 UNL     1      28.427  -0.820  53.361  1.00  0.00     0.073 A 
HETATM   20 CL1  UNL     1      28.858  -2.491  53.115  1.00  0.00    -0.081 Cl
HETATM   21  C19 UNL     1      27.132  -0.293  53.362  1.00  0.00     0.047 A 
ENDBRANCH  13  14
ENDBRANCH  11  13
ENDBRANCH   5  11
BRANCH   3  22
HETATM   22  O2  UNL     1      22.520   0.760  50.831  1.00  0.00    -0.345 OA
BRANCH  22  23
HETATM   23  C5  UNL     1      22.303   1.929  50.072  1.00  0.00     0.132 C 
HETATM   24  C6  UNL     1      21.749   1.729  48.730  1.00  0.00     0.052 C 
HETATM   25  C7  UNL     1      20.463   2.334  48.340  1.00  0.00     0.128 C 
HETATM   26  N1  UNL     1      20.013   3.328  49.262  1.00  0.00    -0.352 N 
HETATM   27  C8  UNL     1      18.616   3.636  49.315  1.00  0.00     0.215 C 
HETATM   28  C10 UNL     1      20.924   4.034  50.144  1.00  0.00     0.128 C 
HETATM   29  C9  UNL     1      18.017   4.650  50.222  1.00  0.00     0.117 C 
HETATM   30  O3  UNL     1      18.091   2.864  48.440  1.00  0.00    -0.274 OA
HETATM   31  C11 UNL     1      21.640   2.974  50.932  1.00  0.00     0.052 C 
ENDBRANCH  22  23
ENDBRANCH   3  22
BRANCH   1  32
HETATM   32  O1  UNL     1      17.983  -0.217  52.249  1.00  0.00    -0.356 OA
HETATM   33  C1  UNL     1      17.073  -1.148  52.782  1.00  0.00     0.210 C 
ENDBRANCH   1  32
TORSDOF 6
ENDMDL
MODEL 7
REMARK VINA RESULT:      -8.6      1.910      2.768
REMARK  6 active torsions:
REMARK  status: ('A' for Active; 'I' for Inactive)
REMARK    1  A    between atoms: O1_2  and  C2_3 
REMARK    2  A    between atoms: C4_5  and  O2_6 
REMARK    3  A    between atoms: O2_6  and  C5_7 
REMARK       I    between atoms: N1_10  and  C8_11 
REMARK    4  A    between atoms: C13_17  and  N2_18 
REMARK    5  A    between atoms: N2_18  and  S1_19 
REMARK    6  A    between atoms: S1_19  and  C14_20 
ROOT
HETATM    1  C2  UNL     1      20.637   1.334  50.075  1.00  0.00     0.073 A 
HETATM    2  C3  UNL     1      21.957   1.727  50.126  1.00  0.00     0.074 A 
HETATM    3  C4  UNL     1      22.858   1.467  51.132  1.00  0.00     0.088 A 
HETATM    4  C12 UNL     1      22.311   0.718  52.181  1.00  0.00     0.073 A 
HETATM    5  C13 UNL     1      23.111   0.399  53.270  1.00  0.00     0.150 A 
HETATM    6  N3  UNL     1      22.565  -0.305  54.266  1.00  0.00    -0.223 NA
HETATM    7  C20 UNL     1      21.285  -0.711  54.253  1.00  0.00     0.236 A 
HETATM    8  N4  UNL     1      20.491  -0.411  53.208  1.00  0.00    -0.241 NA
HETATM    9  C21 UNL     1      20.970   0.294  52.169  1.00  0.00     0.077 A 
HETATM   10  C22 UNL     1      20.161   0.608  51.121  1.00  0.00     0.069 A 
ENDROOT
BRANCH   5  11
HETATM   11  N2  UNL     1      24.472   0.777  53.400  1.00  0.00    -0.310 N 
HETATM   12  H17 UNL     1      24.937   1.715  53.306  1.00  0.00     0.176 HD
BRANCH  11  13
HETATM   13  S1  UNL     1      25.073  -0.836  53.756  1.00  0.00    -0.013 SA
BRANCH  13  14
HETATM   14  C14 UNL     1      26.840  -0.858  53.576  1.00  0.00     0.023 A 
HETATM   15  C15 UNL     1      27.721  -1.813  53.118  1.00  0.00     0.023 A 
HETATM   16  C16 UNL     1      29.066  -1.510  53.119  1.00  0.00     0.045 A 
HETATM   17  C17 UNL     1      29.582  -0.329  53.543  1.00  0.00     0.138 A 
HETATM   18  F1  UNL     1      30.918  -0.126  53.506  1.00  0.00    -0.204 F 
HETATM   19  C18 UNL     1      28.710   0.653  54.012  1.00  0.00     0.073 A 
HETATM   20 CL1  UNL     1      29.450   2.140  54.542  1.00  0.00    -0.081 Cl
HETATM   21  C19 UNL     1      27.342   0.365  54.019  1.00  0.00     0.047 A 
ENDBRANCH  13  14
ENDBRANCH  11  13
ENDBRANCH   5  11
BRANCH   3  22
HETATM   22  O2  UNL     1      24.183   1.863  51.177  1.00  0.00    -0.345 OA
BRANCH  22  23
HETATM   23  C5  UNL     1      24.613   3.191  50.973  1.00  0.00     0.132 C 
HETATM   24  C6  UNL     1      24.770   3.607  49.577  1.00  0.00     0.052 C 
HETATM   25  C7  UNL     1      24.000   4.738  49.029  1.00  0.00     0.128 C 
HETATM   26  N1  UNL     1      23.365   5.521  50.041  1.00  0.00    -0.352 N 
HETATM   27  C8  UNL     1      22.222   6.306  49.688  1.00  0.00     0.215 C 
HETATM   28  C10 UNL     1      23.840   5.546  51.412  1.00  0.00     0.128 C 
HETATM   29  C9  UNL     1      21.471   7.167  50.640  1.00  0.00     0.117 C 
HETATM   30  O3  UNL     1      22.055   6.075  48.440  1.00  0.00    -0.274 OA
HETATM   31  C11 UNL     1      23.838   4.116  51.876  1.00  0.00     0.052 C 
ENDBRANCH  22  23
ENDBRANCH   3  22
BRANCH   1  32
HETATM   32  O1  UNL     1      19.861   1.688  48.976  1.00  0.00    -0.356 OA
HETATM   33  C1  UNL     1      20.211   2.754  48.129  1.00  0.00     0.210 C 
ENDBRANCH   1  32
TORSDOF 6
ENDMDL
MODEL 8
REMARK VINA RESULT:      -8.5      4.149      7.055
REMARK  6 active torsions:
REMARK  status: ('A' for Active; 'I' for Inactive)
REMARK    1  A    between atoms: O1_2  and  C2_3 
REMARK    2  A    between atoms: C4_5  and  O2_6 
REMARK    3  A    between atoms: O2_6  and  C5_7 
REMARK       I    between atoms: N1_10  and  C8_11 
REMARK    4  A    between atoms: C13_17  and  N2_18 
REMARK    5  A    between atoms: N2_18  and  S1_19 
REMARK    6  A    between atoms: S1_19  and  C14_20 
ROOT
HETATM    1  C2  UNL     1      26.009  -0.179  54.660  1.00  0.00     0.073 A 
HETATM    2  C3  UNL     1      25.710   0.544  53.527  1.00  0.00     0.074 A 
HETATM    3  C4  UNL     1      24.491   0.620  52.893  1.00  0.00     0.088 A 
HETATM    4  C12 UNL     1      23.497  -0.141  53.519  1.00  0.00     0.073 A 
HETATM    5  C13 UNL     1      22.222  -0.167  52.970  1.00  0.00     0.150 A 
HETATM    6  N3  UNL     1      21.291  -0.910  53.576  1.00  0.00    -0.223 NA
HETATM    7  C20 UNL     1      21.541  -1.627  54.685  1.00  0.00     0.236 A 
HETATM    8  N4  UNL     1      22.771  -1.618  55.232  1.00  0.00    -0.241 NA
HETATM    9  C21 UNL     1      23.758  -0.893  54.678  1.00  0.00     0.077 A 
HETATM   10  C22 UNL     1      25.005  -0.899  55.226  1.00  0.00     0.069 A 
ENDROOT
BRANCH   5  11
HETATM   11  N2  UNL     1      21.841   0.541  51.802  1.00  0.00    -0.310 N 
HETATM   12  H17 UNL     1      22.305   0.618  50.862  1.00  0.00     0.176 HD
BRANCH  11  13
HETATM   13  S1  UNL     1      20.366   1.221  52.477  1.00  0.00    -0.013 SA
BRANCH  13  14
HETATM   14  C14 UNL     1      18.981   0.729  51.479  1.00  0.00     0.023 A 
HETATM   15  C15 UNL     1      18.557   1.100  50.222  1.00  0.00     0.023 A 
HETATM   16  C16 UNL     1      17.406   0.523  49.728  1.00  0.00     0.045 A 
HETATM   17  C17 UNL     1      16.661  -0.390  50.401  1.00  0.00     0.138 A 
HETATM   18  F1  UNL     1      15.545  -0.899  49.833  1.00  0.00    -0.204 F 
HETATM   19  C18 UNL     1      17.070  -0.781  51.676  1.00  0.00     0.073 A 
HETATM   20 CL1  UNL     1      16.058  -1.954  52.476  1.00  0.00    -0.081 Cl
HETATM   21  C19 UNL     1      18.235  -0.207  52.195  1.00  0.00     0.047 A 
ENDBRANCH  13  14
ENDBRANCH  11  13
ENDBRANCH   5  11
BRANCH   3  22
HETATM   22  O2  UNL     1      24.196   1.351  51.756  1.00  0.00    -0.345 OA
BRANCH  22  23
HETATM   23  C5  UNL     1      24.614   2.682  51.547  1.00  0.00     0.132 C 
HETATM   24  C6  UNL     1      24.912   3.049  50.160  1.00  0.00     0.052 C 
HETATM   25  C7  UNL     1      24.180   4.138  49.489  1.00  0.00     0.128 C 
HETATM   26  N1  UNL     1      23.420   4.941  50.395  1.00  0.00    -0.352 N 
HETATM   27  C8  UNL     1      22.304   5.680  49.890  1.00  0.00     0.215 C 
HETATM   28  C10 UNL     1      23.743   5.030  51.806  1.00  0.00     0.128 C 
HETATM   29  C9  UNL     1      21.435   6.555  50.721  1.00  0.00     0.117 C 
HETATM   30  O3  UNL     1      22.279   5.399  48.642  1.00  0.00    -0.274 OA
HETATM   31  C11 UNL     1      23.725   3.618  52.324  1.00  0.00     0.052 C 
ENDBRANCH  22  23
ENDBRANCH   3  22
BRANCH   1  32
HETATM   32  O1  UNL     1      27.303  -0.145  55.171  1.00  0.00    -0.356 OA
HETATM   33  C1  UNL     1      28.404   0.243  54.386  1.00  0.00     0.210 C 
ENDBRANCH   1  32
TORSDOF 6
ENDMDL
MODEL 9
REMARK VINA RESULT:      -8.3      3.957      6.135
REMARK  6 active torsions:
REMARK  status: ('A' for Active; 'I' for Inactive)
REMARK    1  A    between atoms: O1_2  and  C2_3 
REMARK    2  A    between atoms: C4_5  and  O2_6 
REMARK    3  A    between atoms: O2_6  and  C5_7 
REMARK       I    between atoms: N1_10  and  C8_11 
REMARK    4  A    between atoms: C13_17  and  N2_18 
REMARK    5  A    between atoms: N2_18  and  S1_19 
REMARK    6  A    between atoms: S1_19  and  C14_20 
ROOT
HETATM    1  C2  UNL     1      25.256  -0.047  53.226  1.00  0.00     0.073 A 
HETATM    2  C3  UNL     1      24.842   1.139  52.660  1.00  0.00     0.074 A 
HETATM    3  C4  UNL     1      23.552   1.608  52.574  1.00  0.00     0.088 A 
HETATM    4  C12 UNL     1      22.611   0.739  53.142  1.00  0.00     0.073 A 
HETATM    5  C13 UNL     1      21.267   1.085  53.107  1.00  0.00     0.150 A 
HETATM    6  N3  UNL     1      20.386   0.235  53.644  1.00  0.00    -0.223 NA
HETATM    7  C20 UNL     1      20.749  -0.928  54.210  1.00  0.00     0.236 A 
HETATM    8  N4  UNL     1      22.047  -1.283  54.252  1.00  0.00    -0.241 NA
HETATM    9  C21 UNL     1      22.990  -0.480  53.732  1.00  0.00     0.077 A 
HETATM   10  C22 UNL     1      24.300  -0.850  53.764  1.00  0.00     0.069 A 
ENDROOT
BRANCH   5  11
HETATM   11  N2  UNL     1      20.765   2.280  52.533  1.00  0.00    -0.310 N 
HETATM   12  H17 UNL     1      20.867   3.282  52.832  1.00  0.00     0.176 HD
BRANCH  11  13
HETATM   13  S1  UNL     1      19.937   1.500  51.192  1.00  0.00    -0.013 SA
BRANCH  13  14
HETATM   14  C14 UNL     1      20.769   1.899  49.675  1.00  0.00     0.023 A 
HETATM   15  C15 UNL     1      21.816   1.309  49.001  1.00  0.00     0.023 A 
HETATM   16  C16 UNL     1      22.240   1.890  47.824  1.00  0.00     0.045 A 
HETATM   17  C17 UNL     1      21.693   3.009  47.285  1.00  0.00     0.138 A 
HETATM   18  F1  UNL     1      22.180   3.505  46.125  1.00  0.00    -0.204 F 
HETATM   19  C18 UNL     1      20.633   3.625  47.950  1.00  0.00     0.073 A 
HETATM   20 CL1  UNL     1      19.988   5.058  47.195  1.00  0.00    -0.081 Cl
HETATM   21  C19 UNL     1      20.188   3.050  49.145  1.00  0.00     0.047 A 
ENDBRANCH  13  14
ENDBRANCH  11  13
ENDBRANCH   5  11
BRANCH   3  22
HETATM   22  O2  UNL     1      23.142   2.801  52.005  1.00  0.00    -0.345 OA
BRANCH  22  23
HETATM   23  C5  UNL     1      24.028   3.814  51.583  1.00  0.00     0.132 C 
HETATM   24  C6  UNL     1      24.510   3.709  50.204  1.00  0.00     0.052 C 
HETATM   25  C7  UNL     1      24.262   4.785  49.227  1.00  0.00     0.128 C 
HETATM   26  N1  UNL     1      23.803   5.994  49.835  1.00  0.00    -0.352 N 
HETATM   27  C8  UNL     1      23.063   6.926  49.041  1.00  0.00     0.215 C 
HETATM   28  C10 UNL     1      24.064   6.306  51.228  1.00  0.00     0.128 C 
HETATM   29  C9  UNL     1      22.532   8.219  49.547  1.00  0.00     0.117 C 
HETATM   30  O3  UNL     1      23.001   6.376  47.887  1.00  0.00    -0.274 OA
HETATM   31  C11 UNL     1      23.504   5.157  52.020  1.00  0.00     0.052 C 
ENDBRANCH  22  23
ENDBRANCH   3  22
BRANCH   1  32
HETATM   32  O1  UNL     1      26.609  -0.368  53.225  1.00  0.00    -0.356 OA
HETATM   33  C1  UNL     1      27.085  -1.591  52.719  1.00  0.00     0.210 C 
ENDBRANCH   1  32
TORSDOF 6
ENDMDL
