MODEL 1
REMARK VINA RESULT:      -9.5      0.000      0.000
REMARK  3 active torsions:
REMARK  status: ('A' for Active; 'I' for Inactive)
REMARK    1  A    between atoms: C3_4  and  C4_5 
REMARK    2  A    between atoms: C17_20  and  C18_21 
REMARK    3  A    between atoms: N2_22  and  N3_23 
ROOT
HETATM    1  N1  UNL     1      25.428   2.999  53.874  1.00  0.00    -0.304 NA
HETATM    2  C1  UNL     1      24.728   2.223  53.130  1.00  0.00     0.041 C 
HETATM    3  C2  UNL     1      24.333   0.748  53.141  1.00  0.00    -0.003 C 
HETATM    4  C3  UNL     1      25.080  -0.332  53.330  1.00  0.00     0.023 C 
HETATM    5  C10 UNL     1      22.949   0.873  52.883  1.00  0.00     0.169 C 
HETATM    6  O1  UNL     1      22.824   1.208  51.591  1.00  0.00    -0.379 OA
HETATM    7  C11 UNL     1      23.945   1.764  50.994  1.00  0.00     0.179 C 
HETATM    8  C12 UNL     1      24.184   2.957  51.977  1.00  0.00     0.067 C 
HETATM    9  C13 UNL     1      22.888   3.617  51.985  1.00  0.00     0.011 C 
HETATM   10  C14 UNL     1      21.823   2.931  52.270  1.00  0.00     0.021 C 
HETATM   11  C15 UNL     1      20.532   2.473  52.525  1.00  0.00    -0.024 C 
HETATM   12  C16 UNL     1      20.659   1.102  52.868  1.00  0.00    -0.018 C 
HETATM   13  C17 UNL     1      21.766   0.018  53.052  1.00  0.00     0.084 C 
HETATM   14  H1  UNL     1      25.620   4.002  53.756  1.00  0.00     0.186 HD
ENDROOT
BRANCH   4  15
HETATM   15  C4  UNL     1      26.491  -0.426  53.584  1.00  0.00    -0.035 A 
HETATM   16  C5  UNL     1      27.135  -1.350  52.755  1.00  0.00     0.014 A 
HETATM   17  C6  UNL     1      28.512  -1.534  52.897  1.00  0.00     0.043 A 
HETATM   18  C7  UNL     1      29.270  -0.845  53.816  1.00  0.00     0.116 A 
HETATM   19  F1  UNL     1      30.598  -0.997  53.980  1.00  0.00    -0.206 F 
HETATM   20  C8  UNL     1      28.650   0.067  54.640  1.00  0.00     0.043 A 
HETATM   21  C9  UNL     1      27.295   0.231  54.484  1.00  0.00     0.014 A 
ENDBRANCH   4  15
BRANCH  13  22
HETATM   22  C18 UNL     1      21.618  -0.467  54.445  1.00  0.00     0.122 C 
HETATM   23  N2  UNL     1      21.950  -1.072  55.512  1.00  0.00    -0.198 NA
BRANCH  23  24
HETATM   24  N3  UNL     1      23.176  -1.723  55.547  1.00  0.00    -0.323 N 
HETATM   25  H17 UNL     1      23.206  -2.740  55.330  1.00  0.00     0.179 HD
HETATM   26  H18 UNL     1      24.119  -1.309  55.775  1.00  0.00     0.179 HD
ENDBRANCH  23  24
ENDBRANCH  13  22
TORSDOF 3
ENDMDL
MODEL 2
REMARK VINA RESULT:      -8.9      3.968      6.163
REMARK  3 active torsions:
REMARK  status: ('A' for Active; 'I' for Inactive)
REMARK    1  A    between atoms: C3_4  and  C4_5 
REMARK    2  A    between atoms: C17_20  and  C18_21 
REMARK    3  A    between atoms: N2_22  and  N3_23 
ROOT
HETATM    1  N1  UNL     1      24.106   4.903  52.195  1.00  0.00    -0.304 NA
HETATM    2  C1  UNL     1      24.260   3.745  51.664  1.00  0.00     0.041 C 
HETATM    3  C2  UNL     1      25.387   3.004  50.947  1.00  0.00    -0.003 C 
HETATM    4  C3  UNL     1      26.183   3.409  49.967  1.00  0.00     0.023 C 
HETATM    5  C10 UNL     1      25.322   1.766  51.624  1.00  0.00     0.169 C 
HETATM    6  O1  UNL     1      24.221   1.139  51.184  1.00  0.00    -0.379 OA
HETATM    7  C11 UNL     1      23.253   1.944  50.602  1.00  0.00     0.179 C 
HETATM    8  C12 UNL     1      23.027   2.949  51.779  1.00  0.00     0.067 C 
HETATM    9  C13 UNL     1      22.747   2.063  52.896  1.00  0.00     0.011 C 
HETATM   10  C14 UNL     1      23.588   1.119  53.191  1.00  0.00     0.021 C 
HETATM   11  C15 UNL     1      24.278   0.038  53.736  1.00  0.00    -0.024 C 
HETATM   12  C16 UNL     1      25.479  -0.081  52.990  1.00  0.00    -0.018 C 
HETATM   13  C17 UNL     1      26.224   0.620  51.811  1.00  0.00     0.084 C 
HETATM   14  H1  UNL     1      23.276   5.291  52.663  1.00  0.00     0.186 HD
ENDROOT
BRANCH   4  15
HETATM   15  C4  UNL     1      26.218   4.677  49.292  1.00  0.00    -0.035 A 
HETATM   16  C5  UNL     1      27.506   5.049  48.894  1.00  0.00     0.014 A 
HETATM   17  C6  UNL     1      27.678   6.262  48.223  1.00  0.00     0.043 A 
HETATM   18  C7  UNL     1      26.635   7.112  47.930  1.00  0.00     0.116 A 
HETATM   19  F1  UNL     1      26.763   8.286  47.285  1.00  0.00    -0.206 F 
HETATM   20  C8  UNL     1      25.361   6.759  48.316  1.00  0.00     0.043 A 
HETATM   21  C9  UNL     1      25.216   5.563  48.977  1.00  0.00     0.014 A 
ENDBRANCH   4  15
BRANCH  13  22
HETATM   22  C18 UNL     1      27.539   1.025  52.359  1.00  0.00     0.122 C 
HETATM   23  N2  UNL     1      28.350   1.682  53.086  1.00  0.00    -0.198 NA
BRANCH  23  24
HETATM   24  N3  UNL     1      27.834   2.642  53.947  1.00  0.00    -0.323 N 
HETATM   25  H17 UNL     1      28.496   3.286  54.427  1.00  0.00     0.179 HD
HETATM   26  H18 UNL     1      26.822   2.811  54.191  1.00  0.00     0.179 HD
ENDBRANCH  23  24
ENDBRANCH  13  22
TORSDOF 3
ENDMDL
MODEL 3
REMARK VINA RESULT:      -8.7      3.097      4.813
REMARK  3 active torsions:
REMARK  status: ('A' for Active; 'I' for Inactive)
REMARK    1  A    between atoms: C3_4  and  C4_5 
REMARK    2  A    between atoms: C17_20  and  C18_21 
REMARK    3  A    between atoms: N2_22  and  N3_23 
ROOT
HETATM    1  N1  UNL     1      22.354   3.844  52.559  1.00  0.00    -0.304 NA
HETATM    2  C1  UNL     1      22.490   2.604  52.255  1.00  0.00     0.041 C 
HETATM    3  C2  UNL     1      23.659   1.658  51.994  1.00  0.00    -0.003 C 
HETATM    4  C3  UNL     1      24.734   1.821  51.235  1.00  0.00     0.023 C 
HETATM    5  C10 UNL     1      23.254   0.560  52.787  1.00  0.00     0.169 C 
HETATM    6  O1  UNL     1      22.238  -0.031  52.142  1.00  0.00    -0.379 OA
HETATM    7  C11 UNL     1      21.574   0.748  51.207  1.00  0.00     0.179 C 
HETATM    8  C12 UNL     1      21.178   1.952  52.123  1.00  0.00     0.067 C 
HETATM    9  C13 UNL     1      20.496   1.293  53.225  1.00  0.00     0.011 C 
HETATM   10  C14 UNL     1      21.096   0.340  53.871  1.00  0.00     0.021 C 
HETATM   11  C15 UNL     1      21.468  -0.692  54.731  1.00  0.00    -0.024 C 
HETATM   12  C16 UNL     1      22.798  -1.039  54.378  1.00  0.00    -0.018 C 
HETATM   13  C17 UNL     1      23.915  -0.614  53.375  1.00  0.00     0.084 C 
HETATM   14  H1  UNL     1      21.487   4.376  52.715  1.00  0.00     0.186 HD
ENDROOT
BRANCH   4  15
HETATM   15  C4  UNL     1      25.114   2.951  50.431  1.00  0.00    -0.035 A 
HETATM   16  C5  UNL     1      26.497   3.056  50.256  1.00  0.00     0.014 A 
HETATM   17  C6  UNL     1      26.998   4.111  49.490  1.00  0.00     0.043 A 
HETATM   18  C7  UNL     1      26.192   5.056  48.896  1.00  0.00     0.116 A 
HETATM   19  F1  UNL     1      26.641   6.085  48.151  1.00  0.00    -0.206 F 
HETATM   20  C8  UNL     1      24.828   4.966  49.061  1.00  0.00     0.043 A 
HETATM   21  C9  UNL     1      24.357   3.921  49.819  1.00  0.00     0.014 A 
ENDBRANCH   4  15
BRANCH  13  22
HETATM   22  C18 UNL     1      25.079  -0.242  54.213  1.00  0.00     0.122 C 
HETATM   23  N2  UNL     1      26.293  -0.235  54.588  1.00  0.00    -0.198 NA
BRANCH  23  24
HETATM   24  N3  UNL     1      27.211  -0.988  53.867  1.00  0.00    -0.323 N 
HETATM   25  H17 UNL     1      28.014  -0.500  53.420  1.00  0.00     0.179 HD
HETATM   26  H18 UNL     1      27.201  -2.030  53.703  1.00  0.00     0.179 HD
ENDBRANCH  23  24
ENDBRANCH  13  22
TORSDOF 3
ENDMDL
MODEL 4
REMARK VINA RESULT:      -8.6      4.695      6.583
REMARK  3 active torsions:
REMARK  status: ('A' for Active; 'I' for Inactive)
REMARK    1  A    between atoms: C3_4  and  C4_5 
REMARK    2  A    between atoms: C17_20  and  C18_21 
REMARK    3  A    between atoms: N2_22  and  N3_23 
ROOT
HETATM    1  N1  UNL     1      24.823   6.416  51.228  1.00  0.00    -0.304 NA
HETATM    2  C1  UNL     1      24.737   5.225  50.758  1.00  0.00     0.041 C 
HETATM    3  C2  UNL     1      25.713   4.185  50.211  1.00  0.00    -0.003 C 
HETATM    4  C3  UNL     1      26.691   4.318  49.326  1.00  0.00     0.023 C 
HETATM    5  C10 UNL     1      25.261   3.046  50.915  1.00  0.00     0.169 C 
HETATM    6  O1  UNL     1      24.094   2.686  50.361  1.00  0.00    -0.379 OA
HETATM    7  C11 UNL     1      23.433   3.667  49.638  1.00  0.00     0.179 C 
HETATM    8  C12 UNL     1      23.339   4.769  50.744  1.00  0.00     0.067 C 
HETATM    9  C13 UNL     1      22.719   4.051  51.846  1.00  0.00     0.011 C 
HETATM   10  C14 UNL     1      23.254   2.949  52.273  1.00  0.00     0.021 C 
HETATM   11  C15 UNL     1      23.582   1.766  52.934  1.00  0.00    -0.024 C 
HETATM   12  C16 UNL     1      24.789   1.307  52.348  1.00  0.00    -0.018 C 
HETATM   13  C17 UNL     1      25.816   1.727  51.249  1.00  0.00     0.084 C 
HETATM   14  H1  UNL     1      24.071   7.026  51.576  1.00  0.00     0.186 HD
ENDROOT
BRANCH   4  15
HETATM   15  C4  UNL     1      27.122   5.493  48.620  1.00  0.00    -0.035 A 
HETATM   16  C5  UNL     1      28.490   5.486  48.331  1.00  0.00     0.014 A 
HETATM   17  C6  UNL     1      29.037   6.571  47.642  1.00  0.00     0.043 A 
HETATM   18  C7  UNL     1      28.290   7.652  47.231  1.00  0.00     0.116 A 
HETATM   19  F1  UNL     1      28.783   8.714  46.566  1.00  0.00    -0.206 F 
HETATM   20  C8  UNL     1      26.942   7.674  47.510  1.00  0.00     0.043 A 
HETATM   21  C9  UNL     1      26.426   6.597  48.189  1.00  0.00     0.014 A 
ENDBRANCH   4  15
BRANCH  13  22
HETATM   22  C18 UNL     1      27.120   1.827  51.944  1.00  0.00     0.122 C 
HETATM   23  N2  UNL     1      27.923   2.120  52.885  1.00  0.00    -0.198 NA
BRANCH  23  24
HETATM   24  N3  UNL     1      27.408   2.713  54.031  1.00  0.00    -0.323 N 
HETATM   25  H17 UNL     1      27.053   2.099  54.792  1.00  0.00     0.179 HD
HETATM   26  H18 UNL     1      27.324   3.743  54.240  1.00  0.00     0.179 HD
ENDBRANCH  23  24
ENDBRANCH  13  22
TORSDOF 3
ENDMDL
MODEL 5
REMARK VINA RESULT:      -8.6      3.518      5.890
REMARK  3 active torsions:
REMARK  status: ('A' for Active; 'I' for Inactive)
REMARK    1  A    between atoms: C3_4  and  C4_5 
REMARK    2  A    between atoms: C17_20  and  C18_21 
REMARK    3  A    between atoms: N2_22  and  N3_23 
ROOT
HETATM    1  N1  UNL     1      21.945   1.022  49.593  1.00  0.00    -0.304 NA
HETATM    2  C1  UNL     1      22.649   1.680  50.440  1.00  0.00     0.041 C 
HETATM    3  C2  UNL     1      23.394   1.362  51.735  1.00  0.00    -0.003 C 
HETATM    4  C3  UNL     1      22.997   0.680  52.800  1.00  0.00     0.023 C 
HETATM    5  C10 UNL     1      24.619   2.013  51.467  1.00  0.00     0.169 C 
HETATM    6  O1  UNL     1      24.389   3.330  51.567  1.00  0.00    -0.379 OA
HETATM    7  C11 UNL     1      23.066   3.729  51.446  1.00  0.00     0.179 C 
HETATM    8  C12 UNL     1      22.744   3.096  50.052  1.00  0.00     0.067 C 
HETATM    9  C13 UNL     1      23.806   3.629  49.215  1.00  0.00     0.011 C 
HETATM   10  C14 UNL     1      25.044   3.466  49.572  1.00  0.00     0.021 C 
HETATM   11  C15 UNL     1      26.433   3.456  49.687  1.00  0.00    -0.024 C 
HETATM   12  C16 UNL     1      26.726   2.719  50.864  1.00  0.00    -0.018 C 
HETATM   13  C17 UNL     1      25.988   1.941  51.998  1.00  0.00     0.084 C 
HETATM   14  H1  UNL     1      21.488   1.360  48.736  1.00  0.00     0.186 HD
ENDROOT
BRANCH   4  15
HETATM   15  C4  UNL     1      21.737   0.034  53.045  1.00  0.00    -0.035 A 
HETATM   16  C5  UNL     1      21.854  -1.107  53.846  1.00  0.00     0.014 A 
HETATM   17  C6  UNL     1      20.700  -1.827  54.163  1.00  0.00     0.043 A 
HETATM   18  C7  UNL     1      19.446  -1.465  53.725  1.00  0.00     0.116 A 
HETATM   19  F1  UNL     1      18.313  -2.133  54.011  1.00  0.00    -0.206 F 
HETATM   20  C8  UNL     1      19.315  -0.344  52.935  1.00  0.00     0.043 A 
HETATM   21  C9  UNL     1      20.463   0.347  52.634  1.00  0.00     0.014 A 
ENDBRANCH   4  15
BRANCH  13  22
HETATM   22  C18 UNL     1      26.534   0.565  51.954  1.00  0.00     0.122 C 
HETATM   23  N2  UNL     1      26.764  -0.615  52.370  1.00  0.00    -0.198 NA
BRANCH  23  24
HETATM   24  N3  UNL     1      26.246  -0.992  53.603  1.00  0.00    -0.323 N 
HETATM   25  H17 UNL     1      25.924  -1.973  53.728  1.00  0.00     0.179 HD
HETATM   26  H18 UNL     1      26.130  -0.392  54.463  1.00  0.00     0.179 HD
ENDBRANCH  23  24
ENDBRANCH  13  22
TORSDOF 3
ENDMDL
MODEL 6
REMARK VINA RESULT:      -8.6      9.070     11.676
REMARK  3 active torsions:
REMARK  status: ('A' for Active; 'I' for Inactive)
REMARK    1  A    between atoms: C3_4  and  C4_5 
REMARK    2  A    between atoms: C17_20  and  C18_21 
REMARK    3  A    between atoms: N2_22  and  N3_23 
ROOT
HETATM    1  N1  UNL     1      31.249   5.514  50.295  1.00  0.00    -0.304 NA
HETATM    2  C1  UNL     1      31.448   5.978  49.116  1.00  0.00     0.041 C 
HETATM    3  C2  UNL     1      30.746   6.972  48.192  1.00  0.00    -0.003 C 
HETATM    4  C3  UNL     1      29.464   7.077  47.870  1.00  0.00     0.023 C 
HETATM    5  C10 UNL     1      31.861   7.735  47.778  1.00  0.00     0.169 C 
HETATM    6  O1  UNL     1      32.559   6.971  46.925  1.00  0.00    -0.379 OA
HETATM    7  C11 UNL     1      32.331   5.605  47.003  1.00  0.00     0.179 C 
HETATM    8  C12 UNL     1      32.654   5.386  48.517  1.00  0.00     0.067 C 
HETATM    9  C13 UNL     1      33.979   5.971  48.640  1.00  0.00     0.011 C 
HETATM   10  C14 UNL     1      34.177   7.194  48.251  1.00  0.00     0.021 C 
HETATM   11  C15 UNL     1      34.691   8.448  47.925  1.00  0.00    -0.024 C 
HETATM   12  C16 UNL     1      33.597   9.206  47.430  1.00  0.00    -0.018 C 
HETATM   13  C17 UNL     1      32.065   9.060  47.176  1.00  0.00     0.084 C 
HETATM   14  H1  UNL     1      31.812   4.832  50.821  1.00  0.00     0.186 HD
ENDROOT
BRANCH   4  15
HETATM   15  C4  UNL     1      28.351   6.277  48.305  1.00  0.00    -0.035 A 
HETATM   16  C5  UNL     1      27.192   7.027  48.523  1.00  0.00     0.014 A 
HETATM   17  C6  UNL     1      26.035   6.368  48.946  1.00  0.00     0.043 A 
HETATM   18  C7  UNL     1      25.981   5.009  49.157  1.00  0.00     0.116 A 
HETATM   19  F1  UNL     1      24.885   4.341  49.563  1.00  0.00    -0.206 F 
HETATM   20  C8  UNL     1      27.116   4.257  48.947  1.00  0.00     0.043 A 
HETATM   21  C9  UNL     1      28.242   4.926  48.533  1.00  0.00     0.014 A 
ENDBRANCH   4  15
BRANCH  13  22
HETATM   22  C18 UNL     1      31.428  10.139  47.966  1.00  0.00     0.122 C 
HETATM   23  N2  UNL     1      30.856  10.670  48.970  1.00  0.00    -0.198 NA
BRANCH  23  24
HETATM   24  N3  UNL     1      30.619   9.881  50.088  1.00  0.00    -0.323 N 
HETATM   25  H17 UNL     1      31.432   9.451  50.575  1.00  0.00     0.179 HD
HETATM   26  H18 UNL     1      29.688   9.648  50.526  1.00  0.00     0.179 HD
ENDBRANCH  23  24
ENDBRANCH  13  22
TORSDOF 3
ENDMDL
MODEL 7
REMARK VINA RESULT:      -8.4      5.281      6.973
REMARK  3 active torsions:
REMARK  status: ('A' for Active; 'I' for Inactive)
REMARK    1  A    between atoms: C3_4  and  C4_5 
REMARK    2  A    between atoms: C17_20  and  C18_21 
REMARK    3  A    between atoms: N2_22  and  N3_23 
ROOT
HETATM    1  N1  UNL     1      25.918   7.352  50.753  1.00  0.00    -0.304 NA
HETATM    2  C1  UNL     1      25.526   6.229  50.271  1.00  0.00     0.041 C 
HETATM    3  C2  UNL     1      26.199   4.963  49.746  1.00  0.00    -0.003 C 
HETATM    4  C3  UNL     1      27.204   4.823  48.892  1.00  0.00     0.023 C 
HETATM    5  C10 UNL     1      25.432   3.990  50.427  1.00  0.00     0.169 C 
HETATM    6  O1  UNL     1      24.229   3.960  49.835  1.00  0.00    -0.379 OA
HETATM    7  C11 UNL     1      23.883   5.084  49.099  1.00  0.00     0.179 C 
HETATM    8  C12 UNL     1      24.057   6.171  50.211  1.00  0.00     0.067 C 
HETATM    9  C13 UNL     1      23.231   5.650  51.287  1.00  0.00     0.011 C 
HETATM   10  C14 UNL     1      23.432   4.443  51.722  1.00  0.00     0.021 C 
HETATM   11  C15 UNL     1      23.405   3.217  52.384  1.00  0.00    -0.024 C 
HETATM   12  C16 UNL     1      24.460   2.446  51.831  1.00  0.00    -0.018 C 
HETATM   13  C17 UNL     1      25.596   2.570  50.767  1.00  0.00     0.084 C 
HETATM   14  H1  UNL     1      25.350   8.144  51.083  1.00  0.00     0.186 HD
ENDROOT
BRANCH   4  15
HETATM   15  C4  UNL     1      27.960   5.837  48.209  1.00  0.00    -0.035 A 
HETATM   16  C5  UNL     1      29.334   5.575  48.193  1.00  0.00     0.014 A 
HETATM   17  C6  UNL     1      30.183   6.483  47.556  1.00  0.00     0.043 A 
HETATM   18  C7  UNL     1      29.731   7.627  46.938  1.00  0.00     0.116 A 
HETATM   19  F1  UNL     1      30.519   8.522  46.314  1.00  0.00    -0.206 F 
HETATM   20  C8  UNL     1      28.380   7.898  46.947  1.00  0.00     0.043 A 
HETATM   21  C9  UNL     1      27.564   6.993  47.581  1.00  0.00     0.014 A 
ENDBRANCH   4  15
BRANCH  13  22
HETATM   22  C18 UNL     1      26.856   2.311  51.502  1.00  0.00     0.122 C 
HETATM   23  N2  UNL     1      27.629   2.249  52.510  1.00  0.00    -0.198 NA
BRANCH  23  24
HETATM   24  N3  UNL     1      27.124   2.611  53.752  1.00  0.00    -0.323 N 
HETATM   25  H17 UNL     1      27.438   2.081  54.590  1.00  0.00     0.179 HD
HETATM   26  H18 UNL     1      26.437   3.382  53.968  1.00  0.00     0.179 HD
ENDBRANCH  23  24
ENDBRANCH  13  22
TORSDOF 3
ENDMDL
MODEL 8
REMARK VINA RESULT:      -8.4      4.130      5.862
REMARK  3 active torsions:
REMARK  status: ('A' for Active; 'I' for Inactive)
REMARK    1  A    between atoms: C3_4  and  C4_5 
REMARK    2  A    between atoms: C17_20  and  C18_21 
REMARK    3  A    between atoms: N2_22  and  N3_23 
ROOT
HETATM    1  N1  UNL     1      26.666   1.687  51.189  1.00  0.00    -0.304 NA
HETATM    2  C1  UNL     1      25.494   2.154  51.424  1.00  0.00     0.041 C 
HETATM    3  C2  UNL     1      24.386   2.810  50.603  1.00  0.00    -0.003 C 
HETATM    4  C3  UNL     1      24.451   3.793  49.716  1.00  0.00     0.023 C 
HETATM    5  C10 UNL     1      23.277   2.071  51.073  1.00  0.00     0.169 C 
HETATM    6  O1  UNL     1      23.024   2.499  52.318  1.00  0.00    -0.379 OA
HETATM    7  C11 UNL     1      24.069   3.141  52.967  1.00  0.00     0.179 C 
HETATM    8  C12 UNL     1      25.156   2.023  52.850  1.00  0.00     0.067 C 
HETATM    9  C13 UNL     1      24.475   0.867  53.409  1.00  0.00     0.011 C 
HETATM   10  C14 UNL     1      23.325   0.507  52.926  1.00  0.00     0.021 C 
HETATM   11  C15 UNL     1      22.108  -0.107  52.632  1.00  0.00    -0.024 C 
HETATM   12  C16 UNL     1      21.560   0.609  51.536  1.00  0.00    -0.018 C 
HETATM   13  C17 UNL     1      21.911   1.807  50.600  1.00  0.00     0.084 C 
HETATM   14  H1  UNL     1      27.330   1.256  51.846  1.00  0.00     0.186 HD
ENDROOT
BRANCH   4  15
HETATM   15  C4  UNL     1      25.598   4.532  49.264  1.00  0.00    -0.035 A 
HETATM   16  C5  UNL     1      25.311   5.873  48.992  1.00  0.00     0.014 A 
HETATM   17  C6  UNL     1      26.342   6.704  48.548  1.00  0.00     0.043 A 
HETATM   18  C7  UNL     1      27.634   6.264  48.366  1.00  0.00     0.116 A 
HETATM   19  F1  UNL     1      28.652   7.036  47.941  1.00  0.00    -0.206 F 
HETATM   20  C8  UNL     1      27.931   4.946  48.629  1.00  0.00     0.043 A 
HETATM   21  C9  UNL     1      26.902   4.147  49.063  1.00  0.00     0.014 A 
ENDBRANCH   4  15
BRANCH  13  22
HETATM   22  C18 UNL     1      21.890   1.255  49.225  1.00  0.00     0.122 C 
HETATM   23  N2  UNL     1      21.930   1.282  47.955  1.00  0.00    -0.198 NA
BRANCH  23  24
HETATM   24  N3  UNL     1      22.089   2.510  47.326  1.00  0.00    -0.323 N 
HETATM   25  H17 UNL     1      21.253   2.965  46.905  1.00  0.00     0.179 HD
HETATM   26  H18 UNL     1      22.978   3.065  47.213  1.00  0.00     0.179 HD
ENDBRANCH  23  24
ENDBRANCH  13  22
TORSDOF 3
ENDMDL
MODEL 9
REMARK VINA RESULT:      -8.0      2.064      2.475
REMARK  3 active torsions:
REMARK  status: ('A' for Active; 'I' for Inactive)
REMARK    1  A    between atoms: C3_4  and  C4_5 
REMARK    2  A    between atoms: C17_20  and  C18_21 
REMARK    3  A    between atoms: N2_22  and  N3_23 
ROOT
HETATM    1  N1  UNL     1      24.328   3.801  53.244  1.00  0.00    -0.304 NA
HETATM    2  C1  UNL     1      24.138   3.210  52.122  1.00  0.00     0.041 C 
HETATM    3  C2  UNL     1      23.875   1.777  51.663  1.00  0.00    -0.003 C 
HETATM    4  C3  UNL     1      24.487   0.650  51.998  1.00  0.00     0.023 C 
HETATM    5  C10 UNL     1      22.799   2.008  50.776  1.00  0.00     0.169 C 
HETATM    6  O1  UNL     1      23.317   2.585  49.681  1.00  0.00    -0.379 OA
HETATM    7  C11 UNL     1      24.553   3.194  49.838  1.00  0.00     0.179 C 
HETATM    8  C12 UNL     1      24.201   4.170  51.009  1.00  0.00     0.067 C 
HETATM    9  C13 UNL     1      23.039   4.872  50.489  1.00  0.00     0.011 C 
HETATM   10  C14 UNL     1      22.015   4.192  50.071  1.00  0.00     0.021 C 
HETATM   11  C15 UNL     1      20.796   3.752  49.558  1.00  0.00    -0.024 C 
HETATM   12  C16 UNL     1      20.813   2.337  49.660  1.00  0.00    -0.018 C 
HETATM   13  C17 UNL     1      21.740   1.190  50.170  1.00  0.00     0.084 C 
HETATM   14  H1  UNL     1      24.496   4.800  53.425  1.00  0.00     0.186 HD
ENDROOT
BRANCH   4  15
HETATM   15  C4  UNL     1      25.587   0.449  52.901  1.00  0.00    -0.035 A 
HETATM   16  C5  UNL     1      26.801   0.228  52.244  1.00  0.00     0.014 A 
HETATM   17  C6  UNL     1      27.951   0.021  53.008  1.00  0.00     0.043 A 
HETATM   18  C7  UNL     1      27.948   0.028  54.385  1.00  0.00     0.116 A 
HETATM   19  F1  UNL     1      29.037  -0.166  55.153  1.00  0.00    -0.206 F 
HETATM   20  C8  UNL     1      26.760   0.243  55.046  1.00  0.00     0.043 A 
HETATM   21  C9  UNL     1      25.641   0.442  54.275  1.00  0.00     0.014 A 
ENDBRANCH   4  15
BRANCH  13  22
HETATM   22  C18 UNL     1      20.945   0.460  51.185  1.00  0.00     0.122 C 
HETATM   23  N2  UNL     1      20.372   0.269  52.304  1.00  0.00    -0.198 NA
BRANCH  23  24
HETATM   24  N3  UNL     1      20.450   1.270  53.264  1.00  0.00    -0.323 N 
HETATM   25  H17 UNL     1      19.859   1.189  54.116  1.00  0.00     0.179 HD
HETATM   26  H18 UNL     1      21.051   2.137  53.244  1.00  0.00     0.179 HD
ENDBRANCH  23  24
ENDBRANCH  13  22
TORSDOF 3
ENDMDL
