MODEL 1
REMARK VINA RESULT:      -7.9      0.000      0.000
REMARK  8 active torsions:
REMARK  status: ('A' for Active; 'I' for Inactive)
REMARK    1  A    between atoms: O1_1  and  C1_2 
REMARK    2  A    between atoms: C1_2  and  C2_3 
REMARK    3  A    between atoms: C3_4  and  C4_5 
REMARK    4  A    between atoms: C5_6  and  C6_7 
REMARK    5  A    between atoms: C6_7  and  C7_8 
REMARK    6  A    between atoms: C9_10  and  C10_11 
REMARK    7  A    between atoms: N2_18  and  C16_19 
REMARK    8  A    between atoms: C16_19  and  C17_20 
ROOT
HETATM    1  C7  UNL     1      26.236   2.124  53.038  1.00  0.00     0.114 C 
HETATM    2  C8  UNL     1      25.381   1.216  53.860  1.00  0.00     0.089 C 
HETATM    3  C9  UNL     1      24.265   0.930  52.901  1.00  0.00     0.066 C 
HETATM    4  N1  UNL     1      24.557   1.370  51.727  1.00  0.00    -0.180 NA
HETATM    5  N2  UNL     1      25.793   1.974  51.662  1.00  0.00    -0.294 N 
ENDROOT
BRANCH   1   6
HETATM    6  C6  UNL     1      27.712   1.825  53.181  1.00  0.00     0.054 C 
BRANCH   6   7
HETATM    7  C5  UNL     1      28.019   1.123  54.442  1.00  0.00    -0.025 C 
HETATM    8  C4  UNL     1      28.908   0.174  54.680  1.00  0.00    -0.004 C 
BRANCH   8   9
HETATM    9  C3  UNL     1      29.772  -0.348  53.651  1.00  0.00    -0.002 C 
HETATM   10  C2  UNL     1      29.429  -1.434  52.981  1.00  0.00    -0.001 C 
BRANCH  10  11
HETATM   11  C1  UNL     1      28.242  -2.306  53.066  1.00  0.00     0.191 C 
BRANCH  11  12
HETATM   12  O1  UNL     1      28.631  -3.620  53.416  1.00  0.00    -0.397 OA
HETATM   13  H1  UNL     1      28.498  -4.221  52.626  1.00  0.00     0.209 HD
ENDBRANCH  11  12
ENDBRANCH  10  11
ENDBRANCH   8   9
ENDBRANCH   6   7
ENDBRANCH   1   6
BRANCH   5  14
HETATM   14  C16 UNL     1      26.492   2.373  50.477  1.00  0.00     0.212 C 
BRANCH  14  15
HETATM   15  C17 UNL     1      26.183   3.790  50.072  1.00  0.00     0.094 A 
HETATM   16  N3  UNL     1      25.160   4.597  50.430  1.00  0.00    -0.256 NA
HETATM   17  C18 UNL     1      25.245   5.802  49.844  1.00  0.00     0.124 A 
HETATM   18  C19 UNL     1      26.222   6.277  48.959  1.00  0.00     0.071 A 
HETATM   19  S1  UNL     1      27.260   4.696  48.929  1.00  0.00    -0.084 SA
ENDBRANCH  14  15
ENDBRANCH   5  14
BRANCH   3  20
HETATM   20  C10 UNL     1      23.008   0.246  53.238  1.00  0.00    -0.010 A 
HETATM   21  C11 UNL     1      21.862   0.651  52.588  1.00  0.00     0.013 A 
HETATM   22  C12 UNL     1      20.705  -0.022  52.939  1.00  0.00     0.001 A 
HETATM   23  C13 UNL     1      20.602  -1.040  53.861  1.00  0.00     0.000 A 
HETATM   24  C14 UNL     1      21.809  -1.374  54.459  1.00  0.00     0.001 A 
HETATM   25  C15 UNL     1      23.013  -0.767  54.182  1.00  0.00     0.013 A 
ENDBRANCH   3  20
TORSDOF 8
ENDMDL
MODEL 2
REMARK VINA RESULT:      -7.9      3.306      7.321
REMARK  8 active torsions:
REMARK  status: ('A' for Active; 'I' for Inactive)
REMARK    1  A    between atoms: O1_1  and  C1_2 
REMARK    2  A    between atoms: C1_2  and  C2_3 
REMARK    3  A    between atoms: C3_4  and  C4_5 
REMARK    4  A    between atoms: C5_6  and  C6_7 
REMARK    5  A    between atoms: C6_7  and  C7_8 
REMARK    6  A    between atoms: C9_10  and  C10_11 
REMARK    7  A    between atoms: N2_18  and  C16_19 
REMARK    8  A    between atoms: C16_19  and  C17_20 
ROOT
HETATM    1  C7  UNL     1      23.593   0.764  53.132  1.00  0.00     0.114 C 
HETATM    2  C8  UNL     1      23.503   1.528  51.853  1.00  0.00     0.089 C 
HETATM    3  C9  UNL     1      24.872   2.137  51.787  1.00  0.00     0.066 C 
HETATM    4  N1  UNL     1      25.634   1.626  52.689  1.00  0.00    -0.180 NA
HETATM    5  N2  UNL     1      25.007   0.674  53.461  1.00  0.00    -0.294 N 
ENDROOT
BRANCH   1   6
HETATM    6  C6  UNL     1      22.957  -0.605  53.042  1.00  0.00     0.054 C 
BRANCH   6   7
HETATM    7  C5  UNL     1      21.961  -0.828  54.109  1.00  0.00    -0.025 C 
HETATM    8  C4  UNL     1      20.659  -0.604  54.101  1.00  0.00    -0.004 C 
BRANCH   8   9
HETATM    9  C3  UNL     1      19.975  -0.067  52.951  1.00  0.00    -0.002 C 
HETATM   10  C2  UNL     1      18.769  -0.501  52.630  1.00  0.00    -0.001 C 
BRANCH  10  11
HETATM   11  C1  UNL     1      17.890  -1.509  53.255  1.00  0.00     0.191 C 
BRANCH  11  12
HETATM   12  O1  UNL     1      16.646  -0.926  53.587  1.00  0.00    -0.397 OA
HETATM   13  H1  UNL     1      16.371  -1.239  54.498  1.00  0.00     0.209 HD
ENDBRANCH  11  12
ENDBRANCH  10  11
ENDBRANCH   8   9
ENDBRANCH   6   7
ENDBRANCH   1   6
BRANCH   5  14
HETATM   14  C16 UNL     1      25.626  -0.218  54.395  1.00  0.00     0.212 C 
BRANCH  14  15
HETATM   15  C17 UNL     1      27.039  -0.569  54.010  1.00  0.00     0.094 A 
HETATM   16  N3  UNL     1      27.504  -1.510  53.160  1.00  0.00    -0.256 NA
HETATM   17  C18 UNL     1      28.845  -1.504  53.093  1.00  0.00     0.124 A 
HETATM   18  C19 UNL     1      29.751  -0.676  53.768  1.00  0.00     0.071 A 
HETATM   19  S1  UNL     1      28.452   0.322  54.714  1.00  0.00    -0.084 SA
ENDBRANCH  14  15
ENDBRANCH   5  14
BRANCH   3  20
HETATM   20  C10 UNL     1      25.297   3.173  50.834  1.00  0.00    -0.010 A 
HETATM   21  C11 UNL     1      26.523   3.019  50.225  1.00  0.00     0.013 A 
HETATM   22  C12 UNL     1      26.880   4.019  49.336  1.00  0.00     0.001 A 
HETATM   23  C13 UNL     1      26.130   5.129  49.015  1.00  0.00     0.000 A 
HETATM   24  C14 UNL     1      24.914   5.191  49.681  1.00  0.00     0.001 A 
HETATM   25  C15 UNL     1      24.467   4.252  50.582  1.00  0.00     0.013 A 
ENDBRANCH   3  20
TORSDOF 8
ENDMDL
MODEL 3
REMARK VINA RESULT:      -7.9      1.847      5.459
REMARK  8 active torsions:
REMARK  status: ('A' for Active; 'I' for Inactive)
REMARK    1  A    between atoms: O1_1  and  C1_2 
REMARK    2  A    between atoms: C1_2  and  C2_3 
REMARK    3  A    between atoms: C3_4  and  C4_5 
REMARK    4  A    between atoms: C5_6  and  C6_7 
REMARK    5  A    between atoms: C6_7  and  C7_8 
REMARK    6  A    between atoms: C9_10  and  C10_11 
REMARK    7  A    between atoms: N2_18  and  C16_19 
REMARK    8  A    between atoms: C16_19  and  C17_20 
ROOT
HETATM    1  C7  UNL     1      24.074   1.503  51.512  1.00  0.00     0.114 C 
HETATM    2  C8  UNL     1      24.816   0.548  52.387  1.00  0.00     0.089 C 
HETATM    3  C9  UNL     1      26.200   1.121  52.325  1.00  0.00     0.066 C 
HETATM    4  N1  UNL     1      26.184   2.274  51.754  1.00  0.00    -0.180 NA
HETATM    5  N2  UNL     1      24.926   2.671  51.359  1.00  0.00    -0.294 N 
ENDROOT
BRANCH   1   6
HETATM    6  C6  UNL     1      22.718   1.875  52.069  1.00  0.00     0.054 C 
BRANCH   6   7
HETATM    7  C5  UNL     1      21.693   0.857  51.765  1.00  0.00    -0.025 C 
HETATM    8  C4  UNL     1      20.850   0.246  52.580  1.00  0.00    -0.004 C 
BRANCH   8   9
HETATM    9  C3  UNL     1      20.815   0.514  53.996  1.00  0.00    -0.002 C 
HETATM   10  C2  UNL     1      21.417  -0.302  54.843  1.00  0.00    -0.001 C 
BRANCH  10  11
HETATM   11  C1  UNL     1      22.188  -1.542  54.632  1.00  0.00     0.191 C 
BRANCH  11  12
HETATM   12  O1  UNL     1      22.885  -1.886  55.813  1.00  0.00    -0.397 OA
HETATM   13  H1  UNL     1      22.228  -1.975  56.565  1.00  0.00     0.209 HD
ENDBRANCH  11  12
ENDBRANCH  10  11
ENDBRANCH   8   9
ENDBRANCH   6   7
ENDBRANCH   1   6
BRANCH   5  14
HETATM   14  C16 UNL     1      24.543   3.970  50.893  1.00  0.00     0.212 C 
BRANCH  14  15
HETATM   15  C17 UNL     1      25.593   4.605  50.021  1.00  0.00     0.094 A 
HETATM   16  N3  UNL     1      26.603   4.043  49.321  1.00  0.00    -0.256 NA
HETATM   17  C18 UNL     1      27.327   4.963  48.663  1.00  0.00     0.124 A 
HETATM   18  C19 UNL     1      27.154   6.353  48.630  1.00  0.00     0.071 A 
HETATM   19  S1  UNL     1      25.644   6.400  49.769  1.00  0.00    -0.084 SA
ENDBRANCH  14  15
ENDBRANCH   5  14
BRANCH   3  20
HETATM   20  C10 UNL     1      27.414   0.469  52.838  1.00  0.00    -0.010 A 
HETATM   21  C11 UNL     1      28.410   1.276  53.344  1.00  0.00     0.013 A 
HETATM   22  C12 UNL     1      29.533   0.617  53.815  1.00  0.00     0.001 A 
HETATM   23  C13 UNL     1      29.735  -0.746  53.822  1.00  0.00     0.000 A 
HETATM   24  C14 UNL     1      28.675  -1.469  53.293  1.00  0.00     0.001 A 
HETATM   25  C15 UNL     1      27.518  -0.911  52.799  1.00  0.00     0.013 A 
ENDBRANCH   3  20
TORSDOF 8
ENDMDL
MODEL 4
REMARK VINA RESULT:      -7.8      3.138      5.692
REMARK  8 active torsions:
REMARK  status: ('A' for Active; 'I' for Inactive)
REMARK    1  A    between atoms: O1_1  and  C1_2 
REMARK    2  A    between atoms: C1_2  and  C2_3 
REMARK    3  A    between atoms: C3_4  and  C4_5 
REMARK    4  A    between atoms: C5_6  and  C6_7 
REMARK    5  A    between atoms: C6_7  and  C7_8 
REMARK    6  A    between atoms: C9_10  and  C10_11 
REMARK    7  A    between atoms: N2_18  and  C16_19 
REMARK    8  A    between atoms: C16_19  and  C17_20 
ROOT
HETATM    1  C7  UNL     1      25.097   1.184  52.050  1.00  0.00     0.114 C 
HETATM    2  C8  UNL     1      23.693   1.354  51.573  1.00  0.00     0.089 C 
HETATM    3  C9  UNL     1      22.941   0.588  52.621  1.00  0.00     0.066 C 
HETATM    4  N1  UNL     1      23.721   0.278  53.597  1.00  0.00    -0.180 NA
HETATM    5  N2  UNL     1      25.013   0.723  53.427  1.00  0.00    -0.294 N 
ENDROOT
BRANCH   1   6
HETATM    6  C6  UNL     1      25.910   2.455  51.940  1.00  0.00     0.054 C 
BRANCH   6   7
HETATM    7  C5  UNL     1      26.681   2.515  50.683  1.00  0.00    -0.025 C 
HETATM    8  C4  UNL     1      26.458   3.232  49.595  1.00  0.00    -0.004 C 
BRANCH   8   9
HETATM    9  C3  UNL     1      25.335   4.129  49.480  1.00  0.00    -0.002 C 
HETATM   10  C2  UNL     1      25.523   5.390  49.133  1.00  0.00    -0.001 C 
BRANCH  10  11
HETATM   11  C1  UNL     1      26.747   6.147  48.807  1.00  0.00     0.191 C 
BRANCH  11  12
HETATM   12  O1  UNL     1      26.995   7.119  49.804  1.00  0.00    -0.397 OA
HETATM   13  H1  UNL     1      26.351   6.983  50.559  1.00  0.00     0.209 HD
ENDBRANCH  11  12
ENDBRANCH  10  11
ENDBRANCH   8   9
ENDBRANCH   6   7
ENDBRANCH   1   6
BRANCH   5  14
HETATM   14  C16 UNL     1      26.056   0.726  54.408  1.00  0.00     0.212 C 
BRANCH  14  15
HETATM   15  C17 UNL     1      27.263  -0.063  53.973  1.00  0.00     0.094 A 
HETATM   16  N3  UNL     1      27.349  -1.295  53.426  1.00  0.00    -0.256 NA
HETATM   17  C18 UNL     1      28.622  -1.644  53.179  1.00  0.00     0.124 A 
HETATM   18  C19 UNL     1      29.791  -0.909  53.414  1.00  0.00     0.071 A 
HETATM   19  S1  UNL     1      28.937   0.612  54.145  1.00  0.00    -0.084 SA
ENDBRANCH  14  15
ENDBRANCH   5  14
BRANCH   3  20
HETATM   20  C10 UNL     1      21.516   0.233  52.556  1.00  0.00    -0.010 A 
HETATM   21  C11 UNL     1      20.818   0.583  51.420  1.00  0.00     0.013 A 
HETATM   22  C12 UNL     1      19.481   0.228  51.406  1.00  0.00     0.001 A 
HETATM   23  C13 UNL     1      18.801  -0.431  52.406  1.00  0.00     0.000 A 
HETATM   24  C14 UNL     1      19.591  -0.739  53.506  1.00  0.00     0.001 A 
HETATM   25  C15 UNL     1      20.928  -0.431  53.619  1.00  0.00     0.013 A 
ENDBRANCH   3  20
TORSDOF 8
ENDMDL
MODEL 5
REMARK VINA RESULT:      -7.7      1.923      5.486
REMARK  8 active torsions:
REMARK  status: ('A' for Active; 'I' for Inactive)
REMARK    1  A    between atoms: O1_1  and  C1_2 
REMARK    2  A    between atoms: C1_2  and  C2_3 
REMARK    3  A    between atoms: C3_4  and  C4_5 
REMARK    4  A    between atoms: C5_6  and  C6_7 
REMARK    5  A    between atoms: C6_7  and  C7_8 
REMARK    6  A    between atoms: C9_10  and  C10_11 
REMARK    7  A    between atoms: N2_18  and  C16_19 
REMARK    8  A    between atoms: C16_19  and  C17_20 
ROOT
HETATM    1  C7  UNL     1      23.501   1.320  51.356  1.00  0.00     0.114 C 
HETATM    2  C8  UNL     1      24.361   0.816  52.467  1.00  0.00     0.089 C 
HETATM    3  C9  UNL     1      25.675   1.448  52.119  1.00  0.00     0.066 C 
HETATM    4  N1  UNL     1      25.524   2.311  51.177  1.00  0.00    -0.180 NA
HETATM    5  N2  UNL     1      24.221   2.425  50.744  1.00  0.00    -0.294 N 
ENDROOT
BRANCH   1   6
HETATM    6  C6  UNL     1      22.128   1.746  51.825  1.00  0.00     0.054 C 
BRANCH   6   7
HETATM    7  C5  UNL     1      21.150   0.643  51.761  1.00  0.00    -0.025 C 
HETATM    8  C4  UNL     1      20.498   0.040  52.741  1.00  0.00    -0.004 C 
BRANCH   8   9
HETATM    9  C3  UNL     1      20.670   0.412  54.124  1.00  0.00    -0.002 C 
HETATM   10  C2  UNL     1      21.421  -0.326  54.923  1.00  0.00    -0.001 C 
BRANCH  10  11
HETATM   11  C1  UNL     1      22.193  -1.560  54.682  1.00  0.00     0.191 C 
BRANCH  11  12
HETATM   12  O1  UNL     1      22.947  -1.891  55.832  1.00  0.00    -0.397 OA
HETATM   13  H1  UNL     1      22.330  -2.250  56.535  1.00  0.00     0.209 HD
ENDBRANCH  11  12
ENDBRANCH  10  11
ENDBRANCH   8   9
ENDBRANCH   6   7
ENDBRANCH   1   6
BRANCH   5  14
HETATM   14  C16 UNL     1      23.692   3.428  49.870  1.00  0.00     0.212 C 
BRANCH  14  15
HETATM   15  C17 UNL     1      24.163   4.813  50.226  1.00  0.00     0.094 A 
HETATM   16  N3  UNL     1      23.690   5.688  51.141  1.00  0.00    -0.256 NA
HETATM   17  C18 UNL     1      24.395   6.830  51.151  1.00  0.00     0.124 A 
HETATM   18  C19 UNL     1      25.499   7.184  50.364  1.00  0.00     0.071 A 
HETATM   19  S1  UNL     1      25.580   5.568  49.384  1.00  0.00    -0.084 SA
ENDBRANCH  14  15
ENDBRANCH   5  14
BRANCH   3  20
HETATM   20  C10 UNL     1      26.963   1.136  52.756  1.00  0.00    -0.010 A 
HETATM   21  C11 UNL     1      27.705   2.187  53.252  1.00  0.00     0.013 A 
HETATM   22  C12 UNL     1      28.909   1.844  53.842  1.00  0.00     0.001 A 
HETATM   23  C13 UNL     1      29.419   0.571  53.973  1.00  0.00     0.000 A 
HETATM   24  C14 UNL     1      28.599  -0.415  53.442  1.00  0.00     0.001 A 
HETATM   25  C15 UNL     1      27.386  -0.179  52.836  1.00  0.00     0.013 A 
ENDBRANCH   3  20
TORSDOF 8
ENDMDL
MODEL 6
REMARK VINA RESULT:      -7.6      3.655      6.979
REMARK  8 active torsions:
REMARK  status: ('A' for Active; 'I' for Inactive)
REMARK    1  A    between atoms: O1_1  and  C1_2 
REMARK    2  A    between atoms: C1_2  and  C2_3 
REMARK    3  A    between atoms: C3_4  and  C4_5 
REMARK    4  A    between atoms: C5_6  and  C6_7 
REMARK    5  A    between atoms: C6_7  and  C7_8 
REMARK    6  A    between atoms: C9_10  and  C10_11 
REMARK    7  A    between atoms: N2_18  and  C16_19 
REMARK    8  A    between atoms: C16_19  and  C17_20 
ROOT
HETATM    1  C7  UNL     1      22.999  -0.154  53.274  1.00  0.00     0.114 C 
HETATM    2  C8  UNL     1      24.174  -0.698  54.017  1.00  0.00     0.089 C 
HETATM    3  C9  UNL     1      25.296   0.048  53.360  1.00  0.00     0.066 C 
HETATM    4  N1  UNL     1      24.834   0.979  52.601  1.00  0.00    -0.180 NA
HETATM    5  N2  UNL     1      23.459   1.046  52.594  1.00  0.00    -0.294 N 
ENDROOT
BRANCH   1   6
HETATM    6  C6  UNL     1      21.820   0.138  54.175  1.00  0.00     0.054 C 
BRANCH   6   7
HETATM    7  C5  UNL     1      20.848  -0.973  54.199  1.00  0.00    -0.025 C 
HETATM    8  C4  UNL     1      19.728  -1.123  53.514  1.00  0.00    -0.004 C 
BRANCH   8   9
HETATM    9  C3  UNL     1      19.263  -0.137  52.571  1.00  0.00    -0.002 C 
HETATM   10  C2  UNL     1      18.029  -0.195  52.101  1.00  0.00    -0.001 C 
BRANCH  10  11
HETATM   11  C1  UNL     1      16.923  -1.137  52.359  1.00  0.00     0.191 C 
BRANCH  11  12
HETATM   12  O1  UNL     1      16.160  -0.697  53.465  1.00  0.00    -0.397 OA
HETATM   13  H1  UNL     1      15.824  -1.495  53.969  1.00  0.00     0.209 HD
ENDBRANCH  11  12
ENDBRANCH  10  11
ENDBRANCH   8   9
ENDBRANCH   6   7
ENDBRANCH   1   6
BRANCH   5  14
HETATM   14  C16 UNL     1      22.653   2.086  52.028  1.00  0.00     0.212 C 
BRANCH  14  15
HETATM   15  C17 UNL     1      22.368   1.867  50.566  1.00  0.00     0.094 A 
HETATM   16  N3  UNL     1      21.568   0.963  49.958  1.00  0.00    -0.256 NA
HETATM   17  C18 UNL     1      21.588   1.098  48.622  1.00  0.00     0.124 A 
HETATM   18  C19 UNL     1      22.304   2.018  47.846  1.00  0.00     0.071 A 
HETATM   19  S1  UNL     1      23.143   2.900  49.293  1.00  0.00    -0.084 SA
ENDBRANCH  14  15
ENDBRANCH   5  14
BRANCH   3  20
HETATM   20  C10 UNL     1      26.727  -0.234  53.545  1.00  0.00    -0.010 A 
HETATM   21  C11 UNL     1      27.264  -1.304  52.861  1.00  0.00     0.013 A 
HETATM   22  C12 UNL     1      28.614  -1.530  53.067  1.00  0.00     0.001 A 
HETATM   23  C13 UNL     1      29.449  -0.793  53.878  1.00  0.00     0.000 A 
HETATM   24  C14 UNL     1      28.814   0.260  54.521  1.00  0.00     0.001 A 
HETATM   25  C15 UNL     1      27.480   0.569  54.384  1.00  0.00     0.013 A 
ENDBRANCH   3  20
TORSDOF 8
ENDMDL
MODEL 7
REMARK VINA RESULT:      -7.6      3.299      6.940
REMARK  8 active torsions:
REMARK  status: ('A' for Active; 'I' for Inactive)
REMARK    1  A    between atoms: O1_1  and  C1_2 
REMARK    2  A    between atoms: C1_2  and  C2_3 
REMARK    3  A    between atoms: C3_4  and  C4_5 
REMARK    4  A    between atoms: C5_6  and  C6_7 
REMARK    5  A    between atoms: C6_7  and  C7_8 
REMARK    6  A    between atoms: C9_10  and  C10_11 
REMARK    7  A    between atoms: N2_18  and  C16_19 
REMARK    8  A    between atoms: C16_19  and  C17_20 
ROOT
HETATM    1  C7  UNL     1      25.067   3.035  50.920  1.00  0.00     0.114 C 
HETATM    2  C8  UNL     1      26.491   2.659  51.164  1.00  0.00     0.089 C 
HETATM    3  C9  UNL     1      26.321   1.403  51.965  1.00  0.00     0.066 C 
HETATM    4  N1  UNL     1      25.091   1.026  51.953  1.00  0.00    -0.180 NA
HETATM    5  N2  UNL     1      24.271   1.857  51.222  1.00  0.00    -0.294 N 
ENDROOT
BRANCH   1   6
HETATM    6  C6  UNL     1      24.824   3.520  49.508  1.00  0.00     0.054 C 
BRANCH   6   7
HETATM    7  C5  UNL     1      25.026   4.976  49.377  1.00  0.00    -0.025 C 
HETATM    8  C4  UNL     1      26.107   5.645  49.016  1.00  0.00    -0.004 C 
BRANCH   8   9
HETATM    9  C3  UNL     1      27.342   4.985  48.671  1.00  0.00    -0.002 C 
HETATM   10  C2  UNL     1      28.389   5.692  48.281  1.00  0.00    -0.001 C 
BRANCH  10  11
HETATM   11  C1  UNL     1      28.582   7.144  48.107  1.00  0.00     0.191 C 
BRANCH  11  12
HETATM   12  O1  UNL     1      28.592   7.785  49.367  1.00  0.00    -0.397 OA
HETATM   13  H1  UNL     1      29.314   7.382  49.933  1.00  0.00     0.209 HD
ENDBRANCH  11  12
ENDBRANCH  10  11
ENDBRANCH   8   9
ENDBRANCH   6   7
ENDBRANCH   1   6
BRANCH   5  14
HETATM   14  C16 UNL     1      22.913   1.606  50.843  1.00  0.00     0.212 C 
BRANCH  14  15
HETATM   15  C17 UNL     1      22.120   0.942  51.938  1.00  0.00     0.094 A 
HETATM   16  N3  UNL     1      22.203  -0.309  52.441  1.00  0.00    -0.256 NA
HETATM   17  C18 UNL     1      21.309  -0.515  53.421  1.00  0.00     0.124 A 
HETATM   18  C19 UNL     1      20.362   0.376  53.942  1.00  0.00     0.071 A 
HETATM   19  S1  UNL     1      20.809   1.832  52.819  1.00  0.00    -0.084 SA
ENDBRANCH  14  15
ENDBRANCH   5  14
BRANCH   3  20
HETATM   20  C10 UNL     1      27.397   0.692  52.671  1.00  0.00    -0.010 A 
HETATM   21  C11 UNL     1      27.387  -0.686  52.635  1.00  0.00     0.013 A 
HETATM   22  C12 UNL     1      28.420  -1.310  53.313  1.00  0.00     0.001 A 
HETATM   23  C13 UNL     1      29.435  -0.687  54.005  1.00  0.00     0.000 A 
HETATM   24  C14 UNL     1      29.355   0.699  53.981  1.00  0.00     0.001 A 
HETATM   25  C15 UNL     1      28.371   1.414  53.338  1.00  0.00     0.013 A 
ENDBRANCH   3  20
TORSDOF 8
ENDMDL
MODEL 8
REMARK VINA RESULT:      -7.4      3.037      6.425
REMARK  8 active torsions:
REMARK  status: ('A' for Active; 'I' for Inactive)
REMARK    1  A    between atoms: O1_1  and  C1_2 
REMARK    2  A    between atoms: C1_2  and  C2_3 
REMARK    3  A    between atoms: C3_4  and  C4_5 
REMARK    4  A    between atoms: C5_6  and  C6_7 
REMARK    5  A    between atoms: C6_7  and  C7_8 
REMARK    6  A    between atoms: C9_10  and  C10_11 
REMARK    7  A    between atoms: N2_18  and  C16_19 
REMARK    8  A    between atoms: C16_19  and  C17_20 
ROOT
HETATM    1  C7  UNL     1      25.098   2.865  50.317  1.00  0.00     0.114 C 
HETATM    2  C8  UNL     1      26.434   3.308  49.819  1.00  0.00     0.089 C 
HETATM    3  C9  UNL     1      26.141   4.730  49.445  1.00  0.00     0.066 C 
HETATM    4  N1  UNL     1      24.977   5.077  49.873  1.00  0.00    -0.180 NA
HETATM    5  N2  UNL     1      24.321   4.072  50.548  1.00  0.00    -0.294 N 
ENDROOT
BRANCH   1   6
HETATM    6  C6  UNL     1      25.191   2.018  51.567  1.00  0.00     0.054 C 
BRANCH   6   7
HETATM    7  C5  UNL     1      26.589   1.730  51.942  1.00  0.00    -0.025 C 
HETATM    8  C4  UNL     1      27.144   0.585  52.297  1.00  0.00    -0.004 C 
BRANCH   8   9
HETATM    9  C3  UNL     1      26.395  -0.645  52.373  1.00  0.00    -0.002 C 
HETATM   10  C2  UNL     1      26.995  -1.771  52.717  1.00  0.00    -0.001 C 
BRANCH  10  11
HETATM   11  C1  UNL     1      28.396  -2.067  53.074  1.00  0.00     0.191 C 
BRANCH  11  12
HETATM   12  O1  UNL     1      28.560  -3.457  53.275  1.00  0.00    -0.397 OA
HETATM   13  H1  UNL     1      27.989  -3.745  54.047  1.00  0.00     0.209 HD
ENDBRANCH  11  12
ENDBRANCH  10  11
ENDBRANCH   8   9
ENDBRANCH   6   7
ENDBRANCH   1   6
BRANCH   5  14
HETATM   14  C16 UNL     1      23.120   4.196  51.317  1.00  0.00     0.212 C 
BRANCH  14  15
HETATM   15  C17 UNL     1      22.024   4.908  50.567  1.00  0.00     0.094 A 
HETATM   16  N3  UNL     1      21.163   4.447  49.634  1.00  0.00    -0.256 NA
HETATM   17  C18 UNL     1      20.329   5.407  49.205  1.00  0.00     0.124 A 
HETATM   18  C19 UNL     1      20.264   6.750  49.601  1.00  0.00     0.071 A 
HETATM   19  S1  UNL     1      21.680   6.665  50.852  1.00  0.00    -0.084 SA
ENDBRANCH  14  15
ENDBRANCH   5  14
BRANCH   3  20
HETATM   20  C10 UNL     1      27.044   5.616  48.696  1.00  0.00    -0.010 A 
HETATM   21  C11 UNL     1      26.528   6.800  48.215  1.00  0.00     0.013 A 
HETATM   22  C12 UNL     1      27.416   7.600  47.517  1.00  0.00     0.001 A 
HETATM   23  C13 UNL     1      28.741   7.321  47.266  1.00  0.00     0.000 A 
HETATM   24  C14 UNL     1      29.163   6.107  47.792  1.00  0.00     0.001 A 
HETATM   25  C15 UNL     1      28.362   5.241  48.499  1.00  0.00     0.013 A 
ENDBRANCH   3  20
TORSDOF 8
ENDMDL
MODEL 9
REMARK VINA RESULT:      -7.3      3.186      7.197
REMARK  8 active torsions:
REMARK  status: ('A' for Active; 'I' for Inactive)
REMARK    1  A    between atoms: O1_1  and  C1_2 
REMARK    2  A    between atoms: C1_2  and  C2_3 
REMARK    3  A    between atoms: C3_4  and  C4_5 
REMARK    4  A    between atoms: C5_6  and  C6_7 
REMARK    5  A    between atoms: C6_7  and  C7_8 
REMARK    6  A    between atoms: C9_10  and  C10_11 
REMARK    7  A    between atoms: N2_18  and  C16_19 
REMARK    8  A    between atoms: C16_19  and  C17_20 
ROOT
HETATM    1  C7  UNL     1      25.066   2.920  51.055  1.00  0.00     0.114 C 
HETATM    2  C8  UNL     1      26.500   2.548  51.244  1.00  0.00     0.089 C 
HETATM    3  C9  UNL     1      26.364   1.270  52.017  1.00  0.00     0.066 C 
HETATM    4  N1  UNL     1      25.136   0.885  52.035  1.00  0.00    -0.180 NA
HETATM    5  N2  UNL     1      24.287   1.729  51.353  1.00  0.00    -0.294 N 
ENDROOT
BRANCH   1   6
HETATM    6  C6  UNL     1      24.774   3.440  49.665  1.00  0.00     0.054 C 
BRANCH   6   7
HETATM    7  C5  UNL     1      25.694   4.526  49.272  1.00  0.00    -0.025 C 
HETATM    8  C4  UNL     1      25.421   5.769  48.914  1.00  0.00    -0.004 C 
BRANCH   8   9
HETATM    9  C3  UNL     1      24.072   6.275  48.854  1.00  0.00    -0.002 C 
HETATM   10  C2  UNL     1      23.633   7.110  49.780  1.00  0.00    -0.001 C 
BRANCH  10  11
HETATM   11  C1  UNL     1      24.286   7.690  50.969  1.00  0.00     0.191 C 
BRANCH  11  12
HETATM   12  O1  UNL     1      24.318   6.739  52.015  1.00  0.00    -0.397 OA
HETATM   13  H1  UNL     1      23.526   6.883  52.612  1.00  0.00     0.209 HD
ENDBRANCH  11  12
ENDBRANCH  10  11
ENDBRANCH   8   9
ENDBRANCH   6   7
ENDBRANCH   1   6
BRANCH   5  14
HETATM   14  C16 UNL     1      22.919   1.479  51.011  1.00  0.00     0.212 C 
BRANCH  14  15
HETATM   15  C17 UNL     1      22.167   0.780  52.113  1.00  0.00     0.094 A 
HETATM   16  N3  UNL     1      22.420  -0.391  52.736  1.00  0.00    -0.256 NA
HETATM   17  C18 UNL     1      21.500  -0.667  53.675  1.00  0.00     0.124 A 
HETATM   18  C19 UNL     1      20.379   0.086  54.049  1.00  0.00     0.071 A 
HETATM   19  S1  UNL     1      20.661   1.499  52.823  1.00  0.00    -0.084 SA
ENDBRANCH  14  15
ENDBRANCH   5  14
BRANCH   3  20
HETATM   20  C10 UNL     1      27.466   0.549  52.668  1.00  0.00    -0.010 A 
HETATM   21  C11 UNL     1      28.468   1.297  53.249  1.00  0.00     0.013 A 
HETATM   22  C12 UNL     1      29.484   0.574  53.850  1.00  0.00     0.001 A 
HETATM   23  C13 UNL     1      29.578  -0.799  53.915  1.00  0.00     0.000 A 
HETATM   24  C14 UNL     1      28.523  -1.460  53.302  1.00  0.00     0.001 A 
HETATM   25  C15 UNL     1      27.467  -0.835  52.678  1.00  0.00     0.013 A 
ENDBRANCH   3  20
TORSDOF 8
ENDMDL
