MODEL 1
REMARK VINA RESULT:      -7.3      0.000      0.000
REMARK  4 active torsions:
REMARK  status: ('A' for Active; 'I' for Inactive)
REMARK    1  A    between atoms: C2_2  and  O1_3 
REMARK    2  A    between atoms: O1_3  and  N1_4 
REMARK    3  A    between atoms: C8_14  and  N6_15 
REMARK    4  A    between atoms: N6_15  and  C9_16 
ROOT
HETATM    1  N1  UNL     1      22.770   3.223  51.725  1.00  0.00    -0.127 N 
HETATM    2  N2  UNL     1      24.047   3.620  51.247  1.00  0.00    -0.042 NA
HETATM    3  N3  UNL     1      24.261   3.059  50.092  1.00  0.00    -0.131 NA
HETATM    4  C3  UNL     1      23.126   2.274  49.772  1.00  0.00     0.105 A 
HETATM    5  C4  UNL     1      22.103   1.643  49.216  1.00  0.00     0.035 A 
HETATM    6  C5  UNL     1      21.415   0.833  50.211  1.00  0.00     0.033 A 
HETATM    7  C6  UNL     1      22.006   0.956  51.388  1.00  0.00     0.082 A 
HETATM    8  N4  UNL     1      21.802   0.415  52.713  1.00  0.00    -0.243 NA
HETATM    9  C7  UNL     1      22.876   0.354  53.491  1.00  0.00     0.235 C 
HETATM   10  N5  UNL     1      24.075   0.841  52.979  1.00  0.00    -0.225 NA
HETATM   11  C8  UNL     1      24.322   1.402  51.848  1.00  0.00     0.151 C 
HETATM   12  C15 UNL     1      23.122   1.841  51.153  1.00  0.00     0.230 A 
ENDROOT
BRANCH  11  13
HETATM   13  N6  UNL     1      25.664   1.771  51.566  1.00  0.00    -0.342 N 
HETATM   14  H9  UNL     1      25.792   2.472  50.811  1.00  0.00     0.167 HD
BRANCH  13  15
HETATM   15  C9  UNL     1      26.777   1.208  52.254  1.00  0.00     0.035 A 
HETATM   16  C10 UNL     1      27.471   2.260  52.867  1.00  0.00     0.029 A 
HETATM   17  C11 UNL     1      28.623   2.025  53.627  1.00  0.00     0.004 A 
HETATM   18  C12 UNL     1      29.086   0.732  53.779  1.00  0.00     0.024 A 
HETATM   19  C13 UNL     1      28.394  -0.281  53.173  1.00  0.00     0.036 A 
HETATM   20 CL1  UNL     1      28.867  -1.971  53.280  1.00  0.00    -0.084 Cl
HETATM   21  C14 UNL     1      27.262  -0.068  52.423  1.00  0.00     0.053 A 
ENDBRANCH  13  15
ENDBRANCH  11  13
BRANCH   1  22
HETATM   22  O1  UNL     1      21.962   4.096  52.359  1.00  0.00    -0.259 OA
BRANCH  22  23
HETATM   23  C2  UNL     1      21.496   5.104  51.517  1.00  0.00     0.199 C 
HETATM   24  C1  UNL     1      20.268   4.510  50.825  1.00  0.00     0.036 C 
ENDBRANCH  22  23
ENDBRANCH   1  22
TORSDOF 4
ENDMDL
MODEL 2
REMARK VINA RESULT:      -7.1      1.854      3.155
REMARK  4 active torsions:
REMARK  status: ('A' for Active; 'I' for Inactive)
REMARK    1  A    between atoms: C2_2  and  O1_3 
REMARK    2  A    between atoms: O1_3  and  N1_4 
REMARK    3  A    between atoms: C8_14  and  N6_15 
REMARK    4  A    between atoms: N6_15  and  C9_16 
ROOT
HETATM    1  N1  UNL     1      23.383   2.386  50.436  1.00  0.00    -0.127 N 
HETATM    2  N2  UNL     1      23.387   1.426  51.484  1.00  0.00    -0.042 NA
HETATM    3  N3  UNL     1      23.325   2.046  52.627  1.00  0.00    -0.131 NA
HETATM    4  C3  UNL     1      23.276   3.437  52.366  1.00  0.00     0.105 A 
HETATM    5  C4  UNL     1      23.040   4.740  52.327  1.00  0.00     0.035 A 
HETATM    6  C5  UNL     1      23.856   5.366  51.297  1.00  0.00     0.033 A 
HETATM    7  C6  UNL     1      24.602   4.457  50.692  1.00  0.00     0.082 A 
HETATM    8  N4  UNL     1      25.586   4.460  49.632  1.00  0.00    -0.243 NA
HETATM    9  C7  UNL     1      26.477   3.476  49.659  1.00  0.00     0.235 C 
HETATM   10  N5  UNL     1      26.363   2.527  50.670  1.00  0.00    -0.225 NA
HETATM   11  C8  UNL     1      25.479   2.410  51.598  1.00  0.00     0.151 C 
HETATM   12  C15 UNL     1      24.291   3.215  51.359  1.00  0.00     0.230 A 
ENDROOT
BRANCH  11  13
HETATM   13  N6  UNL     1      25.630   1.353  52.533  1.00  0.00    -0.342 N 
HETATM   14  H9  UNL     1      24.749   0.962  52.921  1.00  0.00     0.167 HD
BRANCH  13  15
HETATM   15  C9  UNL     1      26.903   0.862  52.941  1.00  0.00     0.035 A 
HETATM   16  C10 UNL     1      27.626   1.943  53.464  1.00  0.00     0.029 A 
HETATM   17  C11 UNL     1      28.926   1.778  53.955  1.00  0.00     0.004 A 
HETATM   18  C12 UNL     1      29.511   0.527  53.926  1.00  0.00     0.024 A 
HETATM   19  C13 UNL     1      28.789  -0.516  53.412  1.00  0.00     0.036 A 
HETATM   20 CL1  UNL     1      29.406  -2.159  53.312  1.00  0.00    -0.084 Cl
HETATM   21  C14 UNL     1      27.512  -0.371  52.925  1.00  0.00     0.053 A 
ENDBRANCH  13  15
ENDBRANCH  11  13
BRANCH   1  22
HETATM   22  O1  UNL     1      22.698   2.169  49.296  1.00  0.00    -0.259 OA
BRANCH  22  23
HETATM   23  C2  UNL     1      21.737   3.147  49.054  1.00  0.00     0.199 C 
HETATM   24  C1  UNL     1      22.265   3.940  47.856  1.00  0.00     0.036 C 
ENDBRANCH  22  23
ENDBRANCH   1  22
TORSDOF 4
ENDMDL
MODEL 3
REMARK VINA RESULT:      -6.9      2.657      4.299
REMARK  4 active torsions:
REMARK  status: ('A' for Active; 'I' for Inactive)
REMARK    1  A    between atoms: C2_2  and  O1_3 
REMARK    2  A    between atoms: O1_3  and  N1_4 
REMARK    3  A    between atoms: C8_14  and  N6_15 
REMARK    4  A    between atoms: N6_15  and  C9_16 
ROOT
HETATM    1  N1  UNL     1      23.462   4.589  49.700  1.00  0.00    -0.127 N 
HETATM    2  N2  UNL     1      22.820   4.212  50.910  1.00  0.00    -0.042 NA
HETATM    3  N3  UNL     1      23.048   5.121  51.814  1.00  0.00    -0.131 NA
HETATM    4  C3  UNL     1      23.849   6.130  51.223  1.00  0.00     0.105 A 
HETATM    5  C4  UNL     1      24.430   7.247  50.813  1.00  0.00     0.035 A 
HETATM    6  C5  UNL     1      25.534   6.935  49.916  1.00  0.00     0.033 A 
HETATM    7  C6  UNL     1      25.644   5.626  49.765  1.00  0.00     0.082 A 
HETATM    8  N4  UNL     1      26.517   4.735  49.034  1.00  0.00    -0.243 NA
HETATM    9  C7  UNL     1      26.651   3.511  49.531  1.00  0.00     0.235 C 
HETATM   10  N5  UNL     1      25.923   3.192  50.672  1.00  0.00    -0.225 NA
HETATM   11  C8  UNL     1      25.073   3.896  51.333  1.00  0.00     0.151 C 
HETATM   12  C15 UNL     1      24.611   5.067  50.603  1.00  0.00     0.230 A 
ENDROOT
BRANCH  11  13
HETATM   13  N6  UNL     1      24.499   3.327  52.501  1.00  0.00    -0.342 N 
HETATM   14  H9  UNL     1      23.706   3.851  52.917  1.00  0.00     0.167 HD
BRANCH  13  15
HETATM   15  C9  UNL     1      24.984   2.123  53.087  1.00  0.00     0.035 A 
HETATM   16  C10 UNL     1      23.994   1.145  52.925  1.00  0.00     0.029 A 
HETATM   17  C11 UNL     1      24.177  -0.160  53.399  1.00  0.00     0.004 A 
HETATM   18  C12 UNL     1      25.356  -0.492  54.039  1.00  0.00     0.024 A 
HETATM   19  C13 UNL     1      26.310   0.477  54.187  1.00  0.00     0.036 A 
HETATM   20 CL1  UNL     1      27.854   0.196  54.980  1.00  0.00    -0.084 Cl
HETATM   21  C14 UNL     1      26.147   1.762  53.728  1.00  0.00     0.053 A 
ENDBRANCH  13  15
ENDBRANCH  11  13
BRANCH   1  22
HETATM   22  O1  UNL     1      22.870   4.389  48.506  1.00  0.00    -0.259 OA
BRANCH  22  23
HETATM   23  C2  UNL     1      21.886   3.404  48.555  1.00  0.00     0.199 C 
HETATM   24  C1  UNL     1      22.457   2.229  47.759  1.00  0.00     0.036 C 
ENDBRANCH  22  23
ENDBRANCH   1  22
TORSDOF 4
ENDMDL
MODEL 4
REMARK VINA RESULT:      -6.7      2.988      4.866
REMARK  4 active torsions:
REMARK  status: ('A' for Active; 'I' for Inactive)
REMARK    1  A    between atoms: C2_2  and  O1_3 
REMARK    2  A    between atoms: O1_3  and  N1_4 
REMARK    3  A    between atoms: C8_14  and  N6_15 
REMARK    4  A    between atoms: N6_15  and  C9_16 
ROOT
HETATM    1  N1  UNL     1      24.034   3.890  52.011  1.00  0.00    -0.127 N 
HETATM    2  N2  UNL     1      24.330   2.989  53.069  1.00  0.00    -0.042 NA
HETATM    3  N3  UNL     1      25.439   2.364  52.796  1.00  0.00    -0.131 NA
HETATM    4  C3  UNL     1      25.910   2.838  51.547  1.00  0.00     0.105 A 
HETATM    5  C4  UNL     1      26.601   3.274  50.504  1.00  0.00     0.035 A 
HETATM    6  C5  UNL     1      25.708   3.524  49.382  1.00  0.00     0.033 A 
HETATM    7  C6  UNL     1      24.460   3.245  49.721  1.00  0.00     0.082 A 
HETATM    8  N4  UNL     1      23.173   3.281  49.064  1.00  0.00    -0.243 NA
HETATM    9  C7  UNL     1      22.251   2.452  49.538  1.00  0.00     0.235 C 
HETATM   10  N5  UNL     1      22.592   1.661  50.631  1.00  0.00    -0.225 NA
HETATM   11  C8  UNL     1      23.681   1.624  51.316  1.00  0.00     0.151 C 
HETATM   12  C15 UNL     1      24.541   2.774  51.083  1.00  0.00     0.230 A 
ENDROOT
BRANCH  11  13
HETATM   13  N6  UNL     1      23.773   0.678  52.371  1.00  0.00    -0.342 N 
HETATM   14  H9  UNL     1      24.732   0.470  52.710  1.00  0.00     0.167 HD
BRANCH  13  15
HETATM   15  C9  UNL     1      22.632   0.032  52.926  1.00  0.00     0.035 A 
HETATM   16  C10 UNL     1      23.069  -0.741  54.010  1.00  0.00     0.029 A 
HETATM   17  C11 UNL     1      22.172  -1.500  54.770  1.00  0.00     0.004 A 
HETATM   18  C12 UNL     1      20.828  -1.488  54.449  1.00  0.00     0.024 A 
HETATM   19  C13 UNL     1      20.421  -0.727  53.387  1.00  0.00     0.036 A 
HETATM   20 CL1  UNL     1      18.746  -0.618  52.866  1.00  0.00    -0.084 Cl
HETATM   21  C14 UNL     1      21.288   0.024  52.631  1.00  0.00     0.053 A 
ENDBRANCH  13  15
ENDBRANCH  11  13
BRANCH   1  22
HETATM   22  O1  UNL     1      23.526   5.113  52.260  1.00  0.00    -0.259 OA
BRANCH  22  23
HETATM   23  C2  UNL     1      22.157   5.186  52.011  1.00  0.00     0.199 C 
HETATM   24  C1  UNL     1      22.001   6.285  50.958  1.00  0.00     0.036 C 
ENDBRANCH  22  23
ENDBRANCH   1  22
TORSDOF 4
ENDMDL
MODEL 5
REMARK VINA RESULT:      -6.6      1.670      2.028
REMARK  4 active torsions:
REMARK  status: ('A' for Active; 'I' for Inactive)
REMARK    1  A    between atoms: C2_2  and  O1_3 
REMARK    2  A    between atoms: O1_3  and  N1_4 
REMARK    3  A    between atoms: C8_14  and  N6_15 
REMARK    4  A    between atoms: N6_15  and  C9_16 
ROOT
HETATM    1  N1  UNL     1      22.570   4.656  51.287  1.00  0.00    -0.127 N 
HETATM    2  N2  UNL     1      23.926   4.954  51.589  1.00  0.00    -0.042 NA
HETATM    3  N3  UNL     1      24.690   4.431  50.673  1.00  0.00    -0.131 NA
HETATM    4  C3  UNL     1      23.857   3.772  49.736  1.00  0.00     0.105 A 
HETATM    5  C4  UNL     1      23.253   3.267  48.671  1.00  0.00     0.035 A 
HETATM    6  C5  UNL     1      22.099   2.478  49.078  1.00  0.00     0.033 A 
HETATM    7  C6  UNL     1      21.981   2.489  50.395  1.00  0.00     0.082 A 
HETATM    8  N4  UNL     1      21.076   1.907  51.361  1.00  0.00    -0.243 NA
HETATM    9  C7  UNL     1      21.568   1.708  52.578  1.00  0.00     0.235 C 
HETATM   10  N5  UNL     1      22.880   2.105  52.819  1.00  0.00    -0.225 NA
HETATM   11  C8  UNL     1      23.720   2.694  52.042  1.00  0.00     0.151 C 
HETATM   12  C15 UNL     1      23.097   3.276  50.863  1.00  0.00     0.230 A 
ENDROOT
BRANCH  11  13
HETATM   13  N6  UNL     1      25.024   2.949  52.542  1.00  0.00    -0.342 N 
HETATM   14  H9  UNL     1      25.274   3.949  52.668  1.00  0.00     0.167 HD
BRANCH  13  15
HETATM   15  C9  UNL     1      25.951   1.909  52.837  1.00  0.00     0.035 A 
HETATM   16  C10 UNL     1      25.806   0.921  51.854  1.00  0.00     0.029 A 
HETATM   17  C11 UNL     1      26.589  -0.239  51.869  1.00  0.00     0.004 A 
HETATM   18  C12 UNL     1      27.525  -0.416  52.871  1.00  0.00     0.024 A 
HETATM   19  C13 UNL     1      27.651   0.560  53.821  1.00  0.00     0.036 A 
HETATM   20 CL1  UNL     1      28.797   0.467  55.151  1.00  0.00    -0.084 Cl
HETATM   21  C14 UNL     1      26.891   1.705  53.821  1.00  0.00     0.053 A 
ENDBRANCH  13  15
ENDBRANCH  11  13
BRANCH   1  22
HETATM   22  O1  UNL     1      21.598   5.569  51.478  1.00  0.00    -0.259 OA
BRANCH  22  23
HETATM   23  C2  UNL     1      21.841   6.761  50.797  1.00  0.00     0.199 C 
HETATM   24  C1  UNL     1      21.353   6.512  49.368  1.00  0.00     0.036 C 
ENDBRANCH  22  23
ENDBRANCH   1  22
TORSDOF 4
ENDMDL
MODEL 6
REMARK VINA RESULT:      -6.5      8.783     10.966
REMARK  4 active torsions:
REMARK  status: ('A' for Active; 'I' for Inactive)
REMARK    1  A    between atoms: C2_2  and  O1_3 
REMARK    2  A    between atoms: O1_3  and  N1_4 
REMARK    3  A    between atoms: C8_14  and  N6_15 
REMARK    4  A    between atoms: N6_15  and  C9_16 
ROOT
HETATM    1  N1  UNL     1      33.569   5.840  45.976  1.00  0.00    -0.127 N 
HETATM    2  N2  UNL     1      32.884   6.992  46.447  1.00  0.00    -0.042 NA
HETATM    3  N3  UNL     1      33.195   7.191  47.695  1.00  0.00    -0.131 NA
HETATM    4  C3  UNL     1      34.099   6.172  48.086  1.00  0.00     0.105 A 
HETATM    5  C4  UNL     1      35.076   5.428  48.583  1.00  0.00     0.035 A 
HETATM    6  C5  UNL     1      34.908   4.042  48.172  1.00  0.00     0.033 A 
HETATM    7  C6  UNL     1      33.828   3.918  47.418  1.00  0.00     0.082 A 
HETATM    8  N4  UNL     1      33.155   2.833  46.740  1.00  0.00    -0.243 NA
HETATM    9  C7  UNL     1      31.854   2.992  46.531  1.00  0.00     0.235 C 
HETATM   10  N5  UNL     1      31.272   4.185  46.946  1.00  0.00    -0.225 NA
HETATM   11  C8  UNL     1      31.811   5.223  47.483  1.00  0.00     0.151 C 
HETATM   12  C15 UNL     1      33.260   5.244  47.359  1.00  0.00     0.230 A 
ENDROOT
BRANCH  11  13
HETATM   13  N6  UNL     1      30.962   6.302  47.848  1.00  0.00    -0.342 N 
HETATM   14  H9  UNL     1      31.426   7.223  47.965  1.00  0.00     0.167 HD
BRANCH  13  15
HETATM   15  C9  UNL     1      29.564   6.141  48.063  1.00  0.00     0.035 A 
HETATM   16  C10 UNL     1      28.936   7.329  47.667  1.00  0.00     0.029 A 
HETATM   17  C11 UNL     1      27.547   7.481  47.755  1.00  0.00     0.004 A 
HETATM   18  C12 UNL     1      26.778   6.441  48.242  1.00  0.00     0.024 A 
HETATM   19  C13 UNL     1      27.410   5.290  48.624  1.00  0.00     0.036 A 
HETATM   20 CL1  UNL     1      26.560   3.889  49.261  1.00  0.00    -0.084 Cl
HETATM   21  C14 UNL     1      28.772   5.124  48.544  1.00  0.00     0.053 A 
ENDBRANCH  13  15
ENDBRANCH  11  13
BRANCH   1  22
HETATM   22  O1  UNL     1      34.092   5.799  44.735  1.00  0.00    -0.259 OA
BRANCH  22  23
HETATM   23  C2  UNL     1      33.216   5.248  43.802  1.00  0.00     0.199 C 
HETATM   24  C1  UNL     1      32.955   6.366  42.790  1.00  0.00     0.036 C 
ENDBRANCH  22  23
ENDBRANCH   1  22
TORSDOF 4
ENDMDL
MODEL 7
REMARK VINA RESULT:      -6.4      2.020      3.089
REMARK  4 active torsions:
REMARK  status: ('A' for Active; 'I' for Inactive)
REMARK    1  A    between atoms: C2_2  and  O1_3 
REMARK    2  A    between atoms: O1_3  and  N1_4 
REMARK    3  A    between atoms: C8_14  and  N6_15 
REMARK    4  A    between atoms: N6_15  and  C9_16 
ROOT
HETATM    1  N1  UNL     1      22.003   3.434  49.712  1.00  0.00    -0.127 N 
HETATM    2  N2  UNL     1      22.704   2.248  49.366  1.00  0.00    -0.042 NA
HETATM    3  N3  UNL     1      22.258   1.264  50.092  1.00  0.00    -0.131 NA
HETATM    4  C3  UNL     1      21.244   1.773  50.940  1.00  0.00     0.105 A 
HETATM    5  C4  UNL     1      20.164   2.011  51.670  1.00  0.00     0.035 A 
HETATM    6  C5  UNL     1      20.284   3.301  52.333  1.00  0.00     0.033 A 
HETATM    7  C6  UNL     1      21.436   3.870  52.020  1.00  0.00     0.082 A 
HETATM    8  N4  UNL     1      22.109   5.105  52.357  1.00  0.00    -0.243 NA
HETATM    9  C7  UNL     1      23.433   5.089  52.277  1.00  0.00     0.235 C 
HETATM   10  N5  UNL     1      24.042   3.913  51.849  1.00  0.00    -0.225 NA
HETATM   11  C8  UNL     1      23.516   2.805  51.461  1.00  0.00     0.151 C 
HETATM   12  C15 UNL     1      22.098   2.921  51.158  1.00  0.00     0.230 A 
ENDROOT
BRANCH  11  13
HETATM   13  N6  UNL     1      24.387   1.740  51.111  1.00  0.00    -0.342 N 
HETATM   14  H9  UNL     1      24.408   1.483  50.105  1.00  0.00     0.167 HD
BRANCH  13  15
HETATM   15  C9  UNL     1      25.175   1.044  52.071  1.00  0.00     0.035 A 
HETATM   16  C10 UNL     1      24.297   0.388  52.944  1.00  0.00     0.029 A 
HETATM   17  C11 UNL     1      24.773  -0.391  54.005  1.00  0.00     0.004 A 
HETATM   18  C12 UNL     1      26.135  -0.517  54.198  1.00  0.00     0.024 A 
HETATM   19  C13 UNL     1      26.977   0.131  53.336  1.00  0.00     0.036 A 
HETATM   20 CL1  UNL     1      28.728   0.059  53.463  1.00  0.00    -0.084 Cl
HETATM   21  C14 UNL     1      26.526   0.899  52.289  1.00  0.00     0.053 A 
ENDBRANCH  13  15
ENDBRANCH  11  13
BRANCH   1  22
HETATM   22  O1  UNL     1      21.634   4.324  48.770  1.00  0.00    -0.259 OA
BRANCH  22  23
HETATM   23  C2  UNL     1      22.660   4.612  47.873  1.00  0.00     0.199 C 
HETATM   24  C1  UNL     1      23.504   5.687  48.563  1.00  0.00     0.036 C 
ENDBRANCH  22  23
ENDBRANCH   1  22
TORSDOF 4
ENDMDL
MODEL 8
REMARK VINA RESULT:      -6.4      2.122      3.040
REMARK  4 active torsions:
REMARK  status: ('A' for Active; 'I' for Inactive)
REMARK    1  A    between atoms: C2_2  and  O1_3 
REMARK    2  A    between atoms: O1_3  and  N1_4 
REMARK    3  A    between atoms: C8_14  and  N6_15 
REMARK    4  A    between atoms: N6_15  and  C9_16 
ROOT
HETATM    1  N1  UNL     1      21.907   4.352  50.948  1.00  0.00    -0.127 N 
HETATM    2  N2  UNL     1      23.025   4.503  51.811  1.00  0.00    -0.042 NA
HETATM    3  N3  UNL     1      24.054   4.883  51.110  1.00  0.00    -0.131 NA
HETATM    4  C3  UNL     1      23.643   4.995  49.759  1.00  0.00     0.105 A 
HETATM    5  C4  UNL     1      23.416   5.332  48.499  1.00  0.00     0.035 A 
HETATM    6  C5  UNL     1      22.531   4.360  47.873  1.00  0.00     0.033 A 
HETATM    7  C6  UNL     1      22.205   3.416  48.740  1.00  0.00     0.082 A 
HETATM    8  N4  UNL     1      21.395   2.218  48.715  1.00  0.00    -0.243 NA
HETATM    9  C7  UNL     1      21.722   1.273  49.588  1.00  0.00     0.235 C 
HETATM   10  N5  UNL     1      22.777   1.531  50.458  1.00  0.00    -0.225 NA
HETATM   11  C8  UNL     1      23.494   2.591  50.594  1.00  0.00     0.151 C 
HETATM   12  C15 UNL     1      22.914   3.760  49.950  1.00  0.00     0.230 A 
ENDROOT
BRANCH  11  13
HETATM   13  N6  UNL     1      24.546   2.566  51.547  1.00  0.00    -0.342 N 
HETATM   14  H9  UNL     1      25.067   3.456  51.671  1.00  0.00     0.167 HD
BRANCH  13  15
HETATM   15  C9  UNL     1      24.891   1.396  52.282  1.00  0.00     0.035 A 
HETATM   16  C10 UNL     1      26.115   0.930  51.785  1.00  0.00     0.029 A 
HETATM   17  C11 UNL     1      26.725  -0.215  52.311  1.00  0.00     0.004 A 
HETATM   18  C12 UNL     1      26.109  -0.901  53.340  1.00  0.00     0.024 A 
HETATM   19  C13 UNL     1      24.914  -0.431  53.812  1.00  0.00     0.036 A 
HETATM   20 CL1  UNL     1      24.020  -1.202  55.114  1.00  0.00    -0.084 Cl
HETATM   21  C14 UNL     1      24.302   0.692  53.307  1.00  0.00     0.053 A 
ENDBRANCH  13  15
ENDBRANCH  11  13
BRANCH   1  22
HETATM   22  O1  UNL     1      20.673   4.733  51.334  1.00  0.00    -0.259 OA
BRANCH  22  23
HETATM   23  C2  UNL     1      19.887   3.661  51.753  1.00  0.00     0.199 C 
HETATM   24  C1  UNL     1      18.719   3.612  50.766  1.00  0.00     0.036 C 
ENDBRANCH  22  23
ENDBRANCH   1  22
TORSDOF 4
ENDMDL
MODEL 9
REMARK VINA RESULT:      -6.3      8.860     11.027
REMARK  4 active torsions:
REMARK  status: ('A' for Active; 'I' for Inactive)
REMARK    1  A    between atoms: C2_2  and  O1_3 
REMARK    2  A    between atoms: O1_3  and  N1_4 
REMARK    3  A    between atoms: C8_14  and  N6_15 
REMARK    4  A    between atoms: N6_15  and  C9_16 
ROOT
HETATM    1  N1  UNL     1      33.607   6.492  47.742  1.00  0.00    -0.127 N 
HETATM    2  N2  UNL     1      32.856   6.634  48.940  1.00  0.00    -0.042 NA
HETATM    3  N3  UNL     1      32.189   5.537  49.156  1.00  0.00    -0.131 NA
HETATM    4  C3  UNL     1      32.483   4.635  48.105  1.00  0.00     0.105 A 
HETATM    5  C4  UNL     1      32.766   3.601  47.326  1.00  0.00     0.035 A 
HETATM    6  C5  UNL     1      32.869   4.032  45.940  1.00  0.00     0.033 A 
HETATM    7  C6  UNL     1      32.650   5.333  45.850  1.00  0.00     0.082 A 
HETATM    8  N4  UNL     1      32.608   6.307  44.781  1.00  0.00    -0.243 NA
HETATM    9  C7  UNL     1      31.861   7.382  44.999  1.00  0.00     0.235 C 
HETATM   10  N5  UNL     1      31.224   7.489  46.232  1.00  0.00    -0.225 NA
HETATM   11  C8  UNL     1      31.271   6.710  47.255  1.00  0.00     0.151 C 
HETATM   12  C15 UNL     1      32.369   5.759  47.200  1.00  0.00     0.230 A 
ENDROOT
BRANCH  11  13
HETATM   13  N6  UNL     1      30.477   7.045  48.384  1.00  0.00    -0.342 N 
HETATM   14  H9  UNL     1      30.991   7.428  49.201  1.00  0.00     0.167 HD
BRANCH  13  15
HETATM   15  C9  UNL     1      29.066   6.855  48.416  1.00  0.00     0.035 A 
HETATM   16  C10 UNL     1      28.827   5.478  48.513  1.00  0.00     0.029 A 
HETATM   17  C11 UNL     1      27.524   4.969  48.568  1.00  0.00     0.004 A 
HETATM   18  C12 UNL     1      26.451   5.839  48.527  1.00  0.00     0.024 A 
HETATM   19  C13 UNL     1      26.705   7.180  48.433  1.00  0.00     0.036 A 
HETATM   20 CL1  UNL     1      25.441   8.399  48.370  1.00  0.00    -0.084 Cl
HETATM   21  C14 UNL     1      27.978   7.696  48.378  1.00  0.00     0.053 A 
ENDBRANCH  13  15
ENDBRANCH  11  13
BRANCH   1  22
HETATM   22  O1  UNL     1      34.857   6.984  47.642  1.00  0.00    -0.259 OA
BRANCH  22  23
HETATM   23  C2  UNL     1      34.968   8.274  48.156  1.00  0.00     0.199 C 
HETATM   24  C1  UNL     1      34.478   9.194  47.035  1.00  0.00     0.036 C 
ENDBRANCH  22  23
ENDBRANCH   1  22
TORSDOF 4
ENDMDL
