MODEL 1
REMARK VINA RESULT:      -8.0      0.000      0.000
REMARK  3 active torsions:
REMARK  status: ('A' for Active; 'I' for Inactive)
REMARK    1  A    between atoms: O1_2  and  C2_3 
REMARK    2  A    between atoms: C6_8  and  N2_9 
REMARK    3  A    between atoms: N2_9  and  C7_10 
ROOT
HETATM    1  C2  UNL     1      19.798   0.745  51.269  1.00  0.00     0.046 C 
HETATM    2  C3  UNL     1      20.973   0.473  51.847  1.00  0.00     0.044 C 
HETATM    3  C4  UNL     1      22.266   1.106  51.638  1.00  0.00     0.008 C 
HETATM    4  C5  UNL     1      22.902   1.101  52.786  1.00  0.00     0.097 C 
HETATM    5  N1  UNL     1      23.839   1.914  53.040  1.00  0.00    -0.229 NA
HETATM    6  C6  UNL     1      24.785   2.350  52.087  1.00  0.00     0.127 C 
HETATM    7  C13 UNL     1      24.290   2.230  50.843  1.00  0.00     0.060 C 
HETATM    8  C14 UNL     1      22.977   1.726  50.461  1.00  0.00     0.183 C 
HETATM    9  O2  UNL     1      22.120   2.630  49.852  1.00  0.00    -0.377 OA
HETATM   10  C15 UNL     1      21.283   1.832  49.040  1.00  0.00     0.169 C 
HETATM   11  C16 UNL     1      19.853   2.172  49.186  1.00  0.00     0.033 C 
HETATM   12  C17 UNL     1      19.104   1.585  50.310  1.00  0.00     0.066 C 
ENDROOT
BRANCH   6  13
HETATM   13  N2  UNL     1      26.109   2.861  52.166  1.00  0.00    -0.341 N 
HETATM   14  H5  UNL     1      26.371   3.844  51.940  1.00  0.00     0.167 HD
BRANCH  13  15
HETATM   15  C7  UNL     1      26.945   1.763  52.608  1.00  0.00     0.035 A 
HETATM   16  C8  UNL     1      28.070   2.191  53.322  1.00  0.00     0.032 A 
HETATM   17  C9  UNL     1      29.007   1.293  53.846  1.00  0.00     0.046 A 
HETATM   18  C10 UNL     1      28.777  -0.059  53.632  1.00  0.00     0.138 A 
HETATM   19  F1  UNL     1      29.707  -0.925  54.144  1.00  0.00    -0.204 F 
HETATM   20  C11 UNL     1      27.664  -0.479  52.930  1.00  0.00     0.074 A 
HETATM   21 CL1  UNL     1      27.398  -2.187  52.675  1.00  0.00    -0.081 Cl
HETATM   22  C12 UNL     1      26.757   0.408  52.423  1.00  0.00     0.056 A 
ENDBRANCH  13  15
ENDBRANCH   6  13
BRANCH   1  23
HETATM   23  O1  UNL     1      19.004  -0.231  51.927  1.00  0.00    -0.360 OA
HETATM   24  C1  UNL     1      19.453  -0.498  53.260  1.00  0.00     0.209 C 
ENDBRANCH   1  23
TORSDOF 3
ENDMDL
MODEL 2
REMARK VINA RESULT:      -8.0      1.429      2.640
REMARK  3 active torsions:
REMARK  status: ('A' for Active; 'I' for Inactive)
REMARK    1  A    between atoms: O1_2  and  C2_3 
REMARK    2  A    between atoms: C6_8  and  N2_9 
REMARK    3  A    between atoms: N2_9  and  C7_10 
ROOT
HETATM    1  C2  UNL     1      21.286   1.791  49.522  1.00  0.00     0.046 C 
HETATM    2  C3  UNL     1      22.409   2.476  49.761  1.00  0.00     0.044 C 
HETATM    3  C4  UNL     1      23.229   2.501  50.963  1.00  0.00     0.008 C 
HETATM    4  C5  UNL     1      24.479   2.644  50.589  1.00  0.00     0.097 C 
HETATM    5  N1  UNL     1      25.447   2.297  51.327  1.00  0.00    -0.229 NA
HETATM    6  C6  UNL     1      25.455   2.436  52.732  1.00  0.00     0.127 C 
HETATM    7  C13 UNL     1      24.200   2.478  53.210  1.00  0.00     0.060 C 
HETATM    8  C14 UNL     1      22.963   2.400  52.444  1.00  0.00     0.183 C 
HETATM    9  O2  UNL     1      22.159   1.294  52.676  1.00  0.00    -0.377 OA
HETATM   10  C15 UNL     1      20.851   1.739  52.379  1.00  0.00     0.169 C 
HETATM   11  C16 UNL     1      20.107   0.794  51.521  1.00  0.00     0.033 C 
HETATM   12  C17 UNL     1      20.318   0.855  50.064  1.00  0.00     0.066 C 
ENDROOT
BRANCH   6  13
HETATM   13  N2  UNL     1      26.480   2.549  53.711  1.00  0.00    -0.341 N 
HETATM   14  H5  UNL     1      26.573   3.351  54.371  1.00  0.00     0.167 HD
BRANCH  13  15
HETATM   15  C7  UNL     1      27.302   1.362  53.581  1.00  0.00     0.035 A 
HETATM   16  C8  UNL     1      28.641   1.590  53.915  1.00  0.00     0.032 A 
HETATM   17  C9  UNL     1      29.606   0.577  53.865  1.00  0.00     0.046 A 
HETATM   18  C10 UNL     1      29.180  -0.683  53.468  1.00  0.00     0.138 A 
HETATM   19  F1  UNL     1      30.137  -1.663  53.416  1.00  0.00    -0.204 F 
HETATM   20  C11 UNL     1      27.857  -0.906  53.141  1.00  0.00     0.074 A 
HETATM   21 CL1  UNL     1      27.348  -2.502  52.645  1.00  0.00    -0.081 Cl
HETATM   22  C12 UNL     1      26.926   0.092  53.194  1.00  0.00     0.056 A 
ENDBRANCH  13  15
ENDBRANCH   6  13
BRANCH   1  23
HETATM   23  O1  UNL     1      21.042   2.234  48.196  1.00  0.00    -0.360 OA
HETATM   24  C1  UNL     1      22.247   2.560  47.494  1.00  0.00     0.209 C 
ENDBRANCH   1  23
TORSDOF 3
ENDMDL
MODEL 3
REMARK VINA RESULT:      -7.9      4.239      7.807
REMARK  3 active torsions:
REMARK  status: ('A' for Active; 'I' for Inactive)
REMARK    1  A    between atoms: O1_2  and  C2_3 
REMARK    2  A    between atoms: C6_8  and  N2_9 
REMARK    3  A    between atoms: N2_9  and  C7_10 
ROOT
HETATM    1  C2  UNL     1      26.749   1.692  52.223  1.00  0.00     0.046 C 
HETATM    2  C3  UNL     1      25.437   1.664  51.962  1.00  0.00     0.044 C 
HETATM    3  C4  UNL     1      24.393   0.875  52.597  1.00  0.00     0.008 C 
HETATM    4  C5  UNL     1      23.298   1.599  52.607  1.00  0.00     0.097 C 
HETATM    5  N1  UNL     1      22.357   1.384  53.426  1.00  0.00    -0.229 NA
HETATM    6  C6  UNL     1      21.963   0.098  53.855  1.00  0.00     0.127 C 
HETATM    7  C13 UNL     1      22.975  -0.776  53.718  1.00  0.00     0.060 C 
HETATM    8  C14 UNL     1      24.311  -0.502  53.206  1.00  0.00     0.183 C 
HETATM    9  O2  UNL     1      25.361  -0.654  54.100  1.00  0.00    -0.377 OA
HETATM   10  C15 UNL     1      26.471  -0.980  53.289  1.00  0.00     0.169 C 
HETATM   11  C16 UNL     1      27.675  -0.193  53.626  1.00  0.00     0.033 C 
HETATM   12  C17 UNL     1      27.815   1.156  53.049  1.00  0.00     0.066 C 
ENDROOT
BRANCH   6  13
HETATM   13  N2  UNL     1      20.756  -0.449  54.371  1.00  0.00    -0.341 N 
HETATM   14  H5  UNL     1      20.645  -0.804  55.345  1.00  0.00     0.167 HD
BRANCH  13  15
HETATM   15  C7  UNL     1      19.788  -0.392  53.294  1.00  0.00     0.035 A 
HETATM   16  C8  UNL     1      18.669  -1.198  53.528  1.00  0.00     0.032 A 
HETATM   17  C9  UNL     1      17.609  -1.285  52.617  1.00  0.00     0.046 A 
HETATM   18  C10 UNL     1      17.708  -0.531  51.456  1.00  0.00     0.138 A 
HETATM   19  F1  UNL     1      16.667  -0.633  50.571  1.00  0.00    -0.204 F 
HETATM   20  C11 UNL     1      18.813   0.266  51.229  1.00  0.00     0.074 A 
HETATM   21 CL1  UNL     1      18.911   1.206  49.760  1.00  0.00    -0.081 Cl
HETATM   22  C12 UNL     1      19.841   0.342  52.126  1.00  0.00     0.056 A 
ENDBRANCH  13  15
ENDBRANCH   6  13
BRANCH   1  23
HETATM   23  O1  UNL     1      27.141   2.651  51.253  1.00  0.00    -0.360 OA
HETATM   24  C1  UNL     1      26.047   3.090  50.439  1.00  0.00     0.209 C 
ENDBRANCH   1  23
TORSDOF 3
ENDMDL
MODEL 4
REMARK VINA RESULT:      -7.8      1.490      2.475
REMARK  3 active torsions:
REMARK  status: ('A' for Active; 'I' for Inactive)
REMARK    1  A    between atoms: O1_2  and  C2_3 
REMARK    2  A    between atoms: C6_8  and  N2_9 
REMARK    3  A    between atoms: N2_9  and  C7_10 
ROOT
HETATM    1  C2  UNL     1      19.905   0.193  52.312  1.00  0.00     0.046 C 
HETATM    2  C3  UNL     1      20.649   1.219  51.885  1.00  0.00     0.044 C 
HETATM    3  C4  UNL     1      22.051   1.507  52.149  1.00  0.00     0.008 C 
HETATM    4  C5  UNL     1      22.548   2.076  51.076  1.00  0.00     0.097 C 
HETATM    5  N1  UNL     1      23.789   2.073  50.826  1.00  0.00    -0.229 NA
HETATM    6  C6  UNL     1      24.792   2.186  51.813  1.00  0.00     0.127 C 
HETATM    7  C13 UNL     1      24.325   1.787  53.009  1.00  0.00     0.060 C 
HETATM    8  C14 UNL     1      22.986   1.300  53.313  1.00  0.00     0.183 C 
HETATM    9  O2  UNL     1      22.887  -0.019  53.732  1.00  0.00    -0.377 OA
HETATM   10  C15 UNL     1      21.729  -0.046  54.541  1.00  0.00     0.169 C 
HETATM   11  C16 UNL     1      20.834  -1.177  54.220  1.00  0.00     0.033 C 
HETATM   12  C17 UNL     1      19.889  -1.026  53.099  1.00  0.00     0.066 C 
ENDROOT
BRANCH   6  13
HETATM   13  N2  UNL     1      26.143   2.630  51.808  1.00  0.00    -0.341 N 
HETATM   14  H5  UNL     1      26.448   3.571  51.480  1.00  0.00     0.167 HD
BRANCH  13  15
HETATM   15  C7  UNL     1      26.934   1.536  52.336  1.00  0.00     0.035 A 
HETATM   16  C8  UNL     1      28.029   1.974  53.091  1.00  0.00     0.032 A 
HETATM   17  C9  UNL     1      28.920   1.082  53.698  1.00  0.00     0.046 A 
HETATM   18  C10 UNL     1      28.677  -0.274  53.524  1.00  0.00     0.138 A 
HETATM   19  F1  UNL     1      29.563  -1.134  54.118  1.00  0.00    -0.204 F 
HETATM   20  C11 UNL     1      27.595  -0.703  52.781  1.00  0.00     0.074 A 
HETATM   21 CL1  UNL     1      27.311  -2.414  52.579  1.00  0.00    -0.081 Cl
HETATM   22  C12 UNL     1      26.732   0.178  52.193  1.00  0.00     0.056 A 
ENDBRANCH  13  15
ENDBRANCH   6  13
BRANCH   1  23
HETATM   23  O1  UNL     1      18.678   0.545  51.691  1.00  0.00    -0.360 OA
HETATM   24  C1  UNL     1      17.656  -0.438  51.894  1.00  0.00     0.209 C 
ENDBRANCH   1  23
TORSDOF 3
ENDMDL
MODEL 5
REMARK VINA RESULT:      -7.7      4.558      6.323
REMARK  3 active torsions:
REMARK  status: ('A' for Active; 'I' for Inactive)
REMARK    1  A    between atoms: O1_2  and  C2_3 
REMARK    2  A    between atoms: C6_8  and  N2_9 
REMARK    3  A    between atoms: N2_9  and  C7_10 
ROOT
HETATM    1  C2  UNL     1      24.380  -0.563  54.233  1.00  0.00     0.046 C 
HETATM    2  C3  UNL     1      24.746   0.500  53.509  1.00  0.00     0.044 C 
HETATM    3  C4  UNL     1      23.928   1.596  53.011  1.00  0.00     0.008 C 
HETATM    4  C5  UNL     1      24.665   2.681  53.026  1.00  0.00     0.097 C 
HETATM    5  N1  UNL     1      24.156   3.840  53.052  1.00  0.00    -0.229 NA
HETATM    6  C6  UNL     1      22.973   4.197  52.370  1.00  0.00     0.127 C 
HETATM    7  C13 UNL     1      22.213   3.111  52.144  1.00  0.00     0.060 C 
HETATM    8  C14 UNL     1      22.510   1.735  52.519  1.00  0.00     0.183 C 
HETATM    9  O2  UNL     1      21.659   1.148  53.444  1.00  0.00    -0.377 OA
HETATM   10  C15 UNL     1      21.720  -0.233  53.153  1.00  0.00     0.169 C 
HETATM   11  C16 UNL     1      21.908  -1.063  54.361  1.00  0.00     0.033 C 
HETATM   12  C17 UNL     1      23.275  -1.245  54.880  1.00  0.00     0.066 C 
ENDROOT
BRANCH   6  13
HETATM   13  N2  UNL     1      22.442   5.421  51.879  1.00  0.00    -0.341 N 
HETATM   14  H5  UNL     1      21.542   5.839  52.200  1.00  0.00     0.167 HD
BRANCH  13  15
HETATM   15  C7  UNL     1      23.389   5.913  50.898  1.00  0.00     0.035 A 
HETATM   16  C8  UNL     1      23.180   5.374  49.624  1.00  0.00     0.032 A 
HETATM   17  C9  UNL     1      23.978   5.720  48.528  1.00  0.00     0.046 A 
HETATM   18  C10 UNL     1      25.001   6.632  48.752  1.00  0.00     0.138 A 
HETATM   19  F1  UNL     1      25.779   6.955  47.671  1.00  0.00    -0.204 F 
HETATM   20  C11 UNL     1      25.204   7.164  50.010  1.00  0.00     0.074 A 
HETATM   21 CL1  UNL     1      26.497   8.311  50.264  1.00  0.00    -0.081 Cl
HETATM   22  C12 UNL     1      24.417   6.818  51.072  1.00  0.00     0.056 A 
ENDBRANCH  13  15
ENDBRANCH   6  13
BRANCH   1  23
HETATM   23  O1  UNL     1      25.649  -1.190  54.350  1.00  0.00    -0.360 OA
HETATM   24  C1  UNL     1      26.419  -1.101  53.147  1.00  0.00     0.209 C 
ENDBRANCH   1  23
TORSDOF 3
ENDMDL
MODEL 6
REMARK VINA RESULT:      -7.5      1.941      3.289
REMARK  3 active torsions:
REMARK  status: ('A' for Active; 'I' for Inactive)
REMARK    1  A    between atoms: O1_2  and  C2_3 
REMARK    2  A    between atoms: C6_8  and  N2_9 
REMARK    3  A    between atoms: N2_9  and  C7_10 
ROOT
HETATM    1  C2  UNL     1      20.853   1.924  50.552  1.00  0.00     0.046 C 
HETATM    2  C3  UNL     1      21.992   2.093  51.232  1.00  0.00     0.044 C 
HETATM    3  C4  UNL     1      22.592   1.236  52.243  1.00  0.00     0.008 C 
HETATM    4  C5  UNL     1      23.895   1.324  52.116  1.00  0.00     0.097 C 
HETATM    5  N1  UNL     1      24.676   0.424  52.543  1.00  0.00    -0.229 NA
HETATM    6  C6  UNL     1      24.462  -0.307  53.732  1.00  0.00     0.127 C 
HETATM    7  C13 UNL     1      23.157  -0.312  54.053  1.00  0.00     0.060 C 
HETATM    8  C14 UNL     1      22.068   0.328  53.326  1.00  0.00     0.183 C 
HETATM    9  O2  UNL     1      21.113  -0.514  52.776  1.00  0.00    -0.377 OA
HETATM   10  C15 UNL     1      19.935   0.267  52.735  1.00  0.00     0.169 C 
HETATM   11  C16 UNL     1      19.243   0.188  51.433  1.00  0.00     0.033 C 
HETATM   12  C17 UNL     1      19.704   1.062  50.340  1.00  0.00     0.066 C 
ENDROOT
BRANCH   6  13
HETATM   13  N2  UNL     1      25.311  -1.004  54.634  1.00  0.00    -0.341 N 
HETATM   14  H5  UNL     1      24.970  -1.654  55.375  1.00  0.00     0.167 HD
BRANCH  13  15
HETATM   15  C7  UNL     1      26.668  -0.623  54.295  1.00  0.00     0.035 A 
HETATM   16  C8  UNL     1      27.306  -1.562  53.477  1.00  0.00     0.032 A 
HETATM   17  C9  UNL     1      28.620  -1.387  53.026  1.00  0.00     0.046 A 
HETATM   18  C10 UNL     1      29.277  -0.231  53.425  1.00  0.00     0.138 A 
HETATM   19  F1  UNL     1      30.565  -0.079  52.982  1.00  0.00    -0.204 F 
HETATM   20  C11 UNL     1      28.644   0.694  54.231  1.00  0.00     0.074 A 
HETATM   21 CL1  UNL     1      29.495   2.141  54.716  1.00  0.00    -0.081 Cl
HETATM   22  C12 UNL     1      27.361   0.512  54.664  1.00  0.00     0.056 A 
ENDBRANCH  13  15
ENDBRANCH   6  13
BRANCH   1  23
HETATM   23  O1  UNL     1      20.892   3.107  49.769  1.00  0.00    -0.360 OA
HETATM   24  C1  UNL     1      22.228   3.552  49.510  1.00  0.00     0.209 C 
ENDBRANCH   1  23
TORSDOF 3
ENDMDL
MODEL 7
REMARK VINA RESULT:      -7.4      4.184      6.353
REMARK  3 active torsions:
REMARK  status: ('A' for Active; 'I' for Inactive)
REMARK    1  A    between atoms: O1_2  and  C2_3 
REMARK    2  A    between atoms: C6_8  and  N2_9 
REMARK    3  A    between atoms: N2_9  and  C7_10 
ROOT
HETATM    1  C2  UNL     1      25.180   6.139  49.461  1.00  0.00     0.046 C 
HETATM    2  C3  UNL     1      24.380   5.290  50.116  1.00  0.00     0.044 C 
HETATM    3  C4  UNL     1      24.715   4.034  50.769  1.00  0.00     0.008 C 
HETATM    4  C5  UNL     1      23.937   3.912  51.819  1.00  0.00     0.097 C 
HETATM    5  N1  UNL     1      24.242   3.172  52.800  1.00  0.00    -0.229 NA
HETATM    6  C6  UNL     1      24.906   1.932  52.676  1.00  0.00     0.127 C 
HETATM    7  C13 UNL     1      25.604   1.883  51.529  1.00  0.00     0.060 C 
HETATM    8  C14 UNL     1      25.702   2.923  50.513  1.00  0.00     0.183 C 
HETATM    9  O2  UNL     1      26.957   3.481  50.317  1.00  0.00    -0.377 OA
HETATM   10  C15 UNL     1      26.948   3.906  48.970  1.00  0.00     0.169 C 
HETATM   11  C16 UNL     1      27.462   5.282  48.801  1.00  0.00     0.033 C 
HETATM   12  C17 UNL     1      26.538   6.407  49.026  1.00  0.00     0.066 C 
ENDROOT
BRANCH   6  13
HETATM   13  N2  UNL     1      24.977   0.761  53.479  1.00  0.00    -0.341 N 
HETATM   14  H5  UNL     1      25.844   0.428  53.952  1.00  0.00     0.167 HD
BRANCH  13  15
HETATM   15  C7  UNL     1      23.646   0.187  53.483  1.00  0.00     0.035 A 
HETATM   16  C8  UNL     1      23.452  -0.725  54.527  1.00  0.00     0.032 A 
HETATM   17  C9  UNL     1      22.236  -1.390  54.719  1.00  0.00     0.046 A 
HETATM   18  C10 UNL     1      21.212  -1.109  53.825  1.00  0.00     0.138 A 
HETATM   19  F1  UNL     1      20.030  -1.775  54.022  1.00  0.00    -0.204 F 
HETATM   20  C11 UNL     1      21.405  -0.208  52.797  1.00  0.00     0.074 A 
HETATM   21 CL1  UNL     1      20.099   0.129  51.687  1.00  0.00    -0.081 Cl
HETATM   22  C12 UNL     1      22.598   0.435  52.620  1.00  0.00     0.056 A 
ENDBRANCH  13  15
ENDBRANCH   6  13
BRANCH   1  23
HETATM   23  O1  UNL     1      24.211   7.111  49.100  1.00  0.00    -0.360 OA
HETATM   24  C1  UNL     1      24.267   7.455  47.711  1.00  0.00     0.209 C 
ENDBRANCH   1  23
TORSDOF 3
ENDMDL
MODEL 8
REMARK VINA RESULT:      -7.4      3.449      4.646
REMARK  3 active torsions:
REMARK  status: ('A' for Active; 'I' for Inactive)
REMARK    1  A    between atoms: O1_2  and  C2_3 
REMARK    2  A    between atoms: C6_8  and  N2_9 
REMARK    3  A    between atoms: N2_9  and  C7_10 
ROOT
HETATM    1  C2  UNL     1      24.223   5.739  49.948  1.00  0.00     0.046 C 
HETATM    2  C3  UNL     1      23.613   4.717  50.556  1.00  0.00     0.044 C 
HETATM    3  C4  UNL     1      24.190   3.499  51.105  1.00  0.00     0.008 C 
HETATM    4  C5  UNL     1      23.487   3.166  52.162  1.00  0.00     0.097 C 
HETATM    5  N1  UNL     1      23.955   2.427  53.076  1.00  0.00    -0.229 NA
HETATM    6  C6  UNL     1      24.824   1.339  52.843  1.00  0.00     0.127 C 
HETATM    7  C13 UNL     1      25.475   1.496  51.678  1.00  0.00     0.060 C 
HETATM    8  C14 UNL     1      25.348   2.605  50.741  1.00  0.00     0.183 C 
HETATM    9  O2  UNL     1      26.476   3.392  50.556  1.00  0.00    -0.377 OA
HETATM   10  C15 UNL     1      26.340   3.901  49.245  1.00  0.00     0.169 C 
HETATM   11  C16 UNL     1      26.595   5.355  49.168  1.00  0.00     0.033 C 
HETATM   12  C17 UNL     1      25.495   6.277  49.501  1.00  0.00     0.066 C 
ENDROOT
BRANCH   6  13
HETATM   13  N2  UNL     1      25.132   0.146  53.553  1.00  0.00    -0.341 N 
HETATM   14  H5  UNL     1      24.418  -0.527  53.904  1.00  0.00     0.167 HD
BRANCH  13  15
HETATM   15  C7  UNL     1      26.577   0.096  53.659  1.00  0.00     0.035 A 
HETATM   16  C8  UNL     1      27.116  -1.096  53.161  1.00  0.00     0.032 A 
HETATM   17  C9  UNL     1      28.493  -1.349  53.161  1.00  0.00     0.046 A 
HETATM   18  C10 UNL     1      29.318  -0.359  53.678  1.00  0.00     0.138 A 
HETATM   19  F1  UNL     1      30.663  -0.625  53.678  1.00  0.00    -0.204 F 
HETATM   20  C11 UNL     1      28.784   0.816  54.166  1.00  0.00     0.074 A 
HETATM   21 CL1  UNL     1      29.846   2.045  54.810  1.00  0.00    -0.081 Cl
HETATM   22  C12 UNL     1      27.438   1.051  54.161  1.00  0.00     0.056 A 
ENDBRANCH  13  15
ENDBRANCH   6  13
BRANCH   1  23
HETATM   23  O1  UNL     1      23.084   6.544  49.685  1.00  0.00    -0.360 OA
HETATM   24  C1  UNL     1      23.073   7.751  50.454  1.00  0.00     0.209 C 
ENDBRANCH   1  23
TORSDOF 3
ENDMDL
MODEL 9
REMARK VINA RESULT:      -7.4      4.015      6.037
REMARK  3 active torsions:
REMARK  status: ('A' for Active; 'I' for Inactive)
REMARK    1  A    between atoms: O1_2  and  C2_3 
REMARK    2  A    between atoms: C6_8  and  N2_9 
REMARK    3  A    between atoms: N2_9  and  C7_10 
ROOT
HETATM    1  C2  UNL     1      26.167   7.211  47.971  1.00  0.00     0.046 C 
HETATM    2  C3  UNL     1      26.717   6.214  48.672  1.00  0.00     0.044 C 
HETATM    3  C4  UNL     1      26.070   5.224  49.520  1.00  0.00     0.008 C 
HETATM    4  C5  UNL     1      26.747   4.105  49.411  1.00  0.00     0.097 C 
HETATM    5  N1  UNL     1      26.233   2.979  49.677  1.00  0.00    -0.229 NA
HETATM    6  C6  UNL     1      25.309   2.761  50.722  1.00  0.00     0.127 C 
HETATM    7  C13 UNL     1      24.675   3.904  51.037  1.00  0.00     0.060 C 
HETATM    8  C14 UNL     1      24.868   5.214  50.430  1.00  0.00     0.183 C 
HETATM    9  O2  UNL     1      23.787   5.743  49.742  1.00  0.00    -0.377 OA
HETATM   10  C15 UNL     1      23.959   7.143  49.835  1.00  0.00     0.169 C 
HETATM   11  C16 UNL     1      23.784   7.828  48.537  1.00  0.00     0.033 C 
HETATM   12  C17 UNL     1      24.929   7.879  47.612  1.00  0.00     0.066 C 
ENDROOT
BRANCH   6  13
HETATM   13  N2  UNL     1      24.931   1.627  51.492  1.00  0.00    -0.341 N 
HETATM   14  H5  UNL     1      23.969   1.226  51.510  1.00  0.00     0.167 HD
BRANCH  13  15
HETATM   15  C7  UNL     1      26.124   1.193  52.192  1.00  0.00     0.035 A 
HETATM   16  C8  UNL     1      26.261  -0.200  52.217  1.00  0.00     0.032 A 
HETATM   17  C9  UNL     1      27.346  -0.832  52.836  1.00  0.00     0.046 A 
HETATM   18  C10 UNL     1      28.297  -0.015  53.433  1.00  0.00     0.138 A 
HETATM   19  F1  UNL     1      29.349  -0.649  54.042  1.00  0.00    -0.204 F 
HETATM   20  C11 UNL     1      28.161   1.358  53.405  1.00  0.00     0.074 A 
HETATM   21 CL1  UNL     1      29.373   2.362  54.162  1.00  0.00    -0.081 Cl
HETATM   22  C12 UNL     1      27.097   1.962  52.797  1.00  0.00     0.056 A 
ENDBRANCH  13  15
ENDBRANCH   6  13
BRANCH   1  23
HETATM   23  O1  UNL     1      27.350   7.753  47.404  1.00  0.00    -0.360 OA
HETATM   24  C1  UNL     1      28.529   7.368  48.118  1.00  0.00     0.209 C 
ENDBRANCH   1  23
TORSDOF 3
ENDMDL
