MODEL 1
REMARK VINA RESULT:      -7.0      0.000      0.000
REMARK  1 active torsions:
REMARK  status: ('A' for Active; 'I' for Inactive)
REMARK    1  A    between atoms: O1_2  and  C2_3 
ROOT
HETATM    1  C2  UNL     1      26.311  -0.459  53.318  1.00  0.00     0.101 C 
HETATM    2  C3  UNL     1      26.853  -0.165  52.167  1.00  0.00     0.120 C 
HETATM    3  N1  UNL     1      26.570   0.970  51.675  1.00  0.00    -0.237 NA
HETATM    4  C4  UNL     1      25.432   1.610  52.243  1.00  0.00     0.230 C 
HETATM    5  N2  UNL     1      24.565   1.458  51.316  1.00  0.00    -0.246 NA
HETATM    6  C5  UNL     1      23.223   1.973  51.478  1.00  0.00     0.157 C 
HETATM    7  C6  UNL     1      22.464   1.355  52.588  1.00  0.00     0.053 C 
HETATM    8  C7  UNL     1      22.723   0.564  53.626  1.00  0.00     0.135 C 
HETATM    9  O2  UNL     1      23.983   0.145  53.833  1.00  0.00    -0.357 OA
HETATM   10  C8  UNL     1      24.854  -0.637  53.122  1.00  0.00     0.241 C 
HETATM   11  N3  UNL     1      22.444   1.646  50.280  1.00  0.00    -0.368 N 
HETATM   12  C9  UNL     1      22.595   2.207  48.975  1.00  0.00     0.085 C 
HETATM   13  C10 UNL     1      23.417   3.192  48.630  1.00  0.00     0.017 C 
HETATM   14  C11 UNL     1      24.363   3.947  49.479  1.00  0.00    -0.002 C 
HETATM   15  C12 UNL     1      24.357   4.080  50.815  1.00  0.00    -0.013 C 
HETATM   16  C13 UNL     1      23.320   3.442  51.703  1.00  0.00     0.020 C 
HETATM   17  C14 UNL     1      22.033   4.175  51.397  1.00  0.00     0.024 C 
HETATM   18  C15 UNL     1      23.708   3.708  53.134  1.00  0.00     0.024 C 
HETATM   19  H9  UNL     1      21.667   0.923  50.318  1.00  0.00     0.161 HD
ENDROOT
BRANCH   1  20
HETATM   20  O1  UNL     1      26.970  -0.582  54.502  1.00  0.00    -0.356 OA
HETATM   21  C1  UNL     1      28.166   0.141  54.709  1.00  0.00     0.209 C 
ENDBRANCH   1  20
TORSDOF 1
ENDMDL
MODEL 2
REMARK VINA RESULT:      -7.0      2.401      5.498
REMARK  1 active torsions:
REMARK  status: ('A' for Active; 'I' for Inactive)
REMARK    1  A    between atoms: O1_2  and  C2_3 
ROOT
HETATM    1  C2  UNL     1      25.009   4.066  49.576  1.00  0.00     0.101 C 
HETATM    2  C3  UNL     1      26.239   3.741  49.283  1.00  0.00     0.120 C 
HETATM    3  N1  UNL     1      26.682   2.664  49.787  1.00  0.00    -0.237 NA
HETATM    4  C4  UNL     1      25.928   2.152  50.880  1.00  0.00     0.230 C 
HETATM    5  N2  UNL     1      26.687   2.435  51.869  1.00  0.00    -0.246 NA
HETATM    6  C5  UNL     1      26.295   2.084  53.217  1.00  0.00     0.157 C 
HETATM    7  C6  UNL     1      25.065   2.757  53.688  1.00  0.00     0.053 C 
HETATM    8  C7  UNL     1      24.083   3.481  53.155  1.00  0.00     0.135 C 
HETATM    9  O2  UNL     1      24.098   3.737  51.836  1.00  0.00    -0.357 OA
HETATM   10  C8  UNL     1      24.945   4.426  51.010  1.00  0.00     0.241 C 
HETATM   11  N3  UNL     1      27.335   2.538  54.144  1.00  0.00    -0.368 N 
HETATM   12  C9  UNL     1      28.650   2.001  54.293  1.00  0.00     0.085 C 
HETATM   13  C10 UNL     1      29.142   0.933  53.674  1.00  0.00     0.017 C 
HETATM   14  C11 UNL     1      28.477   0.044  52.697  1.00  0.00    -0.002 C 
HETATM   15  C12 UNL     1      27.162  -0.126  52.488  1.00  0.00    -0.013 C 
HETATM   16  C13 UNL     1      26.101   0.608  53.267  1.00  0.00     0.020 C 
HETATM   17  C14 UNL     1      26.181   0.047  54.669  1.00  0.00     0.024 C 
HETATM   18  C15 UNL     1      24.763   0.255  52.674  1.00  0.00     0.024 C 
HETATM   19  H9  UNL     1      27.156   3.350  54.806  1.00  0.00     0.161 HD
ENDROOT
BRANCH   1  20
HETATM   20  O1  UNL     1      23.958   4.073  48.711  1.00  0.00    -0.356 OA
HETATM   21  C1  UNL     1      23.108   2.948  48.643  1.00  0.00     0.209 C 
ENDBRANCH   1  20
TORSDOF 1
ENDMDL
MODEL 3
REMARK VINA RESULT:      -6.5      2.371      3.933
REMARK  1 active torsions:
REMARK  status: ('A' for Active; 'I' for Inactive)
REMARK    1  A    between atoms: O1_2  and  C2_3 
ROOT
HETATM    1  C2  UNL     1      26.044   1.461  52.629  1.00  0.00     0.101 C 
HETATM    2  C3  UNL     1      25.249   2.105  53.441  1.00  0.00     0.120 C 
HETATM    3  N1  UNL     1      24.266   2.713  52.916  1.00  0.00    -0.237 NA
HETATM    4  C4  UNL     1      24.364   2.922  51.511  1.00  0.00     0.230 C 
HETATM    5  N2  UNL     1      24.627   4.172  51.457  1.00  0.00    -0.246 NA
HETATM    6  C5  UNL     1      24.814   4.826  50.180  1.00  0.00     0.157 C 
HETATM    7  C6  UNL     1      25.971   4.328  49.405  1.00  0.00     0.053 C 
HETATM    8  C7  UNL     1      26.813   3.300  49.461  1.00  0.00     0.135 C 
HETATM    9  O2  UNL     1      26.678   2.394  50.444  1.00  0.00    -0.357 OA
HETATM   10  C8  UNL     1      26.781   2.448  51.808  1.00  0.00     0.241 C 
HETATM   11  N3  UNL     1      25.116   6.241  50.414  1.00  0.00    -0.368 N 
HETATM   12  C9  UNL     1      24.222   7.245  50.897  1.00  0.00     0.085 C 
HETATM   13  C10 UNL     1      22.925   7.095  51.141  1.00  0.00     0.017 C 
HETATM   14  C11 UNL     1      22.088   5.886  50.981  1.00  0.00    -0.002 C 
HETATM   15  C12 UNL     1      22.332   4.800  50.230  1.00  0.00    -0.013 C 
HETATM   16  C13 UNL     1      23.568   4.642  49.385  1.00  0.00     0.020 C 
HETATM   17  C14 UNL     1      23.419   5.656  48.273  1.00  0.00     0.024 C 
HETATM   18  C15 UNL     1      23.550   3.258  48.791  1.00  0.00     0.024 C 
HETATM   19  H9  UNL     1      26.088   6.628  50.224  1.00  0.00     0.161 HD
ENDROOT
BRANCH   1  20
HETATM   20  O1  UNL     1      26.176   0.109  52.549  1.00  0.00    -0.356 OA
HETATM   21  C1  UNL     1      25.634  -0.703  53.569  1.00  0.00     0.209 C 
ENDBRANCH   1  20
TORSDOF 1
ENDMDL
MODEL 4
REMARK VINA RESULT:      -6.2      2.366      5.489
REMARK  1 active torsions:
REMARK  status: ('A' for Active; 'I' for Inactive)
REMARK    1  A    between atoms: O1_2  and  C2_3 
ROOT
HETATM    1  C2  UNL     1      21.995   2.831  49.019  1.00  0.00     0.101 C 
HETATM    2  C3  UNL     1      21.784   1.577  49.314  1.00  0.00     0.120 C 
HETATM    3  N1  UNL     1      22.133   1.195  50.473  1.00  0.00    -0.237 NA
HETATM    4  C4  UNL     1      23.029   2.067  51.153  1.00  0.00     0.230 C 
HETATM    5  N2  UNL     1      24.129   1.422  51.067  1.00  0.00    -0.246 NA
HETATM    6  C5  UNL     1      25.342   1.962  51.642  1.00  0.00     0.157 C 
HETATM    7  C6  UNL     1      25.789   3.234  51.035  1.00  0.00     0.053 C 
HETATM    8  C7  UNL     1      25.291   4.149  50.208  1.00  0.00     0.135 C 
HETATM    9  O2  UNL     1      24.048   3.988  49.723  1.00  0.00    -0.357 OA
HETATM   10  C8  UNL     1      23.455   3.053  48.917  1.00  0.00     0.241 C 
HETATM   11  N3  UNL     1      26.443   1.030  51.383  1.00  0.00    -0.368 N 
HETATM   12  C9  UNL     1      26.635  -0.260  51.967  1.00  0.00     0.085 C 
HETATM   13  C10 UNL     1      25.892  -0.814  52.919  1.00  0.00     0.017 C 
HETATM   14  C11 UNL     1      24.706  -0.260  53.606  1.00  0.00    -0.002 C 
HETATM   15  C12 UNL     1      24.329   1.025  53.707  1.00  0.00    -0.013 C 
HETATM   16  C13 UNL     1      25.106   2.163  53.098  1.00  0.00     0.020 C 
HETATM   17  C14 UNL     1      26.386   2.240  53.901  1.00  0.00     0.024 C 
HETATM   18  C15 UNL     1      24.318   3.429  53.311  1.00  0.00     0.024 C 
HETATM   19  H9  UNL     1      27.215   1.278  50.697  1.00  0.00     0.161 HD
ENDROOT
BRANCH   1  20
HETATM   20  O1  UNL     1      21.036   3.780  48.835  1.00  0.00    -0.356 OA
HETATM   21  C1  UNL     1      19.906   3.796  49.681  1.00  0.00     0.209 C 
ENDBRANCH   1  20
TORSDOF 1
ENDMDL
MODEL 5
REMARK VINA RESULT:      -6.1      8.118      9.758
REMARK  1 active torsions:
REMARK  status: ('A' for Active; 'I' for Inactive)
REMARK    1  A    between atoms: O1_2  and  C2_3 
ROOT
HETATM    1  C2  UNL     1      32.927   6.341  48.527  1.00  0.00     0.101 C 
HETATM    2  C3  UNL     1      32.108   5.695  49.314  1.00  0.00     0.120 C 
HETATM    3  N1  UNL     1      30.878   5.722  49.004  1.00  0.00    -0.237 NA
HETATM    4  C4  UNL     1      30.508   6.735  48.076  1.00  0.00     0.230 C 
HETATM    5  N2  UNL     1      29.905   7.569  48.834  1.00  0.00    -0.246 NA
HETATM    6  C5  UNL     1      29.350   8.787  48.286  1.00  0.00     0.157 C 
HETATM    7  C6  UNL     1      30.354   9.708  47.709  1.00  0.00     0.053 C 
HETATM    8  C7  UNL     1      31.641   9.663  47.375  1.00  0.00     0.135 C 
HETATM    9  O2  UNL     1      32.329   8.524  47.565  1.00  0.00    -0.357 OA
HETATM   10  C8  UNL     1      32.672   7.792  48.670  1.00  0.00     0.241 C 
HETATM   11  N3  UNL     1      28.736   9.556  49.373  1.00  0.00    -0.368 N 
HETATM   12  C9  UNL     1      27.544   9.232  50.091  1.00  0.00     0.085 C 
HETATM   13  C10 UNL     1      26.727   8.214  49.845  1.00  0.00     0.017 C 
HETATM   14  C11 UNL     1      26.830   7.179  48.794  1.00  0.00    -0.002 C 
HETATM   15  C12 UNL     1      27.529   7.224  47.649  1.00  0.00    -0.013 C 
HETATM   16  C13 UNL     1      28.363   8.409  47.237  1.00  0.00     0.020 C 
HETATM   17  C14 UNL     1      27.367   9.507  46.937  1.00  0.00     0.024 C 
HETATM   18  C15 UNL     1      29.090   8.047  45.969  1.00  0.00     0.024 C 
HETATM   19  H9  UNL     1      29.174  10.463  49.711  1.00  0.00     0.161 HD
ENDROOT
BRANCH   1  20
HETATM   20  O1  UNL     1      33.859   5.778  47.711  1.00  0.00    -0.356 OA
HETATM   21  C1  UNL     1      34.711   4.774  48.221  1.00  0.00     0.209 C 
ENDBRANCH   1  20
TORSDOF 1
ENDMDL
MODEL 6
REMARK VINA RESULT:      -6.0      1.908      2.490
REMARK  1 active torsions:
REMARK  status: ('A' for Active; 'I' for Inactive)
REMARK    1  A    between atoms: O1_2  and  C2_3 
ROOT
HETATM    1  C2  UNL     1      25.707   1.271  53.337  1.00  0.00     0.101 C 
HETATM    2  C3  UNL     1      25.711   2.217  52.437  1.00  0.00     0.120 C 
HETATM    3  N1  UNL     1      24.603   2.793  52.208  1.00  0.00    -0.237 NA
HETATM    4  C4  UNL     1      23.452   2.100  52.677  1.00  0.00     0.230 C 
HETATM    5  N2  UNL     1      22.964   1.647  51.586  1.00  0.00    -0.246 NA
HETATM    6  C5  UNL     1      21.752   0.856  51.598  1.00  0.00     0.157 C 
HETATM    7  C6  UNL     1      21.868  -0.423  52.330  1.00  0.00     0.053 C 
HETATM    8  C7  UNL     1      22.736  -0.999  53.159  1.00  0.00     0.135 C 
HETATM    9  O2  UNL     1      23.852  -0.336  53.503  1.00  0.00    -0.357 OA
HETATM   10  C8  UNL     1      24.941   0.120  52.808  1.00  0.00     0.241 C 
HETATM   11  N3  UNL     1      21.434   0.460  50.223  1.00  0.00    -0.368 N 
HETATM   12  C9  UNL     1      20.976   1.306  49.167  1.00  0.00     0.085 C 
HETATM   13  C10 UNL     1      20.674   2.596  49.263  1.00  0.00     0.017 C 
HETATM   14  C11 UNL     1      20.728   3.472  50.454  1.00  0.00    -0.002 C 
HETATM   15  C12 UNL     1      20.731   3.115  51.748  1.00  0.00    -0.013 C 
HETATM   16  C13 UNL     1      20.674   1.682  52.209  1.00  0.00     0.020 C 
HETATM   17  C14 UNL     1      19.285   1.205  51.847  1.00  0.00     0.024 C 
HETATM   18  C15 UNL     1      20.820   1.671  53.708  1.00  0.00     0.024 C 
HETATM   19  H9  UNL     1      21.532  -0.552  49.913  1.00  0.00     0.161 HD
ENDROOT
BRANCH   1  20
HETATM   20  O1  UNL     1      26.306   1.329  54.558  1.00  0.00    -0.356 OA
HETATM   21  C1  UNL     1      27.204   0.308  54.939  1.00  0.00     0.209 C 
ENDBRANCH   1  20
TORSDOF 1
ENDMDL
MODEL 7
REMARK VINA RESULT:      -6.0     21.606     23.573
REMARK  1 active torsions:
REMARK  status: ('A' for Active; 'I' for Inactive)
REMARK    1  A    between atoms: O1_2  and  C2_3 
ROOT
HETATM    1  C2  UNL     1      42.846   0.565  68.200  1.00  0.00     0.101 C 
HETATM    2  C3  UNL     1      43.380  -0.605  68.427  1.00  0.00     0.120 C 
HETATM    3  N1  UNL     1      42.727  -1.618  68.030  1.00  0.00    -0.237 NA
HETATM    4  C4  UNL     1      41.357  -1.376  67.731  1.00  0.00     0.230 C 
HETATM    5  N2  UNL     1      40.777  -1.919  68.733  1.00  0.00    -0.246 NA
HETATM    6  C5  UNL     1      39.335  -1.903  68.842  1.00  0.00     0.157 C 
HETATM    7  C6  UNL     1      38.747  -0.551  68.958  1.00  0.00     0.053 C 
HETATM    8  C7  UNL     1      39.156   0.707  68.810  1.00  0.00     0.135 C 
HETATM    9  O2  UNL     1      40.430   0.945  68.457  1.00  0.00    -0.357 OA
HETATM   10  C8  UNL     1      41.641   0.706  69.049  1.00  0.00     0.241 C 
HETATM   11  N3  UNL     1      38.947  -2.575  70.085  1.00  0.00    -0.368 N 
HETATM   12  C9  UNL     1      39.042  -3.971  70.376  1.00  0.00     0.085 C 
HETATM   13  C10 UNL     1      39.421  -4.928  69.537  1.00  0.00     0.017 C 
HETATM   14  C11 UNL     1      39.832  -4.807  68.122  1.00  0.00    -0.002 C 
HETATM   15  C12 UNL     1      39.575  -3.806  67.265  1.00  0.00    -0.013 C 
HETATM   16  C13 UNL     1      38.779  -2.583  67.639  1.00  0.00     0.020 C 
HETATM   17  C14 UNL     1      37.364  -3.079  67.838  1.00  0.00     0.024 C 
HETATM   18  C15 UNL     1      38.805  -1.636  66.467  1.00  0.00     0.024 C 
HETATM   19  H9  UNL     1      38.544  -2.022  70.899  1.00  0.00     0.161 HD
ENDROOT
BRANCH   1  20
HETATM   20  O1  UNL     1      43.316   1.501  67.331  1.00  0.00    -0.356 OA
HETATM   21  C1  UNL     1      44.263   2.448  67.777  1.00  0.00     0.209 C 
ENDBRANCH   1  20
TORSDOF 1
ENDMDL
MODEL 8
REMARK VINA RESULT:      -5.9      2.194      3.491
REMARK  1 active torsions:
REMARK  status: ('A' for Active; 'I' for Inactive)
REMARK    1  A    between atoms: O1_2  and  C2_3 
ROOT
HETATM    1  C2  UNL     1      25.655   1.523  53.166  1.00  0.00     0.101 C 
HETATM    2  C3  UNL     1      24.851   0.549  53.499  1.00  0.00     0.120 C 
HETATM    3  N1  UNL     1      23.931   0.260  52.674  1.00  0.00    -0.237 NA
HETATM    4  C4  UNL     1      23.666   1.253  51.689  1.00  0.00     0.230 C 
HETATM    5  N2  UNL     1      22.562   1.741  52.109  1.00  0.00    -0.246 NA
HETATM    6  C5  UNL     1      21.913   2.813  51.386  1.00  0.00     0.157 C 
HETATM    7  C6  UNL     1      22.695   4.067  51.325  1.00  0.00     0.053 C 
HETATM    8  C7  UNL     1      23.937   4.457  51.599  1.00  0.00     0.135 C 
HETATM    9  O2  UNL     1      24.821   3.556  52.062  1.00  0.00    -0.357 OA
HETATM   10  C8  UNL     1      24.895   2.793  53.196  1.00  0.00     0.241 C 
HETATM   11  N3  UNL     1      20.685   3.185  52.093  1.00  0.00    -0.368 N 
HETATM   12  C9  UNL     1      19.486   2.414  52.202  1.00  0.00     0.085 C 
HETATM   13  C10 UNL     1      19.238   1.253  51.607  1.00  0.00     0.017 C 
HETATM   14  C11 UNL     1      20.108   0.474  50.700  1.00  0.00    -0.002 C 
HETATM   15  C12 UNL     1      21.161   0.904  49.987  1.00  0.00    -0.013 C 
HETATM   16  C13 UNL     1      21.642   2.332  50.002  1.00  0.00     0.020 C 
HETATM   17  C14 UNL     1      20.558   3.121  49.302  1.00  0.00     0.024 C 
HETATM   18  C15 UNL     1      22.905   2.405  49.186  1.00  0.00     0.024 C 
HETATM   19  H9  UNL     1      20.611   4.115  52.602  1.00  0.00     0.161 HD
ENDROOT
BRANCH   1  20
HETATM   20  O1  UNL     1      26.971   1.396  52.844  1.00  0.00    -0.356 OA
HETATM   21  C1  UNL     1      27.917   2.258  53.441  1.00  0.00     0.209 C 
ENDBRANCH   1  20
TORSDOF 1
ENDMDL
MODEL 9
REMARK VINA RESULT:      -5.9      3.152      6.016
REMARK  1 active torsions:
REMARK  status: ('A' for Active; 'I' for Inactive)
REMARK    1  A    between atoms: O1_2  and  C2_3 
ROOT
HETATM    1  C2  UNL     1      21.748   3.912  47.402  1.00  0.00     0.101 C 
HETATM    2  C3  UNL     1      22.239   2.704  47.339  1.00  0.00     0.120 C 
HETATM    3  N1  UNL     1      22.462   2.119  48.443  1.00  0.00    -0.237 NA
HETATM    4  C4  UNL     1      22.499   2.970  49.583  1.00  0.00     0.230 C 
HETATM    5  N2  UNL     1      23.752   3.009  49.832  1.00  0.00    -0.246 NA
HETATM    6  C5  UNL     1      24.254   3.787  50.944  1.00  0.00     0.157 C 
HETATM    7  C6  UNL     1      24.010   5.241  50.829  1.00  0.00     0.053 C 
HETATM    8  C7  UNL     1      23.285   6.052  50.062  1.00  0.00     0.135 C 
HETATM    9  O2  UNL     1      22.520   5.526  49.090  1.00  0.00    -0.357 OA
HETATM   10  C8  UNL     1      22.785   4.815  47.951  1.00  0.00     0.241 C 
HETATM   11  N3  UNL     1      25.714   3.666  50.984  1.00  0.00    -0.368 N 
HETATM   12  C9  UNL     1      26.473   2.508  51.337  1.00  0.00     0.085 C 
HETATM   13  C10 UNL     1      25.990   1.352  51.777  1.00  0.00     0.017 C 
HETATM   14  C11 UNL     1      24.582   0.968  52.012  1.00  0.00    -0.002 C 
HETATM   15  C12 UNL     1      23.521   1.771  52.194  1.00  0.00    -0.013 C 
HETATM   16  C13 UNL     1      23.613   3.274  52.186  1.00  0.00     0.020 C 
HETATM   17  C14 UNL     1      24.381   3.629  53.440  1.00  0.00     0.024 C 
HETATM   18  C15 UNL     1      22.215   3.825  52.297  1.00  0.00     0.024 C 
HETATM   19  H9  UNL     1      26.335   4.492  50.735  1.00  0.00     0.161 HD
ENDROOT
BRANCH   1  20
HETATM   20  O1  UNL     1      20.494   4.284  47.028  1.00  0.00    -0.356 OA
HETATM   21  C1  UNL     1      19.533   3.290  46.740  1.00  0.00     0.209 C 
ENDBRANCH   1  20
TORSDOF 1
ENDMDL
