MODEL 1
REMARK VINA RESULT:      -7.6      0.000      0.000
REMARK  7 active torsions:
REMARK  status: ('A' for Active; 'I' for Inactive)
REMARK    1  A    between atoms: C1_2  and  C2_3 
REMARK       I    between atoms: C1_2  and  N2_13 
REMARK    2  A    between atoms: C2_3  and  C3_4 
REMARK    3  A    between atoms: C3_4  and  C4_5 
REMARK    4  A    between atoms: C6_8  and  C7_9 
REMARK    5  A    between atoms: C6_8  and  C10_12 
REMARK    6  A    between atoms: N2_13  and  C11_14 
REMARK    7  A    between atoms: C11_14  and  C12_15 
ROOT
HETATM    1  O1  UNL     1      23.631   4.484  51.684  1.00  0.00    -0.274 OA
HETATM    2  C1  UNL     1      24.078   3.558  50.926  1.00  0.00     0.217 C 
HETATM    3  N2  UNL     1      23.325   2.360  50.998  1.00  0.00    -0.357 N 
HETATM    4  H9  UNL     1      23.723   1.660  50.355  1.00  0.00     0.162 HD
ENDROOT
BRANCH   2   5
HETATM    5  C2  UNL     1      25.272   3.982  50.175  1.00  0.00     0.103 C 
BRANCH   5   6
HETATM    6  C3  UNL     1      26.310   2.909  50.192  1.00  0.00     0.022 C 
BRANCH   6   7
HETATM    7  C4  UNL     1      26.695   2.528  51.562  1.00  0.00     0.004 A 
HETATM    8  C5  UNL     1      27.042   1.643  52.451  1.00  0.00     0.035 A 
HETATM    9  N1  UNL     1      27.296   2.476  53.657  1.00  0.00    -0.308 NA
HETATM   10  C9  UNL     1      27.108   0.173  52.385  1.00  0.00     0.003 A 
HETATM   11  C10 UNL     1      26.900   1.202  51.944  1.00  0.00     0.019 A 
HETATM   12  C6  UNL     1      27.807   1.227  53.172  1.00  0.00     0.079 A 
HETATM   13  H5  UNL     1      27.777   2.735  54.544  1.00  0.00     0.123 HD
HETATM   14  C8  UNL     1      27.379  -0.984  53.095  1.00  0.00     0.009 A 
HETATM   15  C7  UNL     1      27.394   0.047  53.919  1.00  0.00     0.022 A 
ENDBRANCH   6   7
ENDBRANCH   5   6
ENDBRANCH   2   5
BRANCH   3  16
HETATM   16  C11 UNL     1      22.195   2.312  51.897  1.00  0.00     0.161 C 
BRANCH  16  17
HETATM   17  C12 UNL     1      22.286   1.182  52.814  1.00  0.00    -0.041 A 
HETATM   18  C13 UNL     1      23.527   0.481  52.875  1.00  0.00     0.009 A 
HETATM   19  C14 UNL     1      23.659  -0.596  53.755  1.00  0.00     0.001 A 
HETATM   20  C15 UNL     1      22.608  -0.970  54.542  1.00  0.00     0.000 A 
HETATM   21  C16 UNL     1      21.312  -0.364  54.588  1.00  0.00     0.001 A 
HETATM   22  C17 UNL     1      21.442   0.641  53.655  1.00  0.00     0.009 A 
ENDBRANCH  16  17
ENDBRANCH   3  16
TORSDOF 7
ENDMDL
MODEL 2
REMARK VINA RESULT:      -7.4      1.756      5.224
REMARK  7 active torsions:
REMARK  status: ('A' for Active; 'I' for Inactive)
REMARK    1  A    between atoms: C1_2  and  C2_3 
REMARK       I    between atoms: C1_2  and  N2_13 
REMARK    2  A    between atoms: C2_3  and  C3_4 
REMARK    3  A    between atoms: C3_4  and  C4_5 
REMARK    4  A    between atoms: C6_8  and  C7_9 
REMARK    5  A    between atoms: C6_8  and  C10_12 
REMARK    6  A    between atoms: N2_13  and  C11_14 
REMARK    7  A    between atoms: C11_14  and  C12_15 
ROOT
HETATM    1  O1  UNL     1      26.507   2.789  51.181  1.00  0.00    -0.274 OA
HETATM    2  C1  UNL     1      25.846   2.736  52.274  1.00  0.00     0.217 C 
HETATM    3  N2  UNL     1      26.641   2.399  53.396  1.00  0.00    -0.357 N 
HETATM    4  H9  UNL     1      26.058   2.389  54.245  1.00  0.00     0.162 HD
ENDROOT
BRANCH   2   5
HETATM    5  C2  UNL     1      24.418   3.037  52.075  1.00  0.00     0.103 C 
BRANCH   5   6
HETATM    6  C3  UNL     1      23.679   1.812  51.650  1.00  0.00     0.022 C 
BRANCH   6   7
HETATM    7  C4  UNL     1      23.664   0.779  52.700  1.00  0.00     0.004 A 
HETATM    8  C5  UNL     1      23.052  -0.119  53.418  1.00  0.00     0.035 A 
HETATM    9  N1  UNL     1      24.156  -0.693  54.231  1.00  0.00    -0.308 NA
HETATM   10  C9  UNL     1      21.626  -0.474  53.519  1.00  0.00     0.003 A 
HETATM   11  C10 UNL     1      22.495   0.134  53.103  1.00  0.00     0.019 A 
HETATM   12  C6  UNL     1      22.912  -1.197  53.726  1.00  0.00     0.079 A 
HETATM   13  H5  UNL     1      24.666  -1.450  54.734  1.00  0.00     0.123 HD
HETATM   14  C8  UNL     1      20.701  -1.286  54.152  1.00  0.00     0.009 A 
HETATM   15  C7  UNL     1      21.880  -1.438  54.725  1.00  0.00     0.022 A 
ENDBRANCH   6   7
ENDBRANCH   5   6
ENDBRANCH   2   5
BRANCH   3  16
HETATM   16  C11 UNL     1      28.049   2.143  53.188  1.00  0.00     0.161 C 
BRANCH  16  17
HETATM   17  C12 UNL     1      28.341   0.714  53.195  1.00  0.00    -0.041 A 
HETATM   18  C13 UNL     1      29.624   0.306  53.666  1.00  0.00     0.009 A 
HETATM   19  C14 UNL     1      29.935  -1.056  53.704  1.00  0.00     0.001 A 
HETATM   20  C15 UNL     1      29.017  -1.979  53.294  1.00  0.00     0.000 A 
HETATM   21  C16 UNL     1      27.698  -1.719  52.802  1.00  0.00     0.001 A 
HETATM   22  C17 UNL     1      27.645  -0.344  52.863  1.00  0.00     0.009 A 
ENDBRANCH  16  17
ENDBRANCH   3  16
TORSDOF 7
ENDMDL
MODEL 3
REMARK VINA RESULT:      -7.2      2.532      5.733
REMARK  7 active torsions:
REMARK  status: ('A' for Active; 'I' for Inactive)
REMARK    1  A    between atoms: C1_2  and  C2_3 
REMARK       I    between atoms: C1_2  and  N2_13 
REMARK    2  A    between atoms: C2_3  and  C3_4 
REMARK    3  A    between atoms: C3_4  and  C4_5 
REMARK    4  A    between atoms: C6_8  and  C7_9 
REMARK    5  A    between atoms: C6_8  and  C10_12 
REMARK    6  A    between atoms: N2_13  and  C11_14 
REMARK    7  A    between atoms: C11_14  and  C12_15 
ROOT
HETATM    1  O1  UNL     1      23.747   2.580  50.732  1.00  0.00    -0.274 OA
HETATM    2  C1  UNL     1      24.634   3.048  51.525  1.00  0.00     0.217 C 
HETATM    3  N2  UNL     1      25.472   4.017  50.922  1.00  0.00    -0.357 N 
HETATM    4  H9  UNL     1      26.152   4.366  51.612  1.00  0.00     0.162 HD
ENDROOT
BRANCH   2   5
HETATM    5  C2  UNL     1      24.553   2.444  52.866  1.00  0.00     0.103 C 
BRANCH   5   6
HETATM    6  C3  UNL     1      25.821   2.675  53.620  1.00  0.00     0.022 C 
BRANCH   6   7
HETATM    7  C4  UNL     1      26.447   1.415  54.056  1.00  0.00     0.004 A 
HETATM    8  C5  UNL     1      27.468   0.612  54.145  1.00  0.00     0.035 A 
HETATM    9  N1  UNL     1      26.932  -0.506  54.965  1.00  0.00    -0.308 NA
HETATM   10  C9  UNL     1      28.813   0.681  53.547  1.00  0.00     0.003 A 
HETATM   11  C10 UNL     1      27.760   1.076  53.730  1.00  0.00     0.019 A 
HETATM   12  C6  UNL     1      28.232   0.067  54.774  1.00  0.00     0.079 A 
HETATM   13  H5  UNL     1      26.982  -1.271  55.671  1.00  0.00     0.123 HD
HETATM   14  C8  UNL     1      30.031   0.037  53.416  1.00  0.00     0.009 A 
HETATM   15  C7  UNL     1      29.181  -0.758  54.039  1.00  0.00     0.022 A 
ENDBRANCH   6   7
ENDBRANCH   5   6
ENDBRANCH   2   5
BRANCH   3  16
HETATM   16  C11 UNL     1      25.254   4.343  49.531  1.00  0.00     0.161 C 
BRANCH  16  17
HETATM   17  C12 UNL     1      26.378   5.085  48.971  1.00  0.00    -0.041 A 
HETATM   18  C13 UNL     1      26.142   6.432  48.565  1.00  0.00     0.009 A 
HETATM   19  C14 UNL     1      27.198   7.182  48.041  1.00  0.00     0.001 A 
HETATM   20  C15 UNL     1      28.438   6.624  47.920  1.00  0.00     0.000 A 
HETATM   21  C16 UNL     1      28.821   5.294  48.284  1.00  0.00     0.001 A 
HETATM   22  C17 UNL     1      27.633   4.783  48.759  1.00  0.00     0.009 A 
ENDBRANCH  16  17
ENDBRANCH   3  16
TORSDOF 7
ENDMDL
MODEL 4
REMARK VINA RESULT:      -7.0      1.705      4.791
REMARK  7 active torsions:
REMARK  status: ('A' for Active; 'I' for Inactive)
REMARK    1  A    between atoms: C1_2  and  C2_3 
REMARK       I    between atoms: C1_2  and  N2_13 
REMARK    2  A    between atoms: C2_3  and  C3_4 
REMARK    3  A    between atoms: C3_4  and  C4_5 
REMARK    4  A    between atoms: C6_8  and  C7_9 
REMARK    5  A    between atoms: C6_8  and  C10_12 
REMARK    6  A    between atoms: N2_13  and  C11_14 
REMARK    7  A    between atoms: C11_14  and  C12_15 
ROOT
HETATM    1  O1  UNL     1      22.491   3.231  52.321  1.00  0.00    -0.274 OA
HETATM    2  C1  UNL     1      22.536   2.520  51.260  1.00  0.00     0.217 C 
HETATM    3  N2  UNL     1      23.854   2.226  50.835  1.00  0.00    -0.357 N 
HETATM    4  H9  UNL     1      23.824   1.639  49.989  1.00  0.00     0.162 HD
ENDROOT
BRANCH   2   5
HETATM    5  C2  UNL     1      21.191   2.196  50.752  1.00  0.00     0.103 C 
BRANCH   5   6
HETATM    6  C3  UNL     1      20.969   0.720  50.764  1.00  0.00     0.022 C 
BRANCH   6   7
HETATM    7  C4  UNL     1      20.805   0.192  52.129  1.00  0.00     0.004 A 
HETATM    8  C5  UNL     1      21.289  -0.252  53.253  1.00  0.00     0.035 A 
HETATM    9  N1  UNL     1      20.067  -0.457  54.075  1.00  0.00    -0.308 NA
HETATM   10  C9  UNL     1      22.669  -0.576  53.656  1.00  0.00     0.003 A 
HETATM   11  C10 UNL     1      21.885  -0.219  52.911  1.00  0.00     0.019 A 
HETATM   12  C6  UNL     1      21.435  -0.140  54.369  1.00  0.00     0.079 A 
HETATM   13  H5  UNL     1      19.511  -0.473  54.957  1.00  0.00     0.123 HD
HETATM   14  C8  UNL     1      23.469  -1.061  54.676  1.00  0.00     0.009 A 
HETATM   15  C7  UNL     1      22.200  -1.199  55.013  1.00  0.00     0.022 A 
ENDBRANCH   6   7
ENDBRANCH   5   6
ENDBRANCH   2   5
BRANCH   3  16
HETATM   16  C11 UNL     1      24.958   2.757  51.603  1.00  0.00     0.161 C 
BRANCH  16  17
HETATM   17  C12 UNL     1      25.654   1.707  52.338  1.00  0.00    -0.041 A 
HETATM   18  C13 UNL     1      25.932   1.941  53.717  1.00  0.00     0.009 A 
HETATM   19  C14 UNL     1      26.582   0.952  54.459  1.00  0.00     0.001 A 
HETATM   20  C15 UNL     1      26.944  -0.222  53.865  1.00  0.00     0.000 A 
HETATM   21  C16 UNL     1      26.730  -0.596  52.500  1.00  0.00     0.001 A 
HETATM   22  C17 UNL     1      26.093   0.520  52.004  1.00  0.00     0.009 A 
ENDBRANCH  16  17
ENDBRANCH   3  16
TORSDOF 7
ENDMDL
MODEL 5
REMARK VINA RESULT:      -6.8      2.734      6.595
REMARK  7 active torsions:
REMARK  status: ('A' for Active; 'I' for Inactive)
REMARK    1  A    between atoms: C1_2  and  C2_3 
REMARK       I    between atoms: C1_2  and  N2_13 
REMARK    2  A    between atoms: C2_3  and  C3_4 
REMARK    3  A    between atoms: C3_4  and  C4_5 
REMARK    4  A    between atoms: C6_8  and  C7_9 
REMARK    5  A    between atoms: C6_8  and  C10_12 
REMARK    6  A    between atoms: N2_13  and  C11_14 
REMARK    7  A    between atoms: C11_14  and  C12_15 
ROOT
HETATM    1  O1  UNL     1      24.496   3.227  49.472  1.00  0.00    -0.274 OA
HETATM    2  C1  UNL     1      24.966   3.632  50.589  1.00  0.00     0.217 C 
HETATM    3  N2  UNL     1      26.324   4.027  50.516  1.00  0.00    -0.357 N 
HETATM    4  H9  UNL     1      26.640   4.358  51.439  1.00  0.00     0.162 HD
ENDROOT
BRANCH   2   5
HETATM    5  C2  UNL     1      23.965   3.574  51.668  1.00  0.00     0.103 C 
BRANCH   5   6
HETATM    6  C3  UNL     1      23.135   2.339  51.546  1.00  0.00     0.022 C 
BRANCH   6   7
HETATM    7  C4  UNL     1      23.543   1.297  52.502  1.00  0.00     0.004 A 
HETATM    8  C5  UNL     1      23.273   0.319  53.318  1.00  0.00     0.035 A 
HETATM    9  N1  UNL     1      24.624  -0.125  53.753  1.00  0.00    -0.308 NA
HETATM   10  C9  UNL     1      21.988  -0.214  53.803  1.00  0.00     0.003 A 
HETATM   11  C10 UNL     1      22.623   0.504  53.189  1.00  0.00     0.019 A 
HETATM   12  C6  UNL     1      23.354  -0.773  53.599  1.00  0.00     0.079 A 
HETATM   13  H5  UNL     1      25.341  -0.819  54.052  1.00  0.00     0.123 HD
HETATM   14  C8  UNL     1      21.385  -1.144  54.632  1.00  0.00     0.009 A 
HETATM   15  C7  UNL     1      22.689  -1.156  54.837  1.00  0.00     0.022 A 
ENDBRANCH   6   7
ENDBRANCH   5   6
ENDBRANCH   2   5
BRANCH   3  16
HETATM   16  C11 UNL     1      27.005   3.916  49.246  1.00  0.00     0.161 C 
BRANCH  16  17
HETATM   17  C12 UNL     1      27.294   5.226  48.675  1.00  0.00    -0.041 A 
HETATM   18  C13 UNL     1      28.639   5.491  48.282  1.00  0.00     0.009 A 
HETATM   19  C14 UNL     1      28.952   6.729  47.714  1.00  0.00     0.001 A 
HETATM   20  C15 UNL     1      27.977   7.669  47.543  1.00  0.00     0.000 A 
HETATM   21  C16 UNL     1      26.594   7.544  47.887  1.00  0.00     0.001 A 
HETATM   22  C17 UNL     1      26.552   6.271  48.411  1.00  0.00     0.009 A 
ENDBRANCH  16  17
ENDBRANCH   3  16
TORSDOF 7
ENDMDL
MODEL 6
REMARK VINA RESULT:      -6.7      3.247      4.790
REMARK  7 active torsions:
REMARK  status: ('A' for Active; 'I' for Inactive)
REMARK    1  A    between atoms: C1_2  and  C2_3 
REMARK       I    between atoms: C1_2  and  N2_13 
REMARK    2  A    between atoms: C2_3  and  C3_4 
REMARK    3  A    between atoms: C3_4  and  C4_5 
REMARK    4  A    between atoms: C6_8  and  C7_9 
REMARK    5  A    between atoms: C6_8  and  C10_12 
REMARK    6  A    between atoms: N2_13  and  C11_14 
REMARK    7  A    between atoms: C11_14  and  C12_15 
ROOT
HETATM    1  O1  UNL     1      26.592   2.131  51.303  1.00  0.00    -0.274 OA
HETATM    2  C1  UNL     1      25.391   2.492  51.058  1.00  0.00     0.217 C 
HETATM    3  N2  UNL     1      24.421   1.721  51.745  1.00  0.00    -0.357 N 
HETATM    4  H9  UNL     1      23.479   2.070  51.521  1.00  0.00     0.162 HD
ENDROOT
BRANCH   2   5
HETATM    5  C2  UNL     1      25.332   3.621  50.113  1.00  0.00     0.103 C 
BRANCH   5   6
HETATM    6  C3  UNL     1      26.528   3.618  49.219  1.00  0.00     0.022 C 
BRANCH   6   7
HETATM    7  C4  UNL     1      27.110   4.961  49.063  1.00  0.00     0.004 A 
HETATM    8  C5  UNL     1      28.044   5.765  48.643  1.00  0.00     0.035 A 
HETATM    9  N1  UNL     1      27.511   7.104  49.008  1.00  0.00    -0.308 NA
HETATM   10  C9  UNL     1      29.357   5.493  48.031  1.00  0.00     0.003 A 
HETATM   11  C10 UNL     1      28.363   5.175  48.487  1.00  0.00     0.019 A 
HETATM   12  C6  UNL     1      28.377   6.614  47.976  1.00  0.00     0.079 A 
HETATM   13  H5  UNL     1      27.354   8.126  48.884  1.00  0.00     0.123 HD
HETATM   14  C8  UNL     1      30.518   6.061  47.535  1.00  0.00     0.009 A 
HETATM   15  C7  UNL     1      29.777   6.999  48.097  1.00  0.00     0.022 A 
ENDBRANCH   6   7
ENDBRANCH   5   6
ENDBRANCH   2   5
BRANCH   3  16
HETATM   16  C11 UNL     1      24.876   0.645  52.595  1.00  0.00     0.161 C 
BRANCH  16  17
HETATM   17  C12 UNL     1      23.765   0.004  53.290  1.00  0.00    -0.041 A 
HETATM   18  C13 UNL     1      22.470   0.112  52.702  1.00  0.00     0.009 A 
HETATM   19  C14 UNL     1      21.383  -0.503  53.329  1.00  0.00     0.001 A 
HETATM   20  C15 UNL     1      21.566  -1.196  54.490  1.00  0.00     0.000 A 
HETATM   21  C16 UNL     1      22.800  -1.389  55.190  1.00  0.00     0.001 A 
HETATM   22  C17 UNL     1      23.684  -0.703  54.388  1.00  0.00     0.009 A 
ENDBRANCH  16  17
ENDBRANCH   3  16
TORSDOF 7
ENDMDL
MODEL 7
REMARK VINA RESULT:      -6.7      2.128      4.413
REMARK  7 active torsions:
REMARK  status: ('A' for Active; 'I' for Inactive)
REMARK    1  A    between atoms: C1_2  and  C2_3 
REMARK       I    between atoms: C1_2  and  N2_13 
REMARK    2  A    between atoms: C2_3  and  C3_4 
REMARK    3  A    between atoms: C3_4  and  C4_5 
REMARK    4  A    between atoms: C6_8  and  C7_9 
REMARK    5  A    between atoms: C6_8  and  C10_12 
REMARK    6  A    between atoms: N2_13  and  C11_14 
REMARK    7  A    between atoms: C11_14  and  C12_15 
ROOT
HETATM    1  O1  UNL     1      20.763   0.605  54.011  1.00  0.00    -0.274 OA
HETATM    2  C1  UNL     1      21.694  -0.258  53.860  1.00  0.00     0.217 C 
HETATM    3  N2  UNL     1      22.037  -0.483  52.505  1.00  0.00    -0.357 N 
HETATM    4  H9  UNL     1      22.801  -1.172  52.450  1.00  0.00     0.162 HD
ENDROOT
BRANCH   2   5
HETATM    5  C2  UNL     1      22.164  -0.799  55.147  1.00  0.00     0.103 C 
BRANCH   5   6
HETATM    6  C3  UNL     1      23.387  -1.632  54.949  1.00  0.00     0.022 C 
BRANCH   6   7
HETATM    7  C4  UNL     1      24.610  -0.815  54.872  1.00  0.00     0.004 A 
HETATM    8  C5  UNL     1      25.558  -0.229  54.198  1.00  0.00     0.035 A 
HETATM    9  N1  UNL     1      26.325   0.475  55.259  1.00  0.00    -0.308 NA
HETATM   10  C9  UNL     1      25.900  -0.273  52.765  1.00  0.00     0.003 A 
HETATM   11  C10 UNL     1      25.272  -0.564  53.669  1.00  0.00     0.019 A 
HETATM   12  C6  UNL     1      26.083   0.715  53.866  1.00  0.00     0.079 A 
HETATM   13  H5  UNL     1      26.898   1.248  55.657  1.00  0.00     0.123 HD
HETATM   14  C8  UNL     1      26.787   0.164  51.797  1.00  0.00     0.009 A 
HETATM   15  C7  UNL     1      27.230   0.522  52.988  1.00  0.00     0.022 A 
ENDBRANCH   6   7
ENDBRANCH   5   6
ENDBRANCH   2   5
BRANCH   3  16
HETATM   16  C11 UNL     1      21.315   0.241  51.484  1.00  0.00     0.161 C 
BRANCH  16  17
HETATM   17  C12 UNL     1      22.179   1.183  50.781  1.00  0.00    -0.041 A 
HETATM   18  C13 UNL     1      21.780   1.594  49.475  1.00  0.00     0.009 A 
HETATM   19  C14 UNL     1      22.572   2.509  48.776  1.00  0.00     0.001 A 
HETATM   20  C15 UNL     1      23.714   2.998  49.343  1.00  0.00     0.000 A 
HETATM   21  C16 UNL     1      24.235   2.679  50.638  1.00  0.00     0.001 A 
HETATM   22  C17 UNL     1      23.296   1.785  51.102  1.00  0.00     0.009 A 
ENDBRANCH  16  17
ENDBRANCH   3  16
TORSDOF 7
ENDMDL
MODEL 8
REMARK VINA RESULT:      -6.6      2.101      4.613
REMARK  7 active torsions:
REMARK  status: ('A' for Active; 'I' for Inactive)
REMARK    1  A    between atoms: C1_2  and  C2_3 
REMARK       I    between atoms: C1_2  and  N2_13 
REMARK    2  A    between atoms: C2_3  and  C3_4 
REMARK    3  A    between atoms: C3_4  and  C4_5 
REMARK    4  A    between atoms: C6_8  and  C7_9 
REMARK    5  A    between atoms: C6_8  and  C10_12 
REMARK    6  A    between atoms: N2_13  and  C11_14 
REMARK    7  A    between atoms: C11_14  and  C12_15 
ROOT
HETATM    1  O1  UNL     1      26.114   1.987  52.024  1.00  0.00    -0.274 OA
HETATM    2  C1  UNL     1      25.652   1.876  53.211  1.00  0.00     0.217 C 
HETATM    3  N2  UNL     1      24.532   2.707  53.457  1.00  0.00    -0.357 N 
HETATM    4  H9  UNL     1      24.196   2.562  54.420  1.00  0.00     0.162 HD
ENDROOT
BRANCH   2   5
HETATM    5  C2  UNL     1      26.418   0.910  54.018  1.00  0.00     0.103 C 
BRANCH   5   6
HETATM    6  C3  UNL     1      25.963  -0.483  53.735  1.00  0.00     0.022 C 
BRANCH   6   7
HETATM    7  C4  UNL     1      24.727  -0.824  54.461  1.00  0.00     0.004 A 
HETATM    8  C5  UNL     1      23.430  -0.895  54.546  1.00  0.00     0.035 A 
HETATM    9  N1  UNL     1      23.227  -1.554  55.864  1.00  0.00    -0.308 NA
HETATM   10  C9  UNL     1      22.369  -0.399  53.653  1.00  0.00     0.003 A 
HETATM   11  C10 UNL     1      23.457  -0.552  53.951  1.00  0.00     0.019 A 
HETATM   12  C6  UNL     1      22.488  -1.513  54.635  1.00  0.00     0.079 A 
HETATM   13  H5  UNL     1      22.745  -2.177  56.546  1.00  0.00     0.123 HD
HETATM   14  C8  UNL     1      21.002  -0.282  53.470  1.00  0.00     0.009 A 
HETATM   15  C7  UNL     1      21.242  -0.758  54.677  1.00  0.00     0.022 A 
ENDBRANCH   6   7
ENDBRANCH   5   6
ENDBRANCH   2   5
BRANCH   3  16
HETATM   16  C11 UNL     1      24.066   3.566  52.392  1.00  0.00     0.161 C 
BRANCH  16  17
HETATM   17  C12 UNL     1      22.785   3.116  51.861  1.00  0.00    -0.041 A 
HETATM   18  C13 UNL     1      22.806   2.096  50.865  1.00  0.00     0.009 A 
HETATM   19  C14 UNL     1      21.598   1.626  50.344  1.00  0.00     0.001 A 
HETATM   20  C15 UNL     1      20.415   2.142  50.788  1.00  0.00     0.000 A 
HETATM   21  C16 UNL     1      20.240   3.161  51.778  1.00  0.00     0.001 A 
HETATM   22  C17 UNL     1      21.544   3.444  52.118  1.00  0.00     0.009 A 
ENDBRANCH  16  17
ENDBRANCH   3  16
TORSDOF 7
ENDMDL
MODEL 9
REMARK VINA RESULT:      -6.5      3.298      6.544
REMARK  7 active torsions:
REMARK  status: ('A' for Active; 'I' for Inactive)
REMARK    1  A    between atoms: C1_2  and  C2_3 
REMARK       I    between atoms: C1_2  and  N2_13 
REMARK    2  A    between atoms: C2_3  and  C3_4 
REMARK    3  A    between atoms: C3_4  and  C4_5 
REMARK    4  A    between atoms: C6_8  and  C7_9 
REMARK    5  A    between atoms: C6_8  and  C10_12 
REMARK    6  A    between atoms: N2_13  and  C11_14 
REMARK    7  A    between atoms: C11_14  and  C12_15 
ROOT
HETATM    1  O1  UNL     1      24.500   4.846  50.048  1.00  0.00    -0.274 OA
HETATM    2  C1  UNL     1      25.548   4.130  50.197  1.00  0.00     0.217 C 
HETATM    3  N2  UNL     1      26.690   4.665  49.554  1.00  0.00    -0.357 N 
HETATM    4  H9  UNL     1      27.502   4.054  49.724  1.00  0.00     0.162 HD
ENDROOT
BRANCH   2   5
HETATM    5  C2  UNL     1      25.286   2.923  51.000  1.00  0.00     0.103 C 
BRANCH   5   6
HETATM    6  C3  UNL     1      26.510   2.073  51.081  1.00  0.00     0.022 C 
BRANCH   6   7
HETATM    7  C4  UNL     1      26.839   1.700  52.467  1.00  0.00     0.004 A 
HETATM    8  C5  UNL     1      27.575   1.082  53.345  1.00  0.00     0.035 A 
HETATM    9  N1  UNL     1      26.969   1.506  54.635  1.00  0.00    -0.308 NA
HETATM   10  C9  UNL     1      28.684   0.126  53.181  1.00  0.00     0.003 A 
HETATM   11  C10 UNL     1      27.872   0.817  52.783  1.00  0.00     0.019 A 
HETATM   12  C6  UNL     1      28.286   1.113  54.223  1.00  0.00     0.079 A 
HETATM   13  H5  UNL     1      26.978   1.769  55.643  1.00  0.00     0.123 HD
HETATM   14  C8  UNL     1      29.592  -0.684  53.842  1.00  0.00     0.009 A 
HETATM   15  C7  UNL     1      28.738  -0.181  54.715  1.00  0.00     0.022 A 
ENDBRANCH   6   7
ENDBRANCH   5   6
ENDBRANCH   2   5
BRANCH   3  16
HETATM   16  C11 UNL     1      26.548   5.899  48.816  1.00  0.00     0.161 C 
BRANCH  16  17
HETATM   17  C12 UNL     1      27.813   6.320  48.225  1.00  0.00    -0.041 A 
HETATM   18  C13 UNL     1      28.931   5.445  48.369  1.00  0.00     0.009 A 
HETATM   19  C14 UNL     1      30.156   5.805  47.802  1.00  0.00     0.001 A 
HETATM   20  C15 UNL     1      30.275   6.982  47.120  1.00  0.00     0.000 A 
HETATM   21  C16 UNL     1      29.247   7.952  46.895  1.00  0.00     0.001 A 
HETATM   22  C17 UNL     1      28.175   7.373  47.538  1.00  0.00     0.009 A 
ENDBRANCH  16  17
ENDBRANCH   3  16
TORSDOF 7
ENDMDL
