MODEL 1
REMARK VINA RESULT:      -8.3      0.000      0.000
REMARK  2 active torsions:
REMARK  status: ('A' for Active; 'I' for Inactive)
REMARK    1  A    between atoms: N1_1  and  C1_2 
REMARK    2  A    between atoms: C4_5  and  C5_6 
ROOT
HETATM    1  C1  UNL     1      23.467   0.989  52.838  1.00  0.00     0.118 C 
HETATM    2  C2  UNL     1      24.598   0.543  53.414  1.00  0.00     0.024 C 
HETATM    3  C3  UNL     1      25.610   1.338  54.091  1.00  0.00     0.044 C 
HETATM    4  C4  UNL     1      26.970   1.354  53.477  1.00  0.00     0.044 C 
HETATM    5  C11 UNL     1      27.046   2.148  52.238  1.00  0.00    -0.021 C 
HETATM    6  C12 UNL     1      26.594   2.290  51.014  1.00  0.00    -0.028 C 
HETATM    7  C13 UNL     1      26.587   3.019  49.717  1.00  0.00     0.053 C 
HETATM    8  C14 UNL     1      25.166   3.547  49.441  1.00  0.00     0.180 C 
HETATM    9  O1  UNL     1      24.844   4.382  50.530  1.00  0.00    -0.344 OA
HETATM   10  C15 UNL     1      23.592   4.923  50.641  1.00  0.00     0.252 C 
HETATM   11  N2  UNL     1      22.618   4.339  51.284  1.00  0.00    -0.230 NA
HETATM   12  C16 UNL     1      22.940   3.070  51.879  1.00  0.00     0.237 C 
HETATM   13  N3  UNL     1      23.333   2.404  52.924  1.00  0.00    -0.225 NA
ENDROOT
BRANCH   4  14
HETATM   14  C5  UNL     1      27.652   0.086  53.319  1.00  0.00    -0.050 A 
HETATM   15  C6  UNL     1      27.074  -1.062  52.815  1.00  0.00     0.008 A 
HETATM   16  C7  UNL     1      27.713  -2.274  52.664  1.00  0.00     0.001 A 
HETATM   17  C8  UNL     1      29.037  -2.388  53.033  1.00  0.00     0.000 A 
HETATM   18  C9  UNL     1      29.692  -1.304  53.540  1.00  0.00     0.001 A 
HETATM   19  C10 UNL     1      28.995  -0.127  53.666  1.00  0.00     0.008 A 
ENDBRANCH   4  14
BRANCH   1  20
HETATM   20  N1  UNL     1      22.383   0.361  52.144  1.00  0.00    -0.384 N 
HETATM   21  H1  UNL     1      22.166  -0.662  52.184  1.00  0.00     0.157 HD
HETATM   22  H2  UNL     1      21.748   0.938  51.550  1.00  0.00     0.157 HD
ENDBRANCH   1  20
TORSDOF 2
ENDMDL
MODEL 2
REMARK VINA RESULT:      -8.0      2.294      4.096
REMARK  2 active torsions:
REMARK  status: ('A' for Active; 'I' for Inactive)
REMARK    1  A    between atoms: N1_1  and  C1_2 
REMARK    2  A    between atoms: C4_5  and  C5_6 
ROOT
HETATM    1  C1  UNL     1      23.340   3.762  52.305  1.00  0.00     0.118 C 
HETATM    2  C2  UNL     1      24.567   3.230  52.166  1.00  0.00     0.024 C 
HETATM    3  C3  UNL     1      24.948   2.111  51.320  1.00  0.00     0.044 C 
HETATM    4  C4  UNL     1      25.457   0.890  52.013  1.00  0.00     0.044 C 
HETATM    5  C11 UNL     1      24.404   0.127  52.706  1.00  0.00    -0.021 C 
HETATM    6  C12 UNL     1      23.481   0.156  53.638  1.00  0.00    -0.028 C 
HETATM    7  C13 UNL     1      22.396  -0.515  54.403  1.00  0.00     0.053 C 
HETATM    8  C14 UNL     1      21.081   0.262  54.206  1.00  0.00     0.180 C 
HETATM    9  O1  UNL     1      20.837   0.267  52.818  1.00  0.00    -0.344 OA
HETATM   10  C15 UNL     1      19.791   0.982  52.301  1.00  0.00     0.252 C 
HETATM   11  N2  UNL     1      19.900   2.223  51.908  1.00  0.00    -0.230 NA
HETATM   12  C16 UNL     1      21.206   2.806  52.053  1.00  0.00     0.237 C 
HETATM   13  N3  UNL     1      22.361   3.084  51.524  1.00  0.00    -0.225 NA
ENDROOT
BRANCH   4  14
HETATM   14  C5  UNL     1      26.628   1.033  52.853  1.00  0.00    -0.050 A 
HETATM   15  C6  UNL     1      27.517   2.088  52.793  1.00  0.00     0.008 A 
HETATM   16  C7  UNL     1      28.635   2.231  53.586  1.00  0.00     0.001 A 
HETATM   17  C8  UNL     1      28.922   1.265  54.527  1.00  0.00     0.000 A 
HETATM   18  C9  UNL     1      28.098   0.186  54.660  1.00  0.00     0.001 A 
HETATM   19  C10 UNL     1      27.001   0.104  53.837  1.00  0.00     0.008 A 
ENDBRANCH   4  14
BRANCH   1  20
HETATM   20  N1  UNL     1      22.799   4.842  53.075  1.00  0.00    -0.384 N 
HETATM   21  H1  UNL     1      23.303   5.735  53.280  1.00  0.00     0.157 HD
HETATM   22  H2  UNL     1      21.837   4.760  53.471  1.00  0.00     0.157 HD
ENDBRANCH   1  20
TORSDOF 2
ENDMDL
MODEL 3
REMARK VINA RESULT:      -7.9      2.296      5.855
REMARK  2 active torsions:
REMARK  status: ('A' for Active; 'I' for Inactive)
REMARK    1  A    between atoms: N1_1  and  C1_2 
REMARK    2  A    between atoms: C4_5  and  C5_6 
ROOT
HETATM    1  C1  UNL     1      23.318   4.351  51.638  1.00  0.00     0.118 C 
HETATM    2  C2  UNL     1      23.990   4.727  50.536  1.00  0.00     0.024 C 
HETATM    3  C3  UNL     1      24.358   3.892  49.404  1.00  0.00     0.044 C 
HETATM    4  C4  UNL     1      25.818   3.700  49.160  1.00  0.00     0.044 C 
HETATM    5  C11 UNL     1      26.465   2.812  50.143  1.00  0.00    -0.021 C 
HETATM    6  C12 UNL     1      26.748   2.623  51.410  1.00  0.00    -0.028 C 
HETATM    7  C13 UNL     1      27.366   1.805  52.487  1.00  0.00     0.053 C 
HETATM    8  C14 UNL     1      26.280   1.396  53.500  1.00  0.00     0.180 C 
HETATM    9  O1  UNL     1      25.315   0.679  52.765  1.00  0.00    -0.344 OA
HETATM   10  C15 UNL     1      24.153   0.269  53.362  1.00  0.00     0.252 C 
HETATM   11  N2  UNL     1      23.065   0.991  53.373  1.00  0.00    -0.230 NA
HETATM   12  C16 UNL     1      23.158   2.264  52.710  1.00  0.00     0.237 C 
HETATM   13  N3  UNL     1      22.989   2.965  51.628  1.00  0.00    -0.225 NA
ENDROOT
BRANCH   4  14
HETATM   14  C5  UNL     1      26.622   4.882  48.925  1.00  0.00    -0.050 A 
HETATM   15  C6  UNL     1      26.163   6.180  49.027  1.00  0.00     0.008 A 
HETATM   16  C7  UNL     1      26.919   7.310  48.803  1.00  0.00     0.001 A 
HETATM   17  C8  UNL     1      28.245   7.175  48.446  1.00  0.00     0.000 A 
HETATM   18  C9  UNL     1      28.786   5.928  48.322  1.00  0.00     0.001 A 
HETATM   19  C10 UNL     1      27.977   4.844  48.559  1.00  0.00     0.008 A 
ENDBRANCH   4  14
BRANCH   1  20
HETATM   20  N1  UNL     1      22.879   5.026  52.822  1.00  0.00    -0.384 N 
HETATM   21  H1  UNL     1      22.055   4.739  53.398  1.00  0.00     0.157 HD
HETATM   22  H2  UNL     1      23.399   5.867  53.157  1.00  0.00     0.157 HD
ENDBRANCH   1  20
TORSDOF 2
ENDMDL
MODEL 4
REMARK VINA RESULT:      -7.7      3.260      4.849
REMARK  2 active torsions:
REMARK  status: ('A' for Active; 'I' for Inactive)
REMARK    1  A    between atoms: N1_1  and  C1_2 
REMARK    2  A    between atoms: C4_5  and  C5_6 
ROOT
HETATM    1  C1  UNL     1      23.786   4.299  52.583  1.00  0.00     0.118 C 
HETATM    2  C2  UNL     1      24.121   3.008  52.760  1.00  0.00     0.024 C 
HETATM    3  C3  UNL     1      24.134   1.960  51.752  1.00  0.00     0.044 C 
HETATM    4  C4  UNL     1      23.181   0.828  51.950  1.00  0.00     0.044 C 
HETATM    5  C11 UNL     1      21.777   1.190  51.686  1.00  0.00    -0.021 C 
HETATM    6  C12 UNL     1      20.777   1.968  52.027  1.00  0.00    -0.028 C 
HETATM    7  C13 UNL     1      19.370   2.416  51.847  1.00  0.00     0.053 C 
HETATM    8  C14 UNL     1      19.358   3.913  51.485  1.00  0.00     0.180 C 
HETATM    9  O1  UNL     1      20.117   4.033  50.303  1.00  0.00    -0.344 OA
HETATM   10  C15 UNL     1      20.392   5.267  49.779  1.00  0.00     0.252 C 
HETATM   11  N2  UNL     1      21.460   5.951  50.089  1.00  0.00    -0.230 NA
HETATM   12  C16 UNL     1      22.346   5.323  51.031  1.00  0.00     0.237 C 
HETATM   13  N3  UNL     1      23.394   4.582  51.244  1.00  0.00    -0.225 NA
ENDROOT
BRANCH   4  14
HETATM   14  C5  UNL     1      23.294   0.060  53.173  1.00  0.00    -0.050 A 
HETATM   15  C6  UNL     1      24.486  -0.283  53.781  1.00  0.00     0.008 A 
HETATM   16  C7  UNL     1      24.603  -1.015  54.942  1.00  0.00     0.001 A 
HETATM   17  C8  UNL     1      23.463  -1.459  55.578  1.00  0.00     0.000 A 
HETATM   18  C9  UNL     1      22.239  -1.167  55.050  1.00  0.00     0.001 A 
HETATM   19  C10 UNL     1      22.193  -0.434  53.889  1.00  0.00     0.008 A 
ENDBRANCH   4  14
BRANCH   1  20
HETATM   20  N1  UNL     1      23.720   5.441  53.444  1.00  0.00    -0.384 N 
HETATM   21  H1  UNL     1      24.550   5.991  53.766  1.00  0.00     0.157 HD
HETATM   22  H2  UNL     1      22.793   5.772  53.790  1.00  0.00     0.157 HD
ENDBRANCH   1  20
TORSDOF 2
ENDMDL
MODEL 5
REMARK VINA RESULT:      -7.3      3.803      5.178
REMARK  2 active torsions:
REMARK  status: ('A' for Active; 'I' for Inactive)
REMARK    1  A    between atoms: N1_1  and  C1_2 
REMARK    2  A    between atoms: C4_5  and  C5_6 
ROOT
HETATM    1  C1  UNL     1      22.907   4.884  51.640  1.00  0.00     0.118 C 
HETATM    2  C2  UNL     1      23.196   3.730  52.269  1.00  0.00     0.024 C 
HETATM    3  C3  UNL     1      24.048   2.656  51.784  1.00  0.00     0.044 C 
HETATM    4  C4  UNL     1      23.391   1.338  51.539  1.00  0.00     0.044 C 
HETATM    5  C11 UNL     1      22.534   1.323  50.340  1.00  0.00    -0.021 C 
HETATM    6  C12 UNL     1      21.485   1.848  49.753  1.00  0.00    -0.028 C 
HETATM    7  C13 UNL     1      20.556   1.921  48.594  1.00  0.00     0.053 C 
HETATM    8  C14 UNL     1      20.596   3.342  48.001  1.00  0.00     0.180 C 
HETATM    9  O1  UNL     1      21.936   3.571  47.631  1.00  0.00    -0.344 OA
HETATM   10  C15 UNL     1      22.327   4.799  47.171  1.00  0.00     0.252 C 
HETATM   11  N2  UNL     1      22.773   5.745  47.953  1.00  0.00    -0.230 NA
HETATM   12  C16 UNL     1      22.830   5.418  49.352  1.00  0.00     0.237 C 
HETATM   13  N3  UNL     1      23.522   4.975  50.360  1.00  0.00    -0.225 NA
ENDROOT
BRANCH   4  14
HETATM   14  C5  UNL     1      22.726   0.701  52.657  1.00  0.00    -0.050 A 
HETATM   15  C6  UNL     1      21.439   0.980  53.071  1.00  0.00     0.008 A 
HETATM   16  C7  UNL     1      20.798   0.382  54.134  1.00  0.00     0.001 A 
HETATM   17  C8  UNL     1      21.464  -0.578  54.869  1.00  0.00     0.000 A 
HETATM   18  C9  UNL     1      22.742  -0.919  54.532  1.00  0.00     0.001 A 
HETATM   19  C10 UNL     1      23.321  -0.283  53.462  1.00  0.00     0.008 A 
ENDBRANCH   4  14
BRANCH   1  20
HETATM   20  N1  UNL     1      22.107   6.026  51.965  1.00  0.00    -0.384 N 
HETATM   21  H1  UNL     1      21.808   6.756  51.278  1.00  0.00     0.157 HD
HETATM   22  H2  UNL     1      21.784   6.166  52.947  1.00  0.00     0.157 HD
ENDBRANCH   1  20
TORSDOF 2
ENDMDL
MODEL 6
REMARK VINA RESULT:      -7.3      2.123      3.077
REMARK  2 active torsions:
REMARK  status: ('A' for Active; 'I' for Inactive)
REMARK    1  A    between atoms: N1_1  and  C1_2 
REMARK    2  A    between atoms: C4_5  and  C5_6 
ROOT
HETATM    1  C1  UNL     1      21.675   1.648  49.868  1.00  0.00     0.118 C 
HETATM    2  C2  UNL     1      22.306   1.176  50.957  1.00  0.00     0.024 C 
HETATM    3  C3  UNL     1      22.452   1.838  52.244  1.00  0.00     0.044 C 
HETATM    4  C4  UNL     1      23.841   2.181  52.667  1.00  0.00     0.044 C 
HETATM    5  C11 UNL     1      24.422   3.310  51.918  1.00  0.00    -0.021 C 
HETATM    6  C12 UNL     1      24.772   3.758  50.736  1.00  0.00    -0.028 C 
HETATM    7  C13 UNL     1      25.342   4.832  49.879  1.00  0.00     0.053 C 
HETATM    8  C14 UNL     1      24.290   5.263  48.840  1.00  0.00     0.180 C 
HETATM    9  O1  UNL     1      23.172   5.699  49.577  1.00  0.00    -0.344 OA
HETATM   10  C15 UNL     1      22.013   6.046  48.938  1.00  0.00     0.252 C 
HETATM   11  N2  UNL     1      21.051   5.197  48.694  1.00  0.00    -0.230 NA
HETATM   12  C16 UNL     1      21.284   3.851  49.144  1.00  0.00     0.237 C 
HETATM   13  N3  UNL     1      21.138   2.951  50.071  1.00  0.00    -0.225 NA
ENDROOT
BRANCH   4  14
HETATM   14  C5  UNL     1      24.794   1.097  52.787  1.00  0.00    -0.050 A 
HETATM   15  C6  UNL     1      24.704   0.065  53.700  1.00  0.00     0.008 A 
HETATM   16  C7  UNL     1      25.606  -0.968  53.824  1.00  0.00     0.001 A 
HETATM   17  C8  UNL     1      26.701  -1.011  52.986  1.00  0.00     0.000 A 
HETATM   18  C9  UNL     1      26.874  -0.032  52.050  1.00  0.00     0.001 A 
HETATM   19  C10 UNL     1      25.937   0.969  51.982  1.00  0.00     0.008 A 
ENDBRANCH   4  14
BRANCH   1  20
HETATM   20  N1  UNL     1      21.440   1.141  48.549  1.00  0.00    -0.384 N 
HETATM   21  H1  UNL     1      22.192   0.900  47.864  1.00  0.00     0.157 HD
HETATM   22  H2  UNL     1      20.460   0.991  48.223  1.00  0.00     0.157 HD
ENDBRANCH   1  20
TORSDOF 2
ENDMDL
MODEL 7
REMARK VINA RESULT:      -7.2      4.222      5.849
REMARK  2 active torsions:
REMARK  status: ('A' for Active; 'I' for Inactive)
REMARK    1  A    between atoms: N1_1  and  C1_2 
REMARK    2  A    between atoms: C4_5  and  C5_6 
ROOT
HETATM    1  C1  UNL     1      23.521   2.967  52.360  1.00  0.00     0.118 C 
HETATM    2  C2  UNL     1      24.143   4.003  51.771  1.00  0.00     0.024 C 
HETATM    3  C3  UNL     1      23.522   5.131  51.095  1.00  0.00     0.044 C 
HETATM    4  C4  UNL     1      23.796   5.271  49.634  1.00  0.00     0.044 C 
HETATM    5  C11 UNL     1      23.096   4.272  48.807  1.00  0.00    -0.021 C 
HETATM    6  C12 UNL     1      22.934   2.994  48.558  1.00  0.00    -0.028 C 
HETATM    7  C13 UNL     1      22.285   1.901  47.786  1.00  0.00     0.053 C 
HETATM    8  C14 UNL     1      21.511   0.987  48.754  1.00  0.00     0.180 C 
HETATM    9  O1  UNL     1      20.575   1.815  49.405  1.00  0.00    -0.344 OA
HETATM   10  C15 UNL     1      19.800   1.320  50.419  1.00  0.00     0.252 C 
HETATM   11  N2  UNL     1      20.155   1.367  51.675  1.00  0.00    -0.230 NA
HETATM   12  C16 UNL     1      21.429   1.979  51.937  1.00  0.00     0.237 C 
HETATM   13  N3  UNL     1      22.104   3.047  52.247  1.00  0.00    -0.225 NA
ENDROOT
BRANCH   4  14
HETATM   14  C5  UNL     1      25.178   5.406  49.220  1.00  0.00    -0.050 A 
HETATM   15  C6  UNL     1      25.740   6.563  48.718  1.00  0.00     0.008 A 
HETATM   16  C7  UNL     1      27.051   6.701  48.318  1.00  0.00     0.001 A 
HETATM   17  C8  UNL     1      27.902   5.619  48.413  1.00  0.00     0.000 A 
HETATM   18  C9  UNL     1      27.434   4.433  48.899  1.00  0.00     0.001 A 
HETATM   19  C10 UNL     1      26.116   4.364  49.278  1.00  0.00     0.008 A 
ENDBRANCH   4  14
BRANCH   1  20
HETATM   20  N1  UNL     1      23.966   1.798  53.057  1.00  0.00    -0.384 N 
HETATM   21  H1  UNL     1      24.388   0.958  52.598  1.00  0.00     0.157 HD
HETATM   22  H2  UNL     1      23.877   1.752  54.096  1.00  0.00     0.157 HD
ENDBRANCH   1  20
TORSDOF 2
ENDMDL
MODEL 8
REMARK VINA RESULT:      -6.9      6.896      9.341
REMARK  2 active torsions:
REMARK  status: ('A' for Active; 'I' for Inactive)
REMARK    1  A    between atoms: N1_1  and  C1_2 
REMARK    2  A    between atoms: C4_5  and  C5_6 
ROOT
HETATM    1  C1  UNL     1      31.004   7.883  48.947  1.00  0.00     0.118 C 
HETATM    2  C2  UNL     1      30.083   6.943  48.670  1.00  0.00     0.024 C 
HETATM    3  C3  UNL     1      29.347   6.775  47.427  1.00  0.00     0.044 C 
HETATM    4  C4  UNL     1      27.867   6.953  47.496  1.00  0.00     0.044 C 
HETATM    5  C11 UNL     1      27.451   8.357  47.659  1.00  0.00    -0.021 C 
HETATM    6  C12 UNL     1      27.519   9.425  48.418  1.00  0.00    -0.028 C 
HETATM    7  C13 UNL     1      27.163  10.845  48.685  1.00  0.00     0.053 C 
HETATM    8  C14 UNL     1      28.453  11.682  48.778  1.00  0.00     0.180 C 
HETATM    9  O1  UNL     1      29.113  11.515  47.544  1.00  0.00    -0.344 OA
HETATM   10  C15 UNL     1      30.358  12.048  47.347  1.00  0.00     0.252 C 
HETATM   11  N2  UNL     1      31.461  11.395  47.600  1.00  0.00    -0.230 NA
HETATM   12  C16 UNL     1      31.289  10.060  48.106  1.00  0.00     0.237 C 
HETATM   13  N3  UNL     1      31.205   8.785  47.864  1.00  0.00    -0.225 NA
ENDROOT
BRANCH   4  14
HETATM   14  C5  UNL     1      27.127   6.088  48.393  1.00  0.00    -0.050 A 
HETATM   15  C6  UNL     1      25.999   6.462  49.096  1.00  0.00     0.008 A 
HETATM   16  C7  UNL     1      25.291   5.648  49.953  1.00  0.00     0.001 A 
HETATM   17  C8  UNL     1      25.710   4.349  50.150  1.00  0.00     0.000 A 
HETATM   18  C9  UNL     1      26.817   3.891  49.496  1.00  0.00     0.001 A 
HETATM   19  C10 UNL     1      27.477   4.755  48.657  1.00  0.00     0.008 A 
ENDBRANCH   4  14
BRANCH   1  20
HETATM   20  N1  UNL     1      31.809   8.187  50.092  1.00  0.00    -0.384 N 
HETATM   21  H1  UNL     1      32.570   7.572  50.462  1.00  0.00     0.157 HD
HETATM   22  H2  UNL     1      31.649   9.077  50.612  1.00  0.00     0.157 HD
ENDBRANCH   1  20
TORSDOF 2
ENDMDL
MODEL 9
REMARK VINA RESULT:      -6.9      7.523      9.288
REMARK  2 active torsions:
REMARK  status: ('A' for Active; 'I' for Inactive)
REMARK    1  A    between atoms: N1_1  and  C1_2 
REMARK    2  A    between atoms: C4_5  and  C5_6 
ROOT
HETATM    1  C1  UNL     1      30.646   9.763  49.180  1.00  0.00     0.118 C 
HETATM    2  C2  UNL     1      31.354   8.980  48.347  1.00  0.00     0.024 C 
HETATM    3  C3  UNL     1      31.086   8.727  46.940  1.00  0.00     0.044 C 
HETATM    4  C4  UNL     1      30.751   7.322  46.563  1.00  0.00     0.044 C 
HETATM    5  C11 UNL     1      29.403   6.905  46.989  1.00  0.00    -0.021 C 
HETATM    6  C12 UNL     1      28.597   6.724  48.008  1.00  0.00    -0.028 C 
HETATM    7  C13 UNL     1      27.271   6.327  48.551  1.00  0.00     0.053 C 
HETATM    8  C14 UNL     1      26.657   7.519  49.310  1.00  0.00     0.180 C 
HETATM    9  O1  UNL     1      26.564   8.569  48.375  1.00  0.00    -0.344 OA
HETATM   10  C15 UNL     1      26.157   9.814  48.770  1.00  0.00     0.252 C 
HETATM   11  N2  UNL     1      26.985  10.742  49.168  1.00  0.00    -0.230 NA
HETATM   12  C16 UNL     1      28.375  10.373  49.168  1.00  0.00     0.237 C 
HETATM   13  N3  UNL     1      29.516  10.353  48.545  1.00  0.00    -0.225 NA
ENDROOT
BRANCH   4  14
HETATM   14  C5  UNL     1      31.727   6.295  46.864  1.00  0.00    -0.050 A 
HETATM   15  C6  UNL     1      31.435   5.072  47.435  1.00  0.00     0.008 A 
HETATM   16  C7  UNL     1      32.356   4.090  47.728  1.00  0.00     0.001 A 
HETATM   17  C8  UNL     1      33.687   4.308  47.441  1.00  0.00     0.000 A 
HETATM   18  C9  UNL     1      34.071   5.489  46.874  1.00  0.00     0.001 A 
HETATM   19  C10 UNL     1      33.101   6.425  46.610  1.00  0.00     0.008 A 
ENDBRANCH   4  14
BRANCH   1  20
HETATM   20  N1  UNL     1      30.765  10.118  50.562  1.00  0.00    -0.384 N 
HETATM   21  H1  UNL     1      31.339   9.593  51.262  1.00  0.00     0.157 HD
HETATM   22  H2  UNL     1      30.257  10.954  50.925  1.00  0.00     0.157 HD
ENDBRANCH   1  20
TORSDOF 2
ENDMDL
