MODEL 1
REMARK VINA RESULT:      -9.0      0.000      0.000
REMARK  3 active torsions:
REMARK  status: ('A' for Active; 'I' for Inactive)
REMARK    1  A    between atoms: O1_2  and  C2_3 
REMARK    2  A    between atoms: C12_17  and  N4_18 
REMARK    3  A    between atoms: N4_18  and  C13_19 
ROOT
HETATM    1  C2  UNL     1      19.369   0.552  52.059  1.00  0.00     0.066 C 
HETATM    2  C3  UNL     1      18.655   0.312  50.959  1.00  0.00     0.115 C 
HETATM    3  N1  UNL     1      18.578   0.879  49.613  1.00  0.00    -0.397 N 
HETATM    4  C4  UNL     1      19.637   1.800  49.599  1.00  0.00     0.121 C 
HETATM    5  C5  UNL     1      20.043   2.498  48.323  1.00  0.00     0.046 C 
HETATM    6  C6  UNL     1      21.164   3.421  48.873  1.00  0.00     0.170 C 
HETATM    7  O2  UNL     1      22.136   2.598  49.505  1.00  0.00    -0.379 OA
HETATM    8  C7  UNL     1      22.884   2.955  50.625  1.00  0.00     0.177 C 
HETATM    9  C8  UNL     1      23.064   2.231  51.733  1.00  0.00     0.025 C 
HETATM   10  C9  UNL     1      22.941   1.087  52.676  1.00  0.00     0.034 A 
HETATM   11  C10 UNL     1      21.659   0.750  53.049  1.00  0.00     0.056 A 
HETATM   12  N2  UNL     1      21.623  -0.311  53.884  1.00  0.00    -0.245 NA
HETATM   13  C11 UNL     1      22.770  -0.921  54.264  1.00  0.00     0.235 A 
HETATM   14  N3  UNL     1      23.995  -0.556  53.875  1.00  0.00    -0.224 NA
HETATM   15  C12 UNL     1      24.115   0.487  53.048  1.00  0.00     0.141 A 
HETATM   16  C19 UNL     1      20.420   1.407  52.648  1.00  0.00     0.126 C 
HETATM   17  H5  UNL     1      17.870   0.588  48.931  1.00  0.00     0.158 HD
ENDROOT
BRANCH  15  18
HETATM   18  N4  UNL     1      25.334   0.984  52.554  1.00  0.00    -0.340 N 
HETATM   19  H15 UNL     1      25.329   1.766  51.859  1.00  0.00     0.167 HD
BRANCH  18  20
HETATM   20  C13 UNL     1      26.642   0.566  52.874  1.00  0.00     0.035 A 
HETATM   21  C14 UNL     1      27.639   1.426  53.262  1.00  0.00     0.032 A 
HETATM   22  C15 UNL     1      28.914   1.097  53.582  1.00  0.00     0.046 A 
HETATM   23  C16 UNL     1      29.299  -0.214  53.530  1.00  0.00     0.138 A 
HETATM   24  F1  UNL     1      30.559  -0.569  53.843  1.00  0.00    -0.204 F 
HETATM   25  C17 UNL     1      28.359  -1.158  53.146  1.00  0.00     0.074 A 
HETATM   26 CL1  UNL     1      28.868  -2.832  53.085  1.00  0.00    -0.081 Cl
HETATM   27  C18 UNL     1      27.085  -0.741  52.838  1.00  0.00     0.056 A 
ENDBRANCH  18  20
ENDBRANCH  15  18
BRANCH   1  28
HETATM   28  O1  UNL     1      19.040  -0.326  53.133  1.00  0.00    -0.358 OA
HETATM   29  C1  UNL     1      17.942  -1.180  53.124  1.00  0.00     0.209 C 
ENDBRANCH   1  28
TORSDOF 3
ENDMDL
MODEL 2
REMARK VINA RESULT:      -8.9      4.739      7.954
REMARK  3 active torsions:
REMARK  status: ('A' for Active; 'I' for Inactive)
REMARK    1  A    between atoms: O1_2  and  C2_3 
REMARK    2  A    between atoms: C12_17  and  N4_18 
REMARK    3  A    between atoms: N4_18  and  C13_19 
ROOT
HETATM    1  C2  UNL     1      24.177   1.657  52.703  1.00  0.00     0.066 C 
HETATM    2  C3  UNL     1      24.600   2.891  52.979  1.00  0.00     0.115 C 
HETATM    3  N1  UNL     1      24.116   4.247  52.726  1.00  0.00    -0.397 N 
HETATM    4  C4  UNL     1      22.855   4.028  52.152  1.00  0.00     0.121 C 
HETATM    5  C5  UNL     1      21.909   5.177  51.890  1.00  0.00     0.046 C 
HETATM    6  C6  UNL     1      20.746   4.410  51.205  1.00  0.00     0.170 C 
HETATM    7  O2  UNL     1      20.307   3.395  52.098  1.00  0.00    -0.379 OA
HETATM    8  C7  UNL     1      19.822   2.145  51.716  1.00  0.00     0.177 C 
HETATM    9  C8  UNL     1      20.199   0.957  52.197  1.00  0.00     0.025 C 
HETATM   10  C9  UNL     1      20.941  -0.029  53.027  1.00  0.00     0.034 A 
HETATM   11  C10 UNL     1      22.313   0.001  52.914  1.00  0.00     0.056 A 
HETATM   12  N2  UNL     1      22.920  -0.903  53.714  1.00  0.00    -0.245 NA
HETATM   13  C11 UNL     1      22.185  -1.714  54.510  1.00  0.00     0.235 A 
HETATM   14  N3  UNL     1      20.851  -1.707  54.585  1.00  0.00    -0.224 NA
HETATM   15  C12 UNL     1      20.175  -0.840  53.823  1.00  0.00     0.141 A 
HETATM   16  C19 UNL     1      23.111   0.868  52.054  1.00  0.00     0.126 C 
HETATM   17  H5  UNL     1      24.664   5.082  52.959  1.00  0.00     0.158 HD
ENDROOT
BRANCH  15  18
HETATM   18  N4  UNL     1      18.776  -0.717  53.796  1.00  0.00    -0.340 N 
HETATM   19  H15 UNL     1      18.331   0.193  54.062  1.00  0.00     0.167 HD
BRANCH  18  20
HETATM   20  C13 UNL     1      17.819  -1.690  53.441  1.00  0.00     0.035 A 
HETATM   21  C14 UNL     1      17.879  -2.998  53.853  1.00  0.00     0.032 A 
HETATM   22  C15 UNL     1      16.999  -3.984  53.552  1.00  0.00     0.046 A 
HETATM   23  C16 UNL     1      15.922  -3.698  52.761  1.00  0.00     0.138 A 
HETATM   24  F1  UNL     1      15.032  -4.658  52.446  1.00  0.00    -0.204 F 
HETATM   25  C17 UNL     1      15.776  -2.400  52.294  1.00  0.00     0.074 A 
HETATM   26 CL1  UNL     1      14.390  -2.053  51.283  1.00  0.00    -0.081 Cl
HETATM   27  C18 UNL     1      16.714  -1.459  52.646  1.00  0.00     0.056 A 
ENDBRANCH  18  20
ENDBRANCH  15  18
BRANCH   1  28
HETATM   28  O1  UNL     1      25.056   0.648  53.198  1.00  0.00    -0.358 OA
HETATM   29  C1  UNL     1      26.195   0.219  52.525  1.00  0.00     0.209 C 
ENDBRANCH   1  28
TORSDOF 3
ENDMDL
MODEL 3
REMARK VINA RESULT:      -8.8      1.572      3.577
REMARK  3 active torsions:
REMARK  status: ('A' for Active; 'I' for Inactive)
REMARK    1  A    between atoms: O1_2  and  C2_3 
REMARK    2  A    between atoms: C12_17  and  N4_18 
REMARK    3  A    between atoms: N4_18  and  C13_19 
ROOT
HETATM    1  C2  UNL     1      20.396   1.388  50.200  1.00  0.00     0.066 C 
HETATM    2  C3  UNL     1      19.136   1.386  50.637  1.00  0.00     0.115 C 
HETATM    3  N1  UNL     1      18.383   0.673  51.668  1.00  0.00    -0.397 N 
HETATM    4  C4  UNL     1      19.379  -0.058  52.334  1.00  0.00     0.121 C 
HETATM    5  C5  UNL     1      19.070  -0.814  53.604  1.00  0.00     0.046 C 
HETATM    6  C6  UNL     1      20.452  -1.477  53.859  1.00  0.00     0.170 C 
HETATM    7  O2  UNL     1      21.424  -0.442  53.936  1.00  0.00    -0.379 OA
HETATM    8  C7  UNL     1      22.744  -0.548  53.504  1.00  0.00     0.177 C 
HETATM    9  C8  UNL     1      23.404   0.311  52.723  1.00  0.00     0.025 C 
HETATM   10  C9  UNL     1      23.647   1.515  51.883  1.00  0.00     0.034 A 
HETATM   11  C10 UNL     1      22.806   1.675  50.805  1.00  0.00     0.056 A 
HETATM   12  N2  UNL     1      23.070   2.801  50.105  1.00  0.00    -0.245 NA
HETATM   13  C11 UNL     1      24.069   3.628  50.490  1.00  0.00     0.235 A 
HETATM   14  N3  UNL     1      24.861   3.428  51.548  1.00  0.00    -0.224 NA
HETATM   15  C12 UNL     1      24.665   2.336  52.292  1.00  0.00     0.141 A 
HETATM   16  C19 UNL     1      21.732   0.785  50.380  1.00  0.00     0.126 C 
HETATM   17  H5  UNL     1      17.368   0.768  51.776  1.00  0.00     0.158 HD
ENDROOT
BRANCH  15  18
HETATM   18  N4  UNL     1      25.416   1.995  53.430  1.00  0.00    -0.340 N 
HETATM   19  H15 UNL     1      24.999   2.122  54.382  1.00  0.00     0.167 HD
BRANCH  18  20
HETATM   20  C13 UNL     1      26.725   1.474  53.491  1.00  0.00     0.035 A 
HETATM   21  C14 UNL     1      27.835   2.241  53.741  1.00  0.00     0.032 A 
HETATM   22  C15 UNL     1      29.118   1.811  53.813  1.00  0.00     0.046 A 
HETATM   23  C16 UNL     1      29.389   0.484  53.626  1.00  0.00     0.138 A 
HETATM   24  F1  UNL     1      30.653   0.029  53.693  1.00  0.00    -0.204 F 
HETATM   25  C17 UNL     1      28.328  -0.372  53.367  1.00  0.00     0.074 A 
HETATM   26 CL1  UNL     1      28.693  -2.067  53.131  1.00  0.00    -0.081 Cl
HETATM   27  C18 UNL     1      27.056   0.146  53.310  1.00  0.00     0.056 A 
ENDBRANCH  18  20
ENDBRANCH  15  18
BRANCH   1  28
HETATM   28  O1  UNL     1      20.609   2.310  49.134  1.00  0.00    -0.358 OA
HETATM   29  C1  UNL     1      19.587   3.014  48.505  1.00  0.00     0.209 C 
ENDBRANCH   1  28
TORSDOF 3
ENDMDL
MODEL 4
REMARK VINA RESULT:      -8.6      4.118      5.807
REMARK  3 active torsions:
REMARK  status: ('A' for Active; 'I' for Inactive)
REMARK    1  A    between atoms: O1_2  and  C2_3 
REMARK    2  A    between atoms: C12_17  and  N4_18 
REMARK    3  A    between atoms: N4_18  and  C13_19 
ROOT
HETATM    1  C2  UNL     1      20.261   0.081  52.172  1.00  0.00     0.066 C 
HETATM    2  C3  UNL     1      19.891  -0.477  53.325  1.00  0.00     0.115 C 
HETATM    3  N1  UNL     1      20.576  -1.100  54.457  1.00  0.00    -0.397 N 
HETATM    4  C4  UNL     1      21.931  -0.883  54.162  1.00  0.00     0.121 C 
HETATM    5  C5  UNL     1      23.008  -1.213  55.168  1.00  0.00     0.046 C 
HETATM    6  C6  UNL     1      24.267  -0.864  54.329  1.00  0.00     0.170 C 
HETATM    7  O2  UNL     1      24.154   0.491  53.915  1.00  0.00    -0.379 OA
HETATM    8  C7  UNL     1      24.625   1.003  52.708  1.00  0.00     0.177 C 
HETATM    9  C8  UNL     1      23.951   1.768  51.844  1.00  0.00     0.025 C 
HETATM   10  C9  UNL     1      22.819   2.544  51.272  1.00  0.00     0.034 A 
HETATM   11  C10 UNL     1      21.652   1.843  51.067  1.00  0.00     0.056 A 
HETATM   12  N2  UNL     1      20.662   2.617  50.570  1.00  0.00    -0.245 NA
HETATM   13  C11 UNL     1      20.876   3.931  50.329  1.00  0.00     0.235 A 
HETATM   14  N3  UNL     1      22.031   4.569  50.544  1.00  0.00    -0.224 NA
HETATM   15  C12 UNL     1      23.061   3.872  51.035  1.00  0.00     0.141 A 
HETATM   16  C19 UNL     1      21.415   0.426  51.319  1.00  0.00     0.126 C 
HETATM   17  H5  UNL     1      20.072  -1.557  55.224  1.00  0.00     0.158 HD
ENDROOT
BRANCH  15  18
HETATM   18  N4  UNL     1      24.331   4.406  51.312  1.00  0.00    -0.340 N 
HETATM   19  H15 UNL     1      24.634   4.528  52.307  1.00  0.00     0.167 HD
BRANCH  18  20
HETATM   20  C13 UNL     1      25.322   4.826  50.401  1.00  0.00     0.035 A 
HETATM   21  C14 UNL     1      26.240   3.977  49.836  1.00  0.00     0.032 A 
HETATM   22  C15 UNL     1      27.217   4.309  48.956  1.00  0.00     0.046 A 
HETATM   23  C16 UNL     1      27.342   5.610  48.558  1.00  0.00     0.138 A 
HETATM   24  F1  UNL     1      28.302   5.968  47.685  1.00  0.00    -0.204 F 
HETATM   25  C17 UNL     1      26.457   6.544  49.077  1.00  0.00     0.074 A 
HETATM   26 CL1  UNL     1      26.632   8.205  48.556  1.00  0.00    -0.081 Cl
HETATM   27  C18 UNL     1      25.494   6.124  49.965  1.00  0.00     0.056 A 
ENDBRANCH  18  20
ENDBRANCH  15  18
BRANCH   1  28
HETATM   28  O1  UNL     1      19.154   0.553  51.407  1.00  0.00    -0.358 OA
HETATM   29  C1  UNL     1      17.845   0.118  51.593  1.00  0.00     0.209 C 
ENDBRANCH   1  28
TORSDOF 3
ENDMDL
MODEL 5
REMARK VINA RESULT:      -8.5      4.203      7.534
REMARK  3 active torsions:
REMARK  status: ('A' for Active; 'I' for Inactive)
REMARK    1  A    between atoms: O1_2  and  C2_3 
REMARK    2  A    between atoms: C12_17  and  N4_18 
REMARK    3  A    between atoms: N4_18  and  C13_19 
ROOT
HETATM    1  C2  UNL     1      26.403   0.636  52.779  1.00  0.00     0.066 C 
HETATM    2  C3  UNL     1      27.198   1.702  52.685  1.00  0.00     0.115 C 
HETATM    3  N1  UNL     1      27.244   2.907  51.856  1.00  0.00    -0.397 N 
HETATM    4  C4  UNL     1      26.052   2.828  51.120  1.00  0.00     0.121 C 
HETATM    5  C5  UNL     1      25.598   3.976  50.251  1.00  0.00     0.046 C 
HETATM    6  C6  UNL     1      24.318   3.349  49.634  1.00  0.00     0.170 C 
HETATM    7  O2  UNL     1      23.464   2.962  50.702  1.00  0.00    -0.379 OA
HETATM    8  C7  UNL     1      22.616   1.856  50.692  1.00  0.00     0.177 C 
HETATM    9  C8  UNL     1      22.505   0.923  51.641  1.00  0.00     0.025 C 
HETATM   10  C9  UNL     1      22.767   0.207  52.918  1.00  0.00     0.034 A 
HETATM   11  C10 UNL     1      24.068  -0.193  53.127  1.00  0.00     0.056 A 
HETATM   12  N2  UNL     1      24.236  -0.813  54.316  1.00  0.00    -0.245 NA
HETATM   13  C11 UNL     1      23.187  -0.980  55.154  1.00  0.00     0.235 A 
HETATM   14  N3  UNL     1      21.939  -0.573  54.907  1.00  0.00    -0.224 NA
HETATM   15  C12 UNL     1      21.689   0.048  53.750  1.00  0.00     0.141 A 
HETATM   16  C19 UNL     1      25.202  -0.022  52.226  1.00  0.00     0.126 C 
HETATM   17  H5  UNL     1      28.022   3.574  51.896  1.00  0.00     0.158 HD
ENDROOT
BRANCH  15  18
HETATM   18  N4  UNL     1      20.431   0.531  53.352  1.00  0.00    -0.340 N 
HETATM   19  H15 UNL     1      20.272   1.563  53.282  1.00  0.00     0.167 HD
BRANCH  18  20
HETATM   20  C13 UNL     1      19.278  -0.207  53.012  1.00  0.00     0.035 A 
HETATM   21  C14 UNL     1      18.376   0.195  52.059  1.00  0.00     0.032 A 
HETATM   22  C15 UNL     1      17.251  -0.460  51.681  1.00  0.00     0.046 A 
HETATM   23  C16 UNL     1      16.938  -1.649  52.280  1.00  0.00     0.138 A 
HETATM   24  F1  UNL     1      15.827  -2.321  51.924  1.00  0.00    -0.204 F 
HETATM   25  C17 UNL     1      17.792  -2.136  53.257  1.00  0.00     0.074 A 
HETATM   26 CL1  UNL     1      17.376  -3.660  54.012  1.00  0.00    -0.081 Cl
HETATM   27  C18 UNL     1      18.913  -1.409  53.582  1.00  0.00     0.056 A 
ENDBRANCH  18  20
ENDBRANCH  15  18
BRANCH   1  28
HETATM   28  O1  UNL     1      26.819  -0.275  53.794  1.00  0.00    -0.358 OA
HETATM   29  C1  UNL     1      28.078  -0.868  53.831  1.00  0.00     0.209 C 
ENDBRANCH   1  28
TORSDOF 3
ENDMDL
MODEL 6
REMARK VINA RESULT:      -8.3      4.598      7.142
REMARK  3 active torsions:
REMARK  status: ('A' for Active; 'I' for Inactive)
REMARK    1  A    between atoms: O1_2  and  C2_3 
REMARK    2  A    between atoms: C12_17  and  N4_18 
REMARK    3  A    between atoms: N4_18  and  C13_19 
ROOT
HETATM    1  C2  UNL     1      23.782  -0.325  53.814  1.00  0.00     0.066 C 
HETATM    2  C3  UNL     1      24.343  -0.815  54.920  1.00  0.00     0.115 C 
HETATM    3  N1  UNL     1      25.703  -0.924  55.448  1.00  0.00    -0.397 N 
HETATM    4  C4  UNL     1      26.461  -0.202  54.514  1.00  0.00     0.121 C 
HETATM    5  C5  UNL     1      27.920   0.099  54.763  1.00  0.00     0.046 C 
HETATM    6  C6  UNL     1      28.271   0.821  53.433  1.00  0.00     0.170 C 
HETATM    7  O2  UNL     1      27.391   1.929  53.293  1.00  0.00    -0.379 OA
HETATM    8  C7  UNL     1      26.896   2.413  52.083  1.00  0.00     0.177 C 
HETATM    9  C8  UNL     1      25.623   2.691  51.792  1.00  0.00     0.025 C 
HETATM   10  C9  UNL     1      24.155   2.829  51.987  1.00  0.00     0.034 A 
HETATM   11  C10 UNL     1      23.486   1.680  52.347  1.00  0.00     0.056 A 
HETATM   12  N2  UNL     1      22.163   1.887  52.531  1.00  0.00    -0.245 NA
HETATM   13  C11 UNL     1      21.632   3.120  52.361  1.00  0.00     0.235 A 
HETATM   14  N3  UNL     1      22.325   4.207  52.009  1.00  0.00    -0.224 NA
HETATM   15  C12 UNL     1      23.640   4.087  51.807  1.00  0.00     0.141 A 
HETATM   16  C19 UNL     1      24.050   0.348  52.527  1.00  0.00     0.126 C 
HETATM   17  H5  UNL     1      25.921  -1.436  56.309  1.00  0.00     0.158 HD
ENDROOT
BRANCH  15  18
HETATM   18  N4  UNL     1      24.496   5.138  51.435  1.00  0.00    -0.340 N 
HETATM   19  H15 UNL     1      25.157   5.540  52.140  1.00  0.00     0.167 HD
BRANCH  18  20
HETATM   20  C13 UNL     1      24.607   5.773  50.181  1.00  0.00     0.035 A 
HETATM   21  C14 UNL     1      25.683   6.541  49.814  1.00  0.00     0.032 A 
HETATM   22  C15 UNL     1      25.858   7.180  48.631  1.00  0.00     0.046 A 
HETATM   23  C16 UNL     1      24.891   7.079  47.670  1.00  0.00     0.138 A 
HETATM   24  F1  UNL     1      25.038   7.702  46.485  1.00  0.00    -0.204 F 
HETATM   25  C17 UNL     1      23.763   6.322  47.950  1.00  0.00     0.074 A 
HETATM   26 CL1  UNL     1      22.536   6.204  46.707  1.00  0.00    -0.081 Cl
HETATM   27  C18 UNL     1      23.664   5.707  49.176  1.00  0.00     0.056 A 
ENDBRANCH  18  20
ENDBRANCH  15  18
BRANCH   1  28
HETATM   28  O1  UNL     1      22.365  -0.477  53.800  1.00  0.00    -0.358 OA
HETATM   29  C1  UNL     1      21.705  -1.608  54.271  1.00  0.00     0.209 C 
ENDBRANCH   1  28
TORSDOF 3
ENDMDL
MODEL 7
REMARK VINA RESULT:      -8.2      2.199      2.775
REMARK  3 active torsions:
REMARK  status: ('A' for Active; 'I' for Inactive)
REMARK    1  A    between atoms: O1_2  and  C2_3 
REMARK    2  A    between atoms: C12_17  and  N4_18 
REMARK    3  A    between atoms: N4_18  and  C13_19 
ROOT
HETATM    1  C2  UNL     1      20.134   4.283  51.016  1.00  0.00     0.066 C 
HETATM    2  C3  UNL     1      19.489   4.621  49.899  1.00  0.00     0.115 C 
HETATM    3  N1  UNL     1      19.848   5.254  48.630  1.00  0.00    -0.397 N 
HETATM    4  C4  UNL     1      21.244   5.368  48.721  1.00  0.00     0.121 C 
HETATM    5  C5  UNL     1      22.066   5.813  47.535  1.00  0.00     0.046 C 
HETATM    6  C6  UNL     1      23.476   5.837  48.186  1.00  0.00     0.170 C 
HETATM    7  O2  UNL     1      23.737   4.542  48.710  1.00  0.00    -0.379 OA
HETATM    8  C7  UNL     1      24.475   4.276  49.861  1.00  0.00     0.177 C 
HETATM    9  C8  UNL     1      24.122   3.480  50.874  1.00  0.00     0.025 C 
HETATM   10  C9  UNL     1      23.290   2.543  51.675  1.00  0.00     0.034 A 
HETATM   11  C10 UNL     1      22.033   2.993  52.011  1.00  0.00     0.056 A 
HETATM   12  N2  UNL     1      21.326   2.080  52.715  1.00  0.00    -0.245 NA
HETATM   13  C11 UNL     1      21.869   0.877  53.014  1.00  0.00     0.235 A 
HETATM   14  N3  UNL     1      23.097   0.486  52.664  1.00  0.00    -0.224 NA
HETATM   15  C12 UNL     1      23.861   1.332  51.966  1.00  0.00     0.141 A 
HETATM   16  C19 UNL     1      21.444   4.289  51.697  1.00  0.00     0.126 C 
HETATM   17  H5  UNL     1      19.151   5.506  47.922  1.00  0.00     0.158 HD
ENDROOT
BRANCH  15  18
HETATM   18  N4  UNL     1      25.169   1.060  51.530  1.00  0.00    -0.340 N 
HETATM   19  H15 UNL     1      25.338   0.811  50.527  1.00  0.00     0.167 HD
BRANCH  18  20
HETATM   20  C13 UNL     1      26.362   1.072  52.281  1.00  0.00     0.035 A 
HETATM   21  C14 UNL     1      26.877   2.200  52.868  1.00  0.00     0.032 A 
HETATM   22  C15 UNL     1      28.014   2.287  53.601  1.00  0.00     0.046 A 
HETATM   23  C16 UNL     1      28.762   1.161  53.807  1.00  0.00     0.138 A 
HETATM   24  F1  UNL     1      29.895   1.217  54.531  1.00  0.00    -0.204 F 
HETATM   25  C17 UNL     1      28.322  -0.031  53.251  1.00  0.00     0.074 A 
HETATM   26 CL1  UNL     1      29.292  -1.461  53.525  1.00  0.00    -0.081 Cl
HETATM   27  C18 UNL     1      27.156  -0.032  52.520  1.00  0.00     0.056 A 
ENDBRANCH  18  20
ENDBRANCH  15  18
BRANCH   1  28
HETATM   28  O1  UNL     1      19.282   3.668  51.980  1.00  0.00    -0.358 OA
HETATM   29  C1  UNL     1      18.050   3.101  51.672  1.00  0.00     0.209 C 
ENDBRANCH   1  28
TORSDOF 3
ENDMDL
MODEL 8
REMARK VINA RESULT:      -8.0      4.645      8.077
REMARK  3 active torsions:
REMARK  status: ('A' for Active; 'I' for Inactive)
REMARK    1  A    between atoms: O1_2  and  C2_3 
REMARK    2  A    between atoms: C12_17  and  N4_18 
REMARK    3  A    between atoms: N4_18  and  C13_19 
ROOT
HETATM    1  C2  UNL     1      26.212   1.078  53.877  1.00  0.00     0.066 C 
HETATM    2  C3  UNL     1      26.241  -0.157  54.380  1.00  0.00     0.115 C 
HETATM    3  N1  UNL     1      25.250  -1.119  54.859  1.00  0.00    -0.397 N 
HETATM    4  C4  UNL     1      24.032  -0.495  54.550  1.00  0.00     0.121 C 
HETATM    5  C5  UNL     1      22.720  -1.225  54.714  1.00  0.00     0.046 C 
HETATM    6  C6  UNL     1      21.735  -0.090  54.321  1.00  0.00     0.170 C 
HETATM    7  O2  UNL     1      22.078   0.351  53.014  1.00  0.00    -0.379 OA
HETATM    8  C7  UNL     1      21.959   1.661  52.552  1.00  0.00     0.177 C 
HETATM    9  C8  UNL     1      22.891   2.373  51.912  1.00  0.00     0.025 C 
HETATM   10  C9  UNL     1      24.198   2.693  51.278  1.00  0.00     0.034 A 
HETATM   11  C10 UNL     1      25.304   2.573  52.089  1.00  0.00     0.056 A 
HETATM   12  N2  UNL     1      26.456   2.854  51.440  1.00  0.00    -0.245 NA
HETATM   13  C11 UNL     1      26.436   3.206  50.133  1.00  0.00     0.235 A 
HETATM   14  N3  UNL     1      25.333   3.308  49.386  1.00  0.00    -0.224 NA
HETATM   15  C12 UNL     1      24.152   3.047  49.955  1.00  0.00     0.141 A 
HETATM   16  C19 UNL     1      25.332   2.201  53.499  1.00  0.00     0.126 C 
HETATM   17  H5  UNL     1      25.510  -2.007  55.301  1.00  0.00     0.158 HD
ENDROOT
BRANCH  15  18
HETATM   18  N4  UNL     1      22.912   3.112  49.297  1.00  0.00    -0.340 N 
HETATM   19  H15 UNL     1      22.077   2.644  49.721  1.00  0.00     0.167 HD
BRANCH  18  20
HETATM   20  C13 UNL     1      22.600   3.753  48.080  1.00  0.00     0.035 A 
HETATM   21  C14 UNL     1      22.124   3.091  46.976  1.00  0.00     0.032 A 
HETATM   22  C15 UNL     1      21.804   3.639  45.778  1.00  0.00     0.046 A 
HETATM   23  C16 UNL     1      21.953   4.986  45.600  1.00  0.00     0.138 A 
HETATM   24  F1  UNL     1      21.642   5.557  44.421  1.00  0.00    -0.204 F 
HETATM   25  C17 UNL     1      22.429   5.740  46.661  1.00  0.00     0.074 A 
HETATM   26 CL1  UNL     1      22.613   7.463  46.414  1.00  0.00    -0.081 Cl
HETATM   27  C18 UNL     1      22.731   5.106  47.844  1.00  0.00     0.056 A 
ENDBRANCH  18  20
ENDBRANCH  15  18
BRANCH   1  28
HETATM   28  O1  UNL     1      27.510   1.575  53.559  1.00  0.00    -0.358 OA
HETATM   29  C1  UNL     1      28.692   0.963  53.962  1.00  0.00     0.209 C 
ENDBRANCH   1  28
TORSDOF 3
ENDMDL
MODEL 9
REMARK VINA RESULT:      -7.9      4.622      6.117
REMARK  3 active torsions:
REMARK  status: ('A' for Active; 'I' for Inactive)
REMARK    1  A    between atoms: O1_2  and  C2_3 
REMARK    2  A    between atoms: C12_17  and  N4_18 
REMARK    3  A    between atoms: N4_18  and  C13_19 
ROOT
HETATM    1  C2  UNL     1      23.386   0.164  53.306  1.00  0.00     0.066 C 
HETATM    2  C3  UNL     1      22.377  -0.685  53.108  1.00  0.00     0.115 C 
HETATM    3  N1  UNL     1      20.954  -0.570  52.790  1.00  0.00    -0.397 N 
HETATM    4  C4  UNL     1      20.794   0.806  52.565  1.00  0.00     0.121 C 
HETATM    5  C5  UNL     1      19.496   1.359  52.026  1.00  0.00     0.046 C 
HETATM    6  C6  UNL     1      19.829   2.876  52.044  1.00  0.00     0.170 C 
HETATM    7  O2  UNL     1      20.998   3.075  51.259  1.00  0.00    -0.379 OA
HETATM    8  C7  UNL     1      21.978   4.034  51.509  1.00  0.00     0.177 C 
HETATM    9  C8  UNL     1      23.298   3.837  51.552  1.00  0.00     0.025 C 
HETATM   10  C9  UNL     1      24.594   3.109  51.491  1.00  0.00     0.034 A 
HETATM   11  C10 UNL     1      24.731   2.052  52.363  1.00  0.00     0.056 A 
HETATM   12  N2  UNL     1      25.920   1.423  52.233  1.00  0.00    -0.245 NA
HETATM   13  C11 UNL     1      26.823   1.849  51.319  1.00  0.00     0.235 A 
HETATM   14  N3  UNL     1      26.643   2.884  50.493  1.00  0.00    -0.224 NA
HETATM   15  C12 UNL     1      25.492   3.559  50.560  1.00  0.00     0.141 A 
HETATM   16  C19 UNL     1      23.765   1.591  53.353  1.00  0.00     0.126 C 
HETATM   17  H5  UNL     1      20.326  -1.379  52.769  1.00  0.00     0.158 HD
ENDROOT
BRANCH  15  18
HETATM   18  N4  UNL     1      25.163   4.665  49.757  1.00  0.00    -0.340 N 
HETATM   19  H15 UNL     1      24.248   4.680  49.249  1.00  0.00     0.167 HD
BRANCH  18  20
HETATM   20  C13 UNL     1      25.921   5.829  49.517  1.00  0.00     0.035 A 
HETATM   21  C14 UNL     1      25.734   7.009  50.193  1.00  0.00     0.032 A 
HETATM   22  C15 UNL     1      26.422   8.163  50.016  1.00  0.00     0.046 A 
HETATM   23  C16 UNL     1      27.417   8.209  49.079  1.00  0.00     0.138 A 
HETATM   24  F1  UNL     1      28.117   9.342  48.883  1.00  0.00    -0.204 F 
HETATM   25  C17 UNL     1      27.681   7.063  48.344  1.00  0.00     0.074 A 
HETATM   26 CL1  UNL     1      28.958   7.141  47.150  1.00  0.00    -0.081 Cl
HETATM   27  C18 UNL     1      26.935   5.933  48.586  1.00  0.00     0.056 A 
ENDBRANCH  18  20
ENDBRANCH  15  18
BRANCH   1  28
HETATM   28  O1  UNL     1      24.616  -0.496  53.594  1.00  0.00    -0.358 OA
HETATM   29  C1  UNL     1      25.033  -0.827  54.879  1.00  0.00     0.209 C 
ENDBRANCH   1  28
TORSDOF 3
ENDMDL
