MODEL 1
REMARK VINA RESULT:      -9.0      0.000      0.000
REMARK  4 active torsions:
REMARK  status: ('A' for Active; 'I' for Inactive)
REMARK    1  A    between atoms: O1_2  and  C2_3 
REMARK    2  A    between atoms: C2_3  and  C3_4 
REMARK    3  A    between atoms: C7_10  and  N2_11 
REMARK    4  A    between atoms: N2_11  and  C8_12 
ROOT
HETATM    1  C3  UNL     1      26.228   0.095  53.241  1.00  0.00     0.226 C 
HETATM    2  F1  UNL     1      26.345   0.831  54.364  1.00  0.00    -0.209 F 
HETATM    3  C4  UNL     1      24.982  -0.802  53.401  1.00  0.00     0.081 C 
HETATM    4  C5  UNL     1      23.823   0.165  53.634  1.00  0.00     0.052 C 
HETATM    5  C6  UNL     1      22.562  -0.576  53.645  1.00  0.00     0.092 C 
HETATM    6  N1  UNL     1      21.708   0.388  53.435  1.00  0.00    -0.246 NA
HETATM    7  C7  UNL     1      20.369   0.056  53.378  1.00  0.00     0.140 C 
HETATM    8  C14 UNL     1      19.827   1.069  52.715  1.00  0.00     0.048 C 
HETATM    9  C15 UNL     1      20.230   1.077  51.447  1.00  0.00     0.151 C 
HETATM   10  O2  UNL     1      21.615   1.336  51.226  1.00  0.00    -0.360 OA
HETATM   11  C16 UNL     1      21.955   2.134  50.122  1.00  0.00     0.204 C 
HETATM   12  C17 UNL     1      23.408   2.394  49.948  1.00  0.00     0.296 C 
HETATM   13  N3  UNL     1      23.951   3.071  51.102  1.00  0.00     0.085 N 
HETATM   14  C18 UNL     1      25.243   3.625  50.864  1.00  0.00     0.272 C 
HETATM   15  C19 UNL     1      26.386   2.726  50.647  1.00  0.00     0.056 C 
HETATM   16  C20 UNL     1      26.790   1.826  51.769  1.00  0.00     0.173 C 
HETATM   17  O3  UNL     1      25.863   0.944  52.178  1.00  0.00    -0.349 OA
HETATM   18  H21 UNL     1      23.321   3.832  51.390  1.00  0.00     0.315 HD
ENDROOT
BRANCH   7  19
HETATM   19  N2  UNL     1      19.712  -1.095  53.886  1.00  0.00    -0.340 N 
HETATM   20  H11 UNL     1      20.295  -1.559  54.643  1.00  0.00     0.167 HD
BRANCH  19  21
HETATM   21  C8  UNL     1      18.445  -1.514  53.413  1.00  0.00     0.035 A 
HETATM   22  C9  UNL     1      17.549  -0.818  52.652  1.00  0.00     0.029 A 
HETATM   23  C10 UNL     1      16.334  -1.292  52.216  1.00  0.00     0.004 A 
HETATM   24  C11 UNL     1      15.977  -2.575  52.569  1.00  0.00     0.024 A 
HETATM   25  C12 UNL     1      16.796  -3.401  53.343  1.00  0.00     0.036 A 
HETATM   26 CL1  UNL     1      16.418  -5.031  53.830  1.00  0.00    -0.084 Cl
HETATM   27  C13 UNL     1      18.000  -2.801  53.722  1.00  0.00     0.053 A 
ENDBRANCH  19  21
ENDBRANCH   7  19
BRANCH   1  28
HETATM   28  C2  UNL     1      27.391  -0.750  52.960  1.00  0.00     0.240 C 
BRANCH  28  29
HETATM   29  O1  UNL     1      28.238  -0.898  54.013  1.00  0.00    -0.390 OA
HETATM   30  C1  UNL     1      29.543  -0.570  53.811  1.00  0.00     0.201 C 
ENDBRANCH  28  29
ENDBRANCH   1  28
TORSDOF 4
ENDMDL
MODEL 2
REMARK VINA RESULT:      -9.0      4.854      8.786
REMARK  4 active torsions:
REMARK  status: ('A' for Active; 'I' for Inactive)
REMARK    1  A    between atoms: O1_2  and  C2_3 
REMARK    2  A    between atoms: C2_3  and  C3_4 
REMARK    3  A    between atoms: C7_10  and  N2_11 
REMARK    4  A    between atoms: N2_11  and  C8_12 
ROOT
HETATM    1  C3  UNL     1      26.615   0.159  52.800  1.00  0.00     0.226 C 
HETATM    2  F1  UNL     1      26.778  -0.704  51.778  1.00  0.00    -0.209 F 
HETATM    3  C4  UNL     1      27.163   1.529  52.345  1.00  0.00     0.081 C 
HETATM    4  C5  UNL     1      26.358   1.884  51.098  1.00  0.00     0.052 C 
HETATM    5  C6  UNL     1      26.692   3.242  50.670  1.00  0.00     0.092 C 
HETATM    6  N1  UNL     1      25.670   3.519  49.908  1.00  0.00    -0.246 NA
HETATM    7  C7  UNL     1      25.635   4.762  49.309  1.00  0.00     0.140 C 
HETATM    8  C14 UNL     1      24.351   4.934  49.022  1.00  0.00     0.048 C 
HETATM    9  C15 UNL     1      23.631   5.071  50.131  1.00  0.00     0.151 C 
HETATM   10  O2  UNL     1      23.555   3.928  50.982  1.00  0.00    -0.360 OA
HETATM   11  C16 UNL     1      22.325   3.667  51.605  1.00  0.00     0.204 C 
HETATM   12  C17 UNL     1      22.291   2.452  52.462  1.00  0.00     0.296 C 
HETATM   13  N3  UNL     1      22.597   1.270  51.691  1.00  0.00     0.085 N 
HETATM   14  C18 UNL     1      22.269   0.062  52.373  1.00  0.00     0.272 C 
HETATM   15  C19 UNL     1      23.030  -0.320  53.571  1.00  0.00     0.056 C 
HETATM   16  C20 UNL     1      24.488  -0.604  53.412  1.00  0.00     0.173 C 
HETATM   17  O3  UNL     1      25.240   0.415  52.964  1.00  0.00    -0.349 OA
HETATM   18  H21 UNL     1      22.081   1.290  50.801  1.00  0.00     0.315 HD
ENDROOT
BRANCH   7  19
HETATM   19  N2  UNL     1      26.703   5.665  49.063  1.00  0.00    -0.340 N 
HETATM   20  H11 UNL     1      27.617   5.140  48.928  1.00  0.00     0.167 HD
BRANCH  19  21
HETATM   21  C8  UNL     1      26.513   7.066  49.008  1.00  0.00     0.035 A 
HETATM   22  C9  UNL     1      26.310   7.938  50.040  1.00  0.00     0.029 A 
HETATM   23  C10 UNL     1      26.141   9.298  49.915  1.00  0.00     0.004 A 
HETATM   24  C11 UNL     1      26.179   9.839  48.648  1.00  0.00     0.024 A 
HETATM   25  C12 UNL     1      26.379   9.067  47.502  1.00  0.00     0.036 A 
HETATM   26 CL1  UNL     1      26.440   9.675  45.870  1.00  0.00    -0.084 Cl
HETATM   27  C13 UNL     1      26.535   7.703  47.764  1.00  0.00     0.053 A 
ENDBRANCH  19  21
ENDBRANCH   7  19
BRANCH   1  28
HETATM   28  C2  UNL     1      27.299  -0.244  54.032  1.00  0.00     0.240 C 
BRANCH  28  29
HETATM   29  O1  UNL     1      28.222  -1.226  53.860  1.00  0.00    -0.390 OA
HETATM   30  C1  UNL     1      29.529  -0.849  53.819  1.00  0.00     0.201 C 
ENDBRANCH  28  29
ENDBRANCH   1  28
TORSDOF 4
ENDMDL
MODEL 3
REMARK VINA RESULT:      -8.9      2.320      4.190
REMARK  4 active torsions:
REMARK  status: ('A' for Active; 'I' for Inactive)
REMARK    1  A    between atoms: O1_2  and  C2_3 
REMARK    2  A    between atoms: C2_3  and  C3_4 
REMARK    3  A    between atoms: C7_10  and  N2_11 
REMARK    4  A    between atoms: N2_11  and  C8_12 
ROOT
HETATM    1  C3  UNL     1      24.060   3.065  50.982  1.00  0.00     0.226 C 
HETATM    2  F1  UNL     1      23.960   2.474  49.774  1.00  0.00    -0.209 F 
HETATM    3  C4  UNL     1      22.722   2.842  51.720  1.00  0.00     0.081 C 
HETATM    4  C5  UNL     1      22.550   1.326  51.782  1.00  0.00     0.052 C 
HETATM    5  C6  UNL     1      21.383   0.999  52.601  1.00  0.00     0.092 C 
HETATM    6  N1  UNL     1      21.623  -0.251  52.883  1.00  0.00    -0.246 NA
HETATM    7  C7  UNL     1      20.706  -0.918  53.671  1.00  0.00     0.140 C 
HETATM    8  C14 UNL     1      21.400  -1.936  54.163  1.00  0.00     0.048 C 
HETATM    9  C15 UNL     1      22.330  -1.509  55.013  1.00  0.00     0.151 C 
HETATM   10  O2  UNL     1      23.382  -0.723  54.456  1.00  0.00    -0.360 OA
HETATM   11  C16 UNL     1      24.677  -0.930  54.957  1.00  0.00     0.204 C 
HETATM   12  C17 UNL     1      25.742  -0.105  54.328  1.00  0.00     0.296 C 
HETATM   13  N3  UNL     1      25.826  -0.366  52.911  1.00  0.00     0.085 N 
HETATM   14  C18 UNL     1      27.020   0.145  52.321  1.00  0.00     0.272 C 
HETATM   15  C19 UNL     1      27.216   1.599  52.233  1.00  0.00     0.056 C 
HETATM   16  C20 UNL     1      26.261   2.384  51.393  1.00  0.00     0.173 C 
HETATM   17  O3  UNL     1      24.972   2.337  51.770  1.00  0.00    -0.349 OA
HETATM   18  H21 UNL     1      25.789  -1.380  52.740  1.00  0.00     0.315 HD
ENDROOT
BRANCH   7  19
HETATM   19  N2  UNL     1      19.344  -0.600  53.920  1.00  0.00    -0.340 N 
HETATM   20  H11 UNL     1      19.261   0.334  54.418  1.00  0.00     0.167 HD
BRANCH  19  21
HETATM   21  C8  UNL     1      18.285  -1.450  53.525  1.00  0.00     0.035 A 
HETATM   22  C9  UNL     1      18.066  -2.754  53.872  1.00  0.00     0.029 A 
HETATM   23  C10 UNL     1      17.002  -3.522  53.458  1.00  0.00     0.004 A 
HETATM   24  C11 UNL     1      16.072  -2.941  52.625  1.00  0.00     0.024 A 
HETATM   25  C12 UNL     1      16.169  -1.618  52.190  1.00  0.00     0.036 A 
HETATM   26 CL1  UNL     1      15.036  -0.812  51.139  1.00  0.00    -0.084 Cl
HETATM   27  C13 UNL     1      17.293  -0.947  52.679  1.00  0.00     0.053 A 
ENDBRANCH  19  21
ENDBRANCH   7  19
BRANCH   1  28
HETATM   28  C2  UNL     1      24.337   4.502  50.919  1.00  0.00     0.240 C 
BRANCH  28  29
HETATM   29  O1  UNL     1      24.193   5.043  49.681  1.00  0.00    -0.390 OA
HETATM   30  C1  UNL     1      25.316   5.510  49.073  1.00  0.00     0.201 C 
ENDBRANCH  28  29
ENDBRANCH   1  28
TORSDOF 4
ENDMDL
MODEL 4
REMARK VINA RESULT:      -8.8      3.695      6.939
REMARK  4 active torsions:
REMARK  status: ('A' for Active; 'I' for Inactive)
REMARK    1  A    between atoms: O1_2  and  C2_3 
REMARK    2  A    between atoms: C2_3  and  C3_4 
REMARK    3  A    between atoms: C7_10  and  N2_11 
REMARK    4  A    between atoms: N2_11  and  C8_12 
ROOT
HETATM    1  C3  UNL     1      25.723   0.034  53.877  1.00  0.00     0.226 C 
HETATM    2  F1  UNL     1      26.108  -0.973  53.068  1.00  0.00    -0.209 F 
HETATM    3  C4  UNL     1      25.703   1.327  53.033  1.00  0.00     0.081 C 
HETATM    4  C5  UNL     1      24.731   1.040  51.890  1.00  0.00     0.052 C 
HETATM    5  C6  UNL     1      24.519   2.260  51.111  1.00  0.00     0.092 C 
HETATM    6  N1  UNL     1      23.411   1.964  50.489  1.00  0.00    -0.246 NA
HETATM    7  C7  UNL     1      22.885   2.912  49.634  1.00  0.00     0.140 C 
HETATM    8  C14 UNL     1      21.608   2.566  49.534  1.00  0.00     0.048 C 
HETATM    9  C15 UNL     1      20.973   2.758  50.687  1.00  0.00     0.151 C 
HETATM   10  O2  UNL     1      21.380   1.934  51.778  1.00  0.00    -0.360 OA
HETATM   11  C16 UNL     1      20.378   1.465  52.643  1.00  0.00     0.204 C 
HETATM   12  C17 UNL     1      20.849   0.592  53.750  1.00  0.00     0.296 C 
HETATM   13  N3  UNL     1      21.502  -0.587  53.232  1.00  0.00     0.085 N 
HETATM   14  C18 UNL     1      21.686  -1.599  54.220  1.00  0.00     0.272 C 
HETATM   15  C19 UNL     1      22.622  -1.365  55.328  1.00  0.00     0.056 C 
HETATM   16  C20 UNL     1      24.068  -1.186  54.996  1.00  0.00     0.173 C 
HETATM   17  O3  UNL     1      24.364  -0.141  54.206  1.00  0.00    -0.349 OA
HETATM   18  H21 UNL     1      20.948  -0.983  52.461  1.00  0.00     0.315 HD
ENDROOT
BRANCH   7  19
HETATM   19  N2  UNL     1      23.533   4.011  49.010  1.00  0.00    -0.340 N 
HETATM   20  H11 UNL     1      23.908   3.734  48.056  1.00  0.00     0.167 HD
BRANCH  19  21
HETATM   21  C8  UNL     1      23.626   5.282  49.625  1.00  0.00     0.035 A 
HETATM   22  C9  UNL     1      24.724   5.884  50.171  1.00  0.00     0.029 A 
HETATM   23  C10 UNL     1      24.746   7.134  50.746  1.00  0.00     0.004 A 
HETATM   24  C11 UNL     1      23.570   7.850  50.779  1.00  0.00     0.024 A 
HETATM   25  C12 UNL     1      22.371   7.359  50.258  1.00  0.00     0.036 A 
HETATM   26 CL1  UNL     1      20.846   8.201  50.261  1.00  0.00    -0.084 Cl
HETATM   27  C13 UNL     1      22.482   6.080  49.704  1.00  0.00     0.053 A 
ENDBRANCH  19  21
ENDBRANCH   7  19
BRANCH   1  28
HETATM   28  C2  UNL     1      26.597   0.234  55.035  1.00  0.00     0.240 C 
BRANCH  28  29
HETATM   29  O1  UNL     1      27.769  -0.451  54.972  1.00  0.00    -0.390 OA
HETATM   30  C1  UNL     1      28.878   0.247  54.606  1.00  0.00     0.201 C 
ENDBRANCH  28  29
ENDBRANCH   1  28
TORSDOF 4
ENDMDL
MODEL 5
REMARK VINA RESULT:      -8.8      4.251      8.218
REMARK  4 active torsions:
REMARK  status: ('A' for Active; 'I' for Inactive)
REMARK    1  A    between atoms: O1_2  and  C2_3 
REMARK    2  A    between atoms: C2_3  and  C3_4 
REMARK    3  A    between atoms: C7_10  and  N2_11 
REMARK    4  A    between atoms: N2_11  and  C8_12 
ROOT
HETATM    1  C3  UNL     1      20.035   1.714  50.844  1.00  0.00     0.226 C 
HETATM    2  F1  UNL     1      20.211   0.470  50.354  1.00  0.00    -0.209 F 
HETATM    3  C4  UNL     1      21.169   1.980  51.857  1.00  0.00     0.081 C 
HETATM    4  C5  UNL     1      22.461   1.802  51.062  1.00  0.00     0.052 C 
HETATM    5  C6  UNL     1      23.603   2.184  51.892  1.00  0.00     0.092 C 
HETATM    6  N1  UNL     1      24.518   2.371  50.982  1.00  0.00    -0.246 NA
HETATM    7  C7  UNL     1      25.774   2.757  51.406  1.00  0.00     0.140 C 
HETATM    8  C14 UNL     1      26.311   3.309  50.325  1.00  0.00     0.048 C 
HETATM    9  C15 UNL     1      25.693   4.445  50.016  1.00  0.00     0.151 C 
HETATM   10  O2  UNL     1      24.333   4.332  49.600  1.00  0.00    -0.360 OA
HETATM   11  C16 UNL     1      23.904   5.173  48.560  1.00  0.00     0.204 C 
HETATM   12  C17 UNL     1      22.486   5.001  48.148  1.00  0.00     0.296 C 
HETATM   13  N3  UNL     1      22.244   3.654  47.686  1.00  0.00     0.085 N 
HETATM   14  C18 UNL     1      21.008   3.520  46.987  1.00  0.00     0.272 C 
HETATM   15  C19 UNL     1      19.744   3.673  47.721  1.00  0.00     0.056 C 
HETATM   16  C20 UNL     1      19.437   2.686  48.800  1.00  0.00     0.173 C 
HETATM   17  O3  UNL     1      20.306   2.647  49.823  1.00  0.00    -0.349 OA
HETATM   18  H21 UNL     1      23.005   3.358  47.060  1.00  0.00     0.315 HD
ENDROOT
BRANCH   7  19
HETATM   19  N2  UNL     1      26.365   2.619  52.689  1.00  0.00    -0.340 N 
HETATM   20  H11 UNL     1      25.996   3.360  53.355  1.00  0.00     0.167 HD
BRANCH  19  21
HETATM   21  C8  UNL     1      27.307   1.605  52.984  1.00  0.00     0.035 A 
HETATM   22  C9  UNL     1      28.553   1.734  53.529  1.00  0.00     0.029 A 
HETATM   23  C10 UNL     1      29.417   0.699  53.800  1.00  0.00     0.004 A 
HETATM   24  C11 UNL     1      29.004  -0.581  53.503  1.00  0.00     0.024 A 
HETATM   25  C12 UNL     1      27.755  -0.861  52.943  1.00  0.00     0.036 A 
HETATM   26 CL1  UNL     1      27.160  -2.449  52.540  1.00  0.00    -0.084 Cl
HETATM   27  C13 UNL     1      26.975   0.275  52.716  1.00  0.00     0.053 A 
ENDBRANCH  19  21
ENDBRANCH   7  19
BRANCH   1  28
HETATM   28  C2  UNL     1      18.745   1.914  51.509  1.00  0.00     0.240 C 
BRANCH  28  29
HETATM   29  O1  UNL     1      18.563   3.166  52.005  1.00  0.00    -0.390 OA
HETATM   30  C1  UNL     1      17.415   3.809  51.661  1.00  0.00     0.201 C 
ENDBRANCH  28  29
ENDBRANCH   1  28
TORSDOF 4
ENDMDL
MODEL 6
REMARK VINA RESULT:      -8.3      4.132      7.996
REMARK  4 active torsions:
REMARK  status: ('A' for Active; 'I' for Inactive)
REMARK    1  A    between atoms: O1_2  and  C2_3 
REMARK    2  A    between atoms: C2_3  and  C3_4 
REMARK    3  A    between atoms: C7_10  and  N2_11 
REMARK    4  A    between atoms: N2_11  and  C8_12 
ROOT
HETATM    1  C3  UNL     1      22.421   4.521  49.388  1.00  0.00     0.226 C 
HETATM    2  F1  UNL     1      22.768   5.498  50.249  1.00  0.00    -0.209 F 
HETATM    3  C4  UNL     1      23.430   3.366  49.564  1.00  0.00     0.081 C 
HETATM    4  C5  UNL     1      23.324   2.967  51.034  1.00  0.00     0.052 C 
HETATM    5  C6  UNL     1      24.132   1.771  51.275  1.00  0.00     0.092 C 
HETATM    6  N1  UNL     1      23.617   1.349  52.397  1.00  0.00    -0.246 NA
HETATM    7  C7  UNL     1      24.143   0.198  52.950  1.00  0.00     0.140 C 
HETATM    8  C14 UNL     1      23.178  -0.230  53.753  1.00  0.00     0.048 C 
HETATM    9  C15 UNL     1      22.125  -0.641  53.052  1.00  0.00     0.151 C 
HETATM   10  O2  UNL     1      21.424   0.361  52.317  1.00  0.00    -0.360 OA
HETATM   11  C16 UNL     1      20.024   0.270  52.273  1.00  0.00     0.204 C 
HETATM   12  C17 UNL     1      19.339   1.350  51.516  1.00  0.00     0.296 C 
HETATM   13  N3  UNL     1      19.629   2.643  52.088  1.00  0.00     0.085 N 
HETATM   14  C18 UNL     1      18.759   3.669  51.613  1.00  0.00     0.272 C 
HETATM   15  C19 UNL     1      18.840   4.089  50.207  1.00  0.00     0.056 C 
HETATM   16  C20 UNL     1      20.114   4.712  49.735  1.00  0.00     0.173 C 
HETATM   17  O3  UNL     1      21.211   3.943  49.820  1.00  0.00    -0.349 OA
HETATM   18  H21 UNL     1      19.546   2.598  53.113  1.00  0.00     0.315 HD
ENDROOT
BRANCH   7  19
HETATM   19  N2  UNL     1      25.407  -0.407  52.718  1.00  0.00    -0.340 N 
HETATM   20  H11 UNL     1      25.295  -1.317  52.182  1.00  0.00     0.167 HD
BRANCH  19  21
HETATM   21  C8  UNL     1      26.617   0.176  53.161  1.00  0.00     0.035 A 
HETATM   22  C9  UNL     1      26.871   1.485  53.461  1.00  0.00     0.029 A 
HETATM   23  C10 UNL     1      28.076   1.984  53.899  1.00  0.00     0.004 A 
HETATM   24  C11 UNL     1      29.123   1.102  54.052  1.00  0.00     0.024 A 
HETATM   25  C12 UNL     1      29.007  -0.263  53.782  1.00  0.00     0.036 A 
HETATM   26 CL1  UNL     1      30.280  -1.440  53.951  1.00  0.00    -0.084 Cl
HETATM   27  C13 UNL     1      27.735  -0.642  53.344  1.00  0.00     0.053 A 
ENDBRANCH  19  21
ENDBRANCH   7  19
BRANCH   1  28
HETATM   28  C2  UNL     1      22.415   4.940  47.984  1.00  0.00     0.240 C 
BRANCH  28  29
HETATM   29  O1  UNL     1      22.339   3.913  47.097  1.00  0.00    -0.390 OA
HETATM   30  C1  UNL     1      21.538   4.088  46.012  1.00  0.00     0.201 C 
ENDBRANCH  28  29
ENDBRANCH   1  28
TORSDOF 4
ENDMDL
MODEL 7
REMARK VINA RESULT:      -8.0      2.784      5.053
REMARK  4 active torsions:
REMARK  status: ('A' for Active; 'I' for Inactive)
REMARK    1  A    between atoms: O1_2  and  C2_3 
REMARK    2  A    between atoms: C2_3  and  C3_4 
REMARK    3  A    between atoms: C7_10  and  N2_11 
REMARK    4  A    between atoms: N2_11  and  C8_12 
ROOT
HETATM    1  C3  UNL     1      21.678   5.041  50.617  1.00  0.00     0.226 C 
HETATM    2  F1  UNL     1      21.267   4.611  49.407  1.00  0.00    -0.209 F 
HETATM    3  C4  UNL     1      20.888   4.253  51.683  1.00  0.00     0.081 C 
HETATM    4  C5  UNL     1      21.203   2.784  51.406  1.00  0.00     0.052 C 
HETATM    5  C6  UNL     1      20.624   1.952  52.460  1.00  0.00     0.092 C 
HETATM    6  N1  UNL     1      21.309   0.853  52.309  1.00  0.00    -0.246 NA
HETATM    7  C7  UNL     1      21.031  -0.197  53.162  1.00  0.00     0.140 C 
HETATM    8  C14 UNL     1      22.128  -0.942  53.106  1.00  0.00     0.048 C 
HETATM    9  C15 UNL     1      23.157  -0.313  53.667  1.00  0.00     0.151 C 
HETATM   10  O2  UNL     1      23.612   0.867  53.007  1.00  0.00    -0.360 OA
HETATM   11  C16 UNL     1      24.997   1.090  52.964  1.00  0.00     0.204 C 
HETATM   12  C17 UNL     1      25.422   2.320  52.245  1.00  0.00     0.296 C 
HETATM   13  N3  UNL     1      24.989   2.287  50.868  1.00  0.00     0.085 N 
HETATM   14  C18 UNL     1      25.632   3.270  50.060  1.00  0.00     0.272 C 
HETATM   15  C19 UNL     1      25.345   4.693  50.289  1.00  0.00     0.056 C 
HETATM   16  C20 UNL     1      23.948   5.171  50.060  1.00  0.00     0.173 C 
HETATM   17  O3  UNL     1      23.001   4.608  50.829  1.00  0.00    -0.349 OA
HETATM   18  H21 UNL     1      25.180   1.360  50.464  1.00  0.00     0.315 HD
ENDROOT
BRANCH   7  19
HETATM   19  N2  UNL     1      19.863  -0.435  53.934  1.00  0.00    -0.340 N 
HETATM   20  H11 UNL     1      20.016  -0.148  54.945  1.00  0.00     0.167 HD
BRANCH  19  21
HETATM   21  C8  UNL     1      18.683  -0.977  53.374  1.00  0.00     0.035 A 
HETATM   22  C9  UNL     1      17.846  -0.418  52.449  1.00  0.00     0.029 A 
HETATM   23  C10 UNL     1      16.714  -1.009  51.937  1.00  0.00     0.004 A 
HETATM   24  C11 UNL     1      16.385  -2.270  52.383  1.00  0.00     0.024 A 
HETATM   25  C12 UNL     1      17.149  -2.960  53.326  1.00  0.00     0.036 A 
HETATM   26 CL1  UNL     1      16.801  -4.554  53.940  1.00  0.00    -0.084 Cl
HETATM   27  C13 UNL     1      18.270  -2.253  53.768  1.00  0.00     0.053 A 
ENDBRANCH  19  21
ENDBRANCH   7  19
BRANCH   1  28
HETATM   28  C2  UNL     1      21.476   6.476  50.837  1.00  0.00     0.240 C 
BRANCH  28  29
HETATM   29  O1  UNL     1      21.173   7.175  49.712  1.00  0.00    -0.390 OA
HETATM   30  C1  UNL     1      20.011   7.881  49.714  1.00  0.00     0.201 C 
ENDBRANCH  28  29
ENDBRANCH   1  28
TORSDOF 4
ENDMDL
MODEL 8
REMARK VINA RESULT:      -7.8      4.550      6.523
REMARK  4 active torsions:
REMARK  status: ('A' for Active; 'I' for Inactive)
REMARK    1  A    between atoms: O1_2  and  C2_3 
REMARK    2  A    between atoms: C2_3  and  C3_4 
REMARK    3  A    between atoms: C7_10  and  N2_11 
REMARK    4  A    between atoms: N2_11  and  C8_12 
ROOT
HETATM    1  C3  UNL     1      25.188   6.421  49.775  1.00  0.00     0.226 C 
HETATM    2  F1  UNL     1      25.565   6.872  50.988  1.00  0.00    -0.209 F 
HETATM    3  C4  UNL     1      25.107   4.881  49.856  1.00  0.00     0.081 C 
HETATM    4  C5  UNL     1      24.099   4.595  50.967  1.00  0.00     0.052 C 
HETATM    5  C6  UNL     1      23.829   3.158  51.025  1.00  0.00     0.092 C 
HETATM    6  N1  UNL     1      22.706   3.145  51.687  1.00  0.00    -0.246 NA
HETATM    7  C7  UNL     1      22.126   1.918  51.940  1.00  0.00     0.140 C 
HETATM    8  C14 UNL     1      20.854   2.217  52.172  1.00  0.00     0.048 C 
HETATM    9  C15 UNL     1      20.260   2.651  51.065  1.00  0.00     0.151 C 
HETATM   10  O2  UNL     1      20.726   3.895  50.543  1.00  0.00    -0.360 OA
HETATM   11  C16 UNL     1      19.769   4.772  50.009  1.00  0.00     0.204 C 
HETATM   12  C17 UNL     1      20.302   6.063  49.500  1.00  0.00     0.296 C 
HETATM   13  N3  UNL     1      20.961   6.798  50.553  1.00  0.00     0.085 N 
HETATM   14  C18 UNL     1      21.205   8.161  50.210  1.00  0.00     0.272 C 
HETATM   15  C19 UNL     1      22.177   8.477  49.154  1.00  0.00     0.056 C 
HETATM   16  C20 UNL     1      23.605   8.100  49.383  1.00  0.00     0.173 C 
HETATM   17  O3  UNL     1      23.847   6.789  49.549  1.00  0.00    -0.349 OA
HETATM   18  H21 UNL     1      20.387   6.777  51.407  1.00  0.00     0.315 HD
ENDROOT
BRANCH   7  19
HETATM   19  N2  UNL     1      22.725   0.630  51.942  1.00  0.00    -0.340 N 
HETATM   20  H11 UNL     1      22.740   0.220  50.962  1.00  0.00     0.167 HD
BRANCH  19  21
HETATM   21  C8  UNL     1      23.224   0.030  53.122  1.00  0.00     0.035 A 
HETATM   22  C9  UNL     1      22.547  -0.708  54.053  1.00  0.00     0.029 A 
HETATM   23  C10 UNL     1      23.100  -1.274  55.178  1.00  0.00     0.004 A 
HETATM   24  C11 UNL     1      24.448  -1.091  55.397  1.00  0.00     0.024 A 
HETATM   25  C12 UNL     1      25.262  -0.361  54.529  1.00  0.00     0.036 A 
HETATM   26 CL1  UNL     1      26.970  -0.085  54.736  1.00  0.00    -0.084 Cl
HETATM   27  C13 UNL     1      24.581   0.163  53.427  1.00  0.00     0.053 A 
ENDBRANCH  19  21
ENDBRANCH   7  19
BRANCH   1  28
HETATM   28  C2  UNL     1      26.101   6.794  48.692  1.00  0.00     0.240 C 
BRANCH  28  29
HETATM   29  O1  UNL     1      27.074   5.878  48.443  1.00  0.00    -0.390 OA
HETATM   30  C1  UNL     1      28.285   6.351  48.044  1.00  0.00     0.201 C 
ENDBRANCH  28  29
ENDBRANCH   1  28
TORSDOF 4
ENDMDL
MODEL 9
REMARK VINA RESULT:      -7.7      5.820      8.181
REMARK  4 active torsions:
REMARK  status: ('A' for Active; 'I' for Inactive)
REMARK    1  A    between atoms: O1_2  and  C2_3 
REMARK    2  A    between atoms: C2_3  and  C3_4 
REMARK    3  A    between atoms: C7_10  and  N2_11 
REMARK    4  A    between atoms: N2_11  and  C8_12 
ROOT
HETATM    1  C3  UNL     1      27.333   7.046  48.246  1.00  0.00     0.226 C 
HETATM    2  F1  UNL     1      27.470   7.720  49.405  1.00  0.00    -0.209 F 
HETATM    3  C4  UNL     1      27.507   5.544  48.558  1.00  0.00     0.081 C 
HETATM    4  C5  UNL     1      26.430   5.226  49.593  1.00  0.00     0.052 C 
HETATM    5  C6  UNL     1      26.405   3.786  49.847  1.00  0.00     0.092 C 
HETATM    6  N1  UNL     1      25.225   3.652  50.387  1.00  0.00    -0.246 NA
HETATM    7  C7  UNL     1      24.836   2.384  50.769  1.00  0.00     0.140 C 
HETATM    8  C14 UNL     1      23.513   2.467  50.824  1.00  0.00     0.048 C 
HETATM    9  C15 UNL     1      22.998   2.629  49.608  1.00  0.00     0.151 C 
HETATM   10  O2  UNL     1      23.308   3.855  48.948  1.00  0.00    -0.360 OA
HETATM   11  C16 UNL     1      22.290   4.456  48.191  1.00  0.00     0.204 C 
HETATM   12  C17 UNL     1      22.655   5.743  47.542  1.00  0.00     0.296 C 
HETATM   13  N3  UNL     1      23.040   6.725  48.528  1.00  0.00     0.085 N 
HETATM   14  C18 UNL     1      23.089   8.050  48.003  1.00  0.00     0.272 C 
HETATM   15  C19 UNL     1      24.119   8.397  47.013  1.00  0.00     0.056 C 
HETATM   16  C20 UNL     1      25.549   8.329  47.440  1.00  0.00     0.173 C 
HETATM   17  O3  UNL     1      25.989   7.122  47.832  1.00  0.00    -0.349 OA
HETATM   18  H21 UNL     1      22.374   6.712  49.313  1.00  0.00     0.315 HD
ENDROOT
BRANCH   7  19
HETATM   19  N2  UNL     1      25.641   1.244  51.033  1.00  0.00    -0.340 N 
HETATM   20  H11 UNL     1      25.921   0.764  50.128  1.00  0.00     0.167 HD
BRANCH  19  21
HETATM   21  C8  UNL     1      25.996   0.855  52.346  1.00  0.00     0.035 A 
HETATM   22  C9  UNL     1      25.271   0.120  53.241  1.00  0.00     0.029 A 
HETATM   23  C10 UNL     1      25.684  -0.233  54.505  1.00  0.00     0.004 A 
HETATM   24  C11 UNL     1      26.932   0.183  54.916  1.00  0.00     0.024 A 
HETATM   25  C12 UNL     1      27.780   0.940  54.106  1.00  0.00     0.036 A 
HETATM   26 CL1  UNL     1      29.368   1.503  54.551  1.00  0.00    -0.084 Cl
HETATM   27  C13 UNL     1      27.244   1.232  52.849  1.00  0.00     0.053 A 
ENDBRANCH  19  21
ENDBRANCH   7  19
BRANCH   1  28
HETATM   28  C2  UNL     1      28.299   7.434  47.214  1.00  0.00     0.240 C 
BRANCH  28  29
HETATM   29  O1  UNL     1      29.114   8.460  47.574  1.00  0.00    -0.390 OA
HETATM   30  C1  UNL     1      30.422   8.163  47.800  1.00  0.00     0.201 C 
ENDBRANCH  28  29
ENDBRANCH   1  28
TORSDOF 4
ENDMDL
