MODEL 1
REMARK VINA RESULT:      -7.9      0.000      0.000
REMARK  4 active torsions:
REMARK  status: ('A' for Active; 'I' for Inactive)
REMARK    1  A    between atoms: C2_2  and  C3_4 
REMARK    2  A    between atoms: C4_5  and  C5_6 
REMARK    3  A    between atoms: C14_17  and  C15_18 
REMARK    4  A    between atoms: C15_18  and  C16_20 
ROOT
HETATM    1  C5  UNL     1      21.345   1.789  51.724  1.00  0.00     0.052 C 
HETATM    2  C6  UNL     1      20.377   2.468  52.625  1.00  0.00     0.195 C 
HETATM    3  O1  UNL     1      19.761   3.632  52.218  1.00  0.00    -0.362 OA
HETATM    4  C7  UNL     1      18.619   3.928  51.426  1.00  0.00     0.134 C 
HETATM    5  C8  UNL     1      18.293   3.400  50.221  1.00  0.00     0.026 C 
HETATM    6  C9  UNL     1      19.051   2.532  49.276  1.00  0.00     0.028 C 
HETATM    7  C10 UNL     1      20.116   1.743  49.563  1.00  0.00     0.029 C 
HETATM    8  N1  UNL     1      20.657   2.021  48.232  1.00  0.00    -0.368 N 
HETATM    9  C11 UNL     1      22.068   2.079  47.854  1.00  0.00     0.088 C 
HETATM   10  C12 UNL     1      23.151   2.193  48.676  1.00  0.00     0.018 C 
HETATM   11  C13 UNL     1      23.234   2.496  50.130  1.00  0.00     0.013 C 
HETATM   12  C14 UNL     1      22.431   2.597  51.209  1.00  0.00     0.006 C 
HETATM   13  C20 UNL     1      20.640   0.935  50.697  1.00  0.00     0.151 C 
HETATM   14 CL1  UNL     1      19.352   0.044  51.530  1.00  0.00    -0.117 Cl
HETATM   15  H10 UNL     1      19.891   2.196  47.560  1.00  0.00     0.165 HD
ENDROOT
BRANCH  12  16
HETATM   16  C15 UNL     1      22.823   3.829  51.934  1.00  0.00     0.182 C 
HETATM   17  O2  UNL     1      23.590   3.744  52.927  1.00  0.00    -0.290 OA
BRANCH  16  18
HETATM   18  C16 UNL     1      22.584   5.250  51.861  1.00  0.00     0.190 C 
HETATM   19  N2  UNL     1      23.724   6.129  52.009  1.00  0.00    -0.323 N 
HETATM   20  C17 UNL     1      24.302   6.087  50.687  1.00  0.00     0.361 C 
HETATM   21  H15 UNL     1      24.295   6.767  52.643  1.00  0.00     0.165 HD
HETATM   22  O3  UNL     1      25.460   6.219  50.161  1.00  0.00    -0.238 OA
HETATM   23  O4  UNL     1      23.302   5.830  49.730  1.00  0.00    -0.296 OA
HETATM   24  C18 UNL     1      22.099   5.627  50.475  1.00  0.00     0.160 C 
HETATM   25  C19 UNL     1      21.264   6.871  50.459  1.00  0.00     0.042 C 
ENDBRANCH  16  18
ENDBRANCH  12  16
BRANCH   1  26
HETATM   26  C4  UNL     1      21.956   0.735  52.632  1.00  0.00    -0.005 C 
HETATM   27  C3  UNL     1      22.960   0.237  53.376  1.00  0.00     0.035 C 
BRANCH  27  28
HETATM   28  C2  UNL     1      23.195  -0.961  54.206  1.00  0.00     0.094 C 
HETATM   29  C1  UNL     1      21.970  -1.380  54.467  1.00  0.00     0.077 C 
HETATM   30  F1  UNL     1      24.565  -1.025  54.281  1.00  0.00    -0.211 F 
ENDBRANCH  27  28
ENDBRANCH   1  26
TORSDOF 4
ENDMDL
MODEL 2
REMARK VINA RESULT:      -7.6      2.218      2.853
REMARK  4 active torsions:
REMARK  status: ('A' for Active; 'I' for Inactive)
REMARK    1  A    between atoms: C2_2  and  C3_4 
REMARK    2  A    between atoms: C4_5  and  C5_6 
REMARK    3  A    between atoms: C14_17  and  C15_18 
REMARK    4  A    between atoms: C15_18  and  C16_20 
ROOT
HETATM    1  C5  UNL     1      23.181   2.524  51.190  1.00  0.00     0.052 C 
HETATM    2  C6  UNL     1      22.616   3.155  52.411  1.00  0.00     0.195 C 
HETATM    3  O1  UNL     1      21.406   3.813  52.347  1.00  0.00    -0.362 OA
HETATM    4  C7  UNL     1      20.048   3.404  52.416  1.00  0.00     0.134 C 
HETATM    5  C8  UNL     1      19.461   2.379  51.751  1.00  0.00     0.026 C 
HETATM    6  C9  UNL     1      19.946   1.501  50.649  1.00  0.00     0.028 C 
HETATM    7  C10 UNL     1      21.234   1.262  50.296  1.00  0.00     0.029 C 
HETATM    8  N1  UNL     1      20.812   1.161  48.899  1.00  0.00    -0.368 N 
HETATM    9  C11 UNL     1      21.600   1.510  47.718  1.00  0.00     0.088 C 
HETATM   10  C12 UNL     1      22.733   2.267  47.661  1.00  0.00     0.018 C 
HETATM   11  C13 UNL     1      23.381   3.117  48.696  1.00  0.00     0.013 C 
HETATM   12  C14 UNL     1      23.304   3.369  50.019  1.00  0.00     0.006 C 
HETATM   13  C20 UNL     1      22.573   1.165  50.937  1.00  0.00     0.151 C 
HETATM   14 CL1  UNL     1      22.506   0.308  52.489  1.00  0.00    -0.117 Cl
HETATM   15  H10 UNL     1      19.841   0.811  48.838  1.00  0.00     0.165 HD
ENDROOT
BRANCH  12  16
HETATM   16  C15 UNL     1      23.353   4.840  50.190  1.00  0.00     0.182 C 
HETATM   17  O2  UNL     1      22.340   5.529  49.907  1.00  0.00    -0.290 OA
BRANCH  16  18
HETATM   18  C16 UNL     1      24.289   5.849  50.623  1.00  0.00     0.190 C 
HETATM   19  N2  UNL     1      25.687   5.482  50.688  1.00  0.00    -0.323 N 
HETATM   20  C17 UNL     1      26.088   5.601  49.306  1.00  0.00     0.361 C 
HETATM   21  H15 UNL     1      26.512   5.177  51.288  1.00  0.00     0.165 HD
HETATM   22  O3  UNL     1      26.958   5.076  48.530  1.00  0.00    -0.238 OA
HETATM   23  O4  UNL     1      25.293   6.561  48.653  1.00  0.00    -0.296 OA
HETATM   24  C18 UNL     1      24.329   6.986  49.620  1.00  0.00     0.160 C 
HETATM   25  C19 UNL     1      24.744   8.293  50.225  1.00  0.00     0.042 C 
ENDBRANCH  16  18
ENDBRANCH  12  16
BRANCH   1  26
HETATM   26  C4  UNL     1      24.587   2.154  51.631  1.00  0.00    -0.005 C 
HETATM   27  C3  UNL     1      25.905   2.001  51.413  1.00  0.00     0.035 C 
BRANCH  27  28
HETATM   28  C2  UNL     1      27.083   1.565  52.188  1.00  0.00     0.094 C 
HETATM   29  C1  UNL     1      26.882   0.266  52.319  1.00  0.00     0.077 C 
HETATM   30  F1  UNL     1      27.784   2.732  52.376  1.00  0.00    -0.211 F 
ENDBRANCH  27  28
ENDBRANCH   1  26
TORSDOF 4
ENDMDL
MODEL 3
REMARK VINA RESULT:      -7.4      2.473      3.755
REMARK  4 active torsions:
REMARK  status: ('A' for Active; 'I' for Inactive)
REMARK    1  A    between atoms: C2_2  and  C3_4 
REMARK    2  A    between atoms: C4_5  and  C5_6 
REMARK    3  A    between atoms: C14_17  and  C15_18 
REMARK    4  A    between atoms: C15_18  and  C16_20 
ROOT
HETATM    1  C5  UNL     1      21.465   3.180  51.283  1.00  0.00     0.052 C 
HETATM    2  C6  UNL     1      21.643   4.349  52.185  1.00  0.00     0.195 C 
HETATM    3  O1  UNL     1      22.206   5.510  51.700  1.00  0.00    -0.362 OA
HETATM    4  C7  UNL     1      21.707   6.638  50.995  1.00  0.00     0.134 C 
HETATM    5  C8  UNL     1      20.905   6.637  49.902  1.00  0.00     0.026 C 
HETATM    6  C9  UNL     1      20.451   5.540  49.001  1.00  0.00     0.028 C 
HETATM    7  C10 UNL     1      20.421   4.212  49.277  1.00  0.00     0.029 C 
HETATM    8  N1  UNL     1      20.734   3.934  47.875  1.00  0.00    -0.368 N 
HETATM    9  C11 UNL     1      21.487   2.793  47.355  1.00  0.00     0.088 C 
HETATM   10  C12 UNL     1      22.297   1.940  48.045  1.00  0.00     0.018 C 
HETATM   11  C13 UNL     1      22.821   2.017  49.435  1.00  0.00     0.013 C 
HETATM   12  C14 UNL     1      22.640   2.726  50.568  1.00  0.00     0.006 C 
HETATM   13  C20 UNL     1      20.217   3.314  50.445  1.00  0.00     0.151 C 
HETATM   14 CL1  UNL     1      18.914   3.886  51.505  1.00  0.00    -0.117 Cl
HETATM   15  H10 UNL     1      20.357   4.679  47.265  1.00  0.00     0.165 HD
ENDROOT
BRANCH  12  16
HETATM   16  C15 UNL     1      23.984   3.066  51.093  1.00  0.00     0.182 C 
HETATM   17  O2  UNL     1      24.753   3.784  50.403  1.00  0.00    -0.290 OA
BRANCH  16  18
HETATM   18  C16 UNL     1      24.784   2.813  52.266  1.00  0.00     0.190 C 
HETATM   19  N2  UNL     1      24.213   1.975  53.297  1.00  0.00    -0.323 N 
HETATM   20  C17 UNL     1      24.446   0.653  52.766  1.00  0.00     0.361 C 
HETATM   21  H15 UNL     1      23.718   1.914  54.239  1.00  0.00     0.165 HD
HETATM   22  O3  UNL     1      23.903  -0.502  52.843  1.00  0.00    -0.238 OA
HETATM   23  O4  UNL     1      25.586   0.658  51.940  1.00  0.00    -0.296 OA
HETATM   24  C18 UNL     1      26.021   2.019  51.892  1.00  0.00     0.160 C 
HETATM   25  C19 UNL     1      27.166   2.232  52.834  1.00  0.00     0.042 C 
ENDBRANCH  16  18
ENDBRANCH  12  16
BRANCH   1  26
HETATM   26  C4  UNL     1      21.069   2.077  52.250  1.00  0.00    -0.005 C 
HETATM   27  C3  UNL     1      20.767   0.800  52.546  1.00  0.00     0.035 C 
BRANCH  27  28
HETATM   28  C2  UNL     1      20.389   0.032  53.748  1.00  0.00     0.094 C 
HETATM   29  C1  UNL     1      19.316  -0.626  53.348  1.00  0.00     0.077 C 
HETATM   30  F1  UNL     1      21.347   0.393  54.664  1.00  0.00    -0.211 F 
ENDBRANCH  27  28
ENDBRANCH   1  26
TORSDOF 4
ENDMDL
MODEL 4
REMARK VINA RESULT:      -7.3      3.487      5.868
REMARK  4 active torsions:
REMARK  status: ('A' for Active; 'I' for Inactive)
REMARK    1  A    between atoms: C2_2  and  C3_4 
REMARK    2  A    between atoms: C4_5  and  C5_6 
REMARK    3  A    between atoms: C14_17  and  C15_18 
REMARK    4  A    between atoms: C15_18  and  C16_20 
ROOT
HETATM    1  C5  UNL     1      23.872   3.565  49.752  1.00  0.00     0.052 C 
HETATM    2  C6  UNL     1      23.673   2.435  48.807  1.00  0.00     0.195 C 
HETATM    3  O1  UNL     1      22.688   1.501  49.052  1.00  0.00    -0.362 OA
HETATM    4  C7  UNL     1      21.293   1.438  48.795  1.00  0.00     0.134 C 
HETATM    5  C8  UNL     1      20.366   2.396  49.039  1.00  0.00     0.026 C 
HETATM    6  C9  UNL     1      20.438   3.685  49.783  1.00  0.00     0.028 C 
HETATM    7  C10 UNL     1      21.553   4.400  50.078  1.00  0.00     0.029 C 
HETATM    8  N1  UNL     1      20.931   4.814  51.335  1.00  0.00    -0.368 N 
HETATM    9  C11 UNL     1      21.614   5.119  52.592  1.00  0.00     0.088 C 
HETATM   10  C12 UNL     1      22.890   4.798  52.950  1.00  0.00     0.018 C 
HETATM   11  C13 UNL     1      23.879   3.896  52.301  1.00  0.00     0.013 C 
HETATM   12  C14 UNL     1      24.057   3.221  51.147  1.00  0.00     0.006 C 
HETATM   13  C20 UNL     1      22.891   4.683  49.492  1.00  0.00     0.151 C 
HETATM   14 CL1  UNL     1      22.810   4.932  47.738  1.00  0.00    -0.117 Cl
HETATM   15  H10 UNL     1      19.903   4.856  51.234  1.00  0.00     0.165 HD
ENDROOT
BRANCH  12  16
HETATM   16  C15 UNL     1      24.524   1.860  51.502  1.00  0.00     0.182 C 
HETATM   17  O2  UNL     1      23.700   1.020  51.944  1.00  0.00    -0.290 OA
BRANCH  16  18
HETATM   18  C16 UNL     1      25.752   1.104  51.505  1.00  0.00     0.190 C 
HETATM   19  N2  UNL     1      26.978   1.819  51.786  1.00  0.00    -0.323 N 
HETATM   20  C17 UNL     1      26.945   1.907  53.226  1.00  0.00     0.361 C 
HETATM   21  H15 UNL     1      27.857   2.287  51.406  1.00  0.00     0.165 HD
HETATM   22  O3  UNL     1      27.385   2.695  54.132  1.00  0.00    -0.238 OA
HETATM   23  O4  UNL     1      26.227   0.820  53.760  1.00  0.00    -0.296 OA
HETATM   24  C18 UNL     1      25.737   0.090  52.633  1.00  0.00     0.160 C 
HETATM   25  C19 UNL     1      26.607  -1.101  52.369  1.00  0.00     0.042 C 
ENDBRANCH  16  18
ENDBRANCH  12  16
BRANCH   1  26
HETATM   26  C4  UNL     1      25.173   4.178  49.261  1.00  0.00    -0.005 C 
HETATM   27  C3  UNL     1      26.132   5.121  49.284  1.00  0.00     0.035 C 
BRANCH  27  28
HETATM   28  C2  UNL     1      27.389   5.399  48.561  1.00  0.00     0.094 C 
HETATM   29  C1  UNL     1      27.341   6.707  48.386  1.00  0.00     0.077 C 
HETATM   30  F1  UNL     1      27.963   4.156  48.442  1.00  0.00    -0.211 F 
ENDBRANCH  27  28
ENDBRANCH   1  26
TORSDOF 4
ENDMDL
MODEL 5
REMARK VINA RESULT:      -7.2      8.310     11.580
REMARK  4 active torsions:
REMARK  status: ('A' for Active; 'I' for Inactive)
REMARK    1  A    between atoms: C2_2  and  C3_4 
REMARK    2  A    between atoms: C4_5  and  C5_6 
REMARK    3  A    between atoms: C14_17  and  C15_18 
REMARK    4  A    between atoms: C15_18  and  C16_20 
ROOT
HETATM    1  C5  UNL     1      29.828   8.499  47.902  1.00  0.00     0.052 C 
HETATM    2  C6  UNL     1      30.053   9.048  49.265  1.00  0.00     0.195 C 
HETATM    3  O1  UNL     1      30.917  10.107  49.445  1.00  0.00    -0.362 OA
HETATM    4  C7  UNL     1      30.798  11.517  49.332  1.00  0.00     0.134 C 
HETATM    5  C8  UNL     1      30.241  12.218  48.314  1.00  0.00     0.026 C 
HETATM    6  C9  UNL     1      29.764  11.805  46.964  1.00  0.00     0.028 C 
HETATM    7  C10 UNL     1      29.420  10.555  46.564  1.00  0.00     0.029 C 
HETATM    8  N1  UNL     1      29.941  10.860  45.231  1.00  0.00    -0.368 N 
HETATM    9  C11 UNL     1      30.541   9.917  44.288  1.00  0.00     0.088 C 
HETATM   10  C12 UNL     1      31.016   8.665  44.544  1.00  0.00     0.018 C 
HETATM   11  C13 UNL     1      31.263   7.970  45.836  1.00  0.00     0.013 C 
HETATM   12  C14 UNL     1      31.007   8.118  47.152  1.00  0.00     0.006 C 
HETATM   13  C20 UNL     1      28.819   9.320  47.135  1.00  0.00     0.151 C 
HETATM   14 CL1  UNL     1      27.473   9.682  48.233  1.00  0.00    -0.117 Cl
HETATM   15  H10 UNL     1      29.845  11.869  45.027  1.00  0.00     0.165 HD
ENDROOT
BRANCH  12  16
HETATM   16  C15 UNL     1      32.263   7.818  47.880  1.00  0.00     0.182 C 
HETATM   17  O2  UNL     1      33.210   8.644  47.845  1.00  0.00    -0.290 OA
BRANCH  16  18
HETATM   18  C16 UNL     1      32.811   6.769  48.706  1.00  0.00     0.190 C 
HETATM   19  N2  UNL     1      31.974   5.620  48.972  1.00  0.00    -0.323 N 
HETATM   20  C17 UNL     1      32.137   4.850  47.762  1.00  0.00     0.361 C 
HETATM   21  H15 UNL     1      31.319   5.118  49.645  1.00  0.00     0.165 HD
HETATM   22  O3  UNL     1      31.455   4.008  47.082  1.00  0.00    -0.238 OA
HETATM   23  O4  UNL     1      33.395   5.111  47.188  1.00  0.00    -0.296 OA
HETATM   24  C18 UNL     1      33.990   6.120  48.008  1.00  0.00     0.160 C 
HETATM   25  C19 UNL     1      34.972   5.503  48.958  1.00  0.00     0.042 C 
ENDBRANCH  16  18
ENDBRANCH  12  16
BRANCH   1  26
HETATM   26  C4  UNL     1      29.041   7.231  48.184  1.00  0.00    -0.005 C 
HETATM   27  C3  UNL     1      27.917   6.493  48.159  1.00  0.00     0.035 C 
BRANCH  27  28
HETATM   28  C2  UNL     1      27.506   5.140  48.583  1.00  0.00     0.094 C 
HETATM   29  C1  UNL     1      26.314   5.350  49.113  1.00  0.00     0.077 C 
HETATM   30  F1  UNL     1      28.571   4.357  48.208  1.00  0.00    -0.211 F 
ENDBRANCH  27  28
ENDBRANCH   1  26
TORSDOF 4
ENDMDL
MODEL 6
REMARK VINA RESULT:      -6.9      3.483      6.353
REMARK  4 active torsions:
REMARK  status: ('A' for Active; 'I' for Inactive)
REMARK    1  A    between atoms: C2_2  and  C3_4 
REMARK    2  A    between atoms: C4_5  and  C5_6 
REMARK    3  A    between atoms: C14_17  and  C15_18 
REMARK    4  A    between atoms: C15_18  and  C16_20 
ROOT
HETATM    1  C5  UNL     1      23.307   5.239  48.938  1.00  0.00     0.052 C 
HETATM    2  C6  UNL     1      22.451   6.254  49.606  1.00  0.00     0.195 C 
HETATM    3  O1  UNL     1      22.883   6.862  50.766  1.00  0.00    -0.362 OA
HETATM    4  C7  UNL     1      23.726   7.968  51.053  1.00  0.00     0.134 C 
HETATM    5  C8  UNL     1      24.947   8.233  50.526  1.00  0.00     0.026 C 
HETATM    6  C9  UNL     1      25.858   7.424  49.667  1.00  0.00     0.028 C 
HETATM    7  C10 UNL     1      25.523   6.366  48.886  1.00  0.00     0.029 C 
HETATM    8  N1  UNL     1      26.827   5.767  49.174  1.00  0.00    -0.368 N 
HETATM    9  C11 UNL     1      27.139   4.340  49.245  1.00  0.00     0.088 C 
HETATM   10  C12 UNL     1      26.267   3.298  49.367  1.00  0.00     0.018 C 
HETATM   11  C13 UNL     1      24.810   3.286  49.667  1.00  0.00     0.013 C 
HETATM   12  C14 UNL     1      23.769   4.138  49.758  1.00  0.00     0.006 C 
HETATM   13  C20 UNL     1      24.368   5.888  48.081  1.00  0.00     0.151 C 
HETATM   14 CL1  UNL     1      23.597   7.205  47.176  1.00  0.00    -0.117 Cl
HETATM   15  H10 UNL     1      27.534   6.502  49.343  1.00  0.00     0.165 HD
ENDROOT
BRANCH  12  16
HETATM   16  C15 UNL     1      23.025   3.791  50.992  1.00  0.00     0.182 C 
HETATM   17  O2  UNL     1      23.515   4.085  52.112  1.00  0.00    -0.290 OA
BRANCH  16  18
HETATM   18  C16 UNL     1      21.784   3.157  51.365  1.00  0.00     0.190 C 
HETATM   19  N2  UNL     1      20.884   2.769  50.302  1.00  0.00    -0.323 N 
HETATM   20  C17 UNL     1      21.469   1.526  49.858  1.00  0.00     0.361 C 
HETATM   21  H15 UNL     1      20.013   2.993  49.730  1.00  0.00     0.165 HD
HETATM   22  O3  UNL     1      21.531   0.848  48.775  1.00  0.00    -0.238 OA
HETATM   23  O4  UNL     1      22.152   0.907  50.921  1.00  0.00    -0.296 OA
HETATM   24  C18 UNL     1      22.061   1.817  52.020  1.00  0.00     0.160 C 
HETATM   25  C19 UNL     1      20.979   1.385  52.962  1.00  0.00     0.042 C 
ENDBRANCH  16  18
ENDBRANCH  12  16
BRANCH   1  26
HETATM   26  C4  UNL     1      22.374   4.662  47.888  1.00  0.00    -0.005 C 
HETATM   27  C3  UNL     1      22.084   3.812  46.886  1.00  0.00     0.035 C 
BRANCH  27  28
HETATM   28  C2  UNL     1      20.926   3.527  46.016  1.00  0.00     0.094 C 
HETATM   29  C1  UNL     1      21.328   3.973  44.840  1.00  0.00     0.077 C 
HETATM   30  F1  UNL     1      20.026   2.943  46.874  1.00  0.00    -0.211 F 
ENDBRANCH  27  28
ENDBRANCH   1  26
TORSDOF 4
ENDMDL
MODEL 7
REMARK VINA RESULT:      -6.8      7.046     10.320
REMARK  4 active torsions:
REMARK  status: ('A' for Active; 'I' for Inactive)
REMARK    1  A    between atoms: C2_2  and  C3_4 
REMARK    2  A    between atoms: C4_5  and  C5_6 
REMARK    3  A    between atoms: C14_17  and  C15_18 
REMARK    4  A    between atoms: C15_18  and  C16_20 
ROOT
HETATM    1  C5  UNL     1      27.846   8.987  48.016  1.00  0.00     0.052 C 
HETATM    2  C6  UNL     1      28.166   9.733  49.261  1.00  0.00     0.195 C 
HETATM    3  O1  UNL     1      28.876  10.913  49.192  1.00  0.00    -0.362 OA
HETATM    4  C7  UNL     1      28.529  12.268  48.945  1.00  0.00     0.134 C 
HETATM    5  C8  UNL     1      27.740  12.750  47.953  1.00  0.00     0.026 C 
HETATM    6  C9  UNL     1      27.155  12.104  46.745  1.00  0.00     0.028 C 
HETATM    7  C10 UNL     1      26.954  10.778  46.539  1.00  0.00     0.029 C 
HETATM    8  N1  UNL     1      27.238  10.974  45.118  1.00  0.00    -0.368 N 
HETATM    9  C11 UNL     1      27.842  10.007  44.203  1.00  0.00     0.088 C 
HETATM   10  C12 UNL     1      28.532   8.874  44.519  1.00  0.00     0.018 C 
HETATM   11  C13 UNL     1      29.053   8.392  45.826  1.00  0.00     0.013 C 
HETATM   12  C14 UNL     1      28.957   8.674  47.142  1.00  0.00     0.006 C 
HETATM   13  C20 UNL     1      26.630   9.558  47.327  1.00  0.00     0.151 C 
HETATM   14 CL1  UNL     1      25.404   9.875  48.570  1.00  0.00    -0.117 Cl
HETATM   15  H10 UNL     1      26.963  11.926  44.822  1.00  0.00     0.165 HD
ENDROOT
BRANCH  12  16
HETATM   16  C15 UNL     1      30.330   8.642  47.699  1.00  0.00     0.182 C 
HETATM   17  O2  UNL     1      31.166   9.508  47.333  1.00  0.00    -0.290 OA
BRANCH  16  18
HETATM   18  C16 UNL     1      31.104   7.853  48.626  1.00  0.00     0.190 C 
HETATM   19  N2  UNL     1      30.451   6.724  49.252  1.00  0.00    -0.323 N 
HETATM   20  C17 UNL     1      30.538   5.722  48.216  1.00  0.00     0.361 C 
HETATM   21  H15 UNL     1      29.957   6.329  50.109  1.00  0.00     0.165 HD
HETATM   22  O3  UNL     1      29.874   4.696  47.841  1.00  0.00    -0.238 OA
HETATM   23  O4  UNL     1      31.668   5.957  47.411  1.00  0.00    -0.296 OA
HETATM   24  C18 UNL     1      32.246   7.169  47.901  1.00  0.00     0.160 C 
HETATM   25  C19 UNL     1      33.413   6.863  48.791  1.00  0.00     0.042 C 
ENDBRANCH  16  18
ENDBRANCH  12  16
BRANCH   1  26
HETATM   26  C4  UNL     1      27.306   7.672  48.551  1.00  0.00    -0.005 C 
HETATM   27  C3  UNL     1      26.825   6.426  48.392  1.00  0.00     0.035 C 
BRANCH  27  28
HETATM   28  C2  UNL     1      26.355   5.331  49.264  1.00  0.00     0.094 C 
HETATM   29  C1  UNL     1      25.451   5.928  50.020  1.00  0.00     0.077 C 
HETATM   30  F1  UNL     1      27.098   4.255  48.843  1.00  0.00    -0.211 F 
ENDBRANCH  27  28
ENDBRANCH   1  26
TORSDOF 4
ENDMDL
MODEL 8
REMARK VINA RESULT:      -6.7      2.702      5.158
REMARK  4 active torsions:
REMARK  status: ('A' for Active; 'I' for Inactive)
REMARK    1  A    between atoms: C2_2  and  C3_4 
REMARK    2  A    between atoms: C4_5  and  C5_6 
REMARK    3  A    between atoms: C14_17  and  C15_18 
REMARK    4  A    between atoms: C15_18  and  C16_20 
ROOT
HETATM    1  C5  UNL     1      22.986   2.819  50.149  1.00  0.00     0.052 C 
HETATM    2  C6  UNL     1      22.820   2.065  48.879  1.00  0.00     0.195 C 
HETATM    3  O1  UNL     1      21.899   2.487  47.944  1.00  0.00    -0.362 OA
HETATM    4  C7  UNL     1      21.912   3.452  46.902  1.00  0.00     0.134 C 
HETATM    5  C8  UNL     1      22.346   4.735  46.972  1.00  0.00     0.026 C 
HETATM    6  C9  UNL     1      22.753   5.587  48.125  1.00  0.00     0.028 C 
HETATM    7  C10 UNL     1      23.154   5.169  49.352  1.00  0.00     0.029 C 
HETATM    8  N1  UNL     1      22.520   6.349  49.940  1.00  0.00    -0.368 N 
HETATM    9  C11 UNL     1      21.922   6.451  51.270  1.00  0.00     0.088 C 
HETATM   10  C12 UNL     1      21.554   5.436  52.103  1.00  0.00     0.018 C 
HETATM   11  C13 UNL     1      21.449   3.973  51.856  1.00  0.00     0.013 C 
HETATM   12  C14 UNL     1      21.786   3.057  50.924  1.00  0.00     0.006 C 
HETATM   13  C20 UNL     1      23.879   4.023  49.965  1.00  0.00     0.151 C 
HETATM   14 CL1  UNL     1      25.270   3.517  48.988  1.00  0.00    -0.117 Cl
HETATM   15  H10 UNL     1      22.531   7.137  49.271  1.00  0.00     0.165 HD
ENDROOT
BRANCH  12  16
HETATM   16  C15 UNL     1      20.609   2.178  50.726  1.00  0.00     0.182 C 
HETATM   17  O2  UNL     1      19.570   2.648  50.195  1.00  0.00    -0.290 OA
BRANCH  16  18
HETATM   18  C16 UNL     1      20.227   0.809  50.972  1.00  0.00     0.190 C 
HETATM   19  N2  UNL     1      21.185  -0.044  51.639  1.00  0.00    -0.323 N 
HETATM   20  C17 UNL     1      21.002   0.330  53.021  1.00  0.00     0.361 C 
HETATM   21  H15 UNL     1      21.934  -0.797  51.555  1.00  0.00     0.165 HD
HETATM   22  O3  UNL     1      21.704   0.363  54.089  1.00  0.00    -0.238 OA
HETATM   23  O4  UNL     1      19.684   0.777  53.229  1.00  0.00    -0.296 OA
HETATM   24  C18 UNL     1      19.062   0.759  51.942  1.00  0.00     0.160 C 
HETATM   25  C19 UNL     1      18.219  -0.470  51.791  1.00  0.00     0.042 C 
ENDBRANCH  16  18
ENDBRANCH  12  16
BRANCH   1  26
HETATM   26  C4  UNL     1      23.877   1.898  50.964  1.00  0.00    -0.005 C 
HETATM   27  C3  UNL     1      24.487   1.529  52.105  1.00  0.00     0.035 C 
BRANCH  27  28
HETATM   28  C2  UNL     1      25.379   0.440  52.548  1.00  0.00     0.094 C 
HETATM   29  C1  UNL     1      26.563   0.840  52.119  1.00  0.00     0.077 C 
HETATM   30  F1  UNL     1      24.523  -0.430  53.178  1.00  0.00    -0.211 F 
ENDBRANCH  27  28
ENDBRANCH   1  26
TORSDOF 4
ENDMDL
MODEL 9
REMARK VINA RESULT:      -6.6     10.512     13.589
REMARK  4 active torsions:
REMARK  status: ('A' for Active; 'I' for Inactive)
REMARK    1  A    between atoms: C2_2  and  C3_4 
REMARK    2  A    between atoms: C4_5  and  C5_6 
REMARK    3  A    between atoms: C14_17  and  C15_18 
REMARK    4  A    between atoms: C15_18  and  C16_20 
ROOT
HETATM    1  C5  UNL     1      32.397   6.346  47.025  1.00  0.00     0.052 C 
HETATM    2  C6  UNL     1      32.197   4.920  46.657  1.00  0.00     0.195 C 
HETATM    3  O1  UNL     1      33.283   4.138  46.323  1.00  0.00    -0.362 OA
HETATM    4  C7  UNL     1      34.239   3.396  47.066  1.00  0.00     0.134 C 
HETATM    5  C8  UNL     1      34.942   3.810  48.149  1.00  0.00     0.026 C 
HETATM    6  C9  UNL     1      35.095   5.149  48.785  1.00  0.00     0.028 C 
HETATM    7  C10 UNL     1      34.265   6.215  48.661  1.00  0.00     0.029 C 
HETATM    8  N1  UNL     1      35.424   7.103  48.753  1.00  0.00    -0.368 N 
HETATM    9  C11 UNL     1      35.576   8.414  48.122  1.00  0.00     0.088 C 
HETATM   10  C12 UNL     1      34.841   8.942  47.102  1.00  0.00     0.018 C 
HETATM   11  C13 UNL     1      33.840   8.308  46.202  1.00  0.00     0.013 C 
HETATM   12  C14 UNL     1      33.139   7.162  46.085  1.00  0.00     0.006 C 
HETATM   13  C20 UNL     1      32.816   6.492  48.468  1.00  0.00     0.151 C 
HETATM   14 CL1  UNL     1      31.798   5.409  49.437  1.00  0.00    -0.117 Cl
HETATM   15  H10 UNL     1      36.165   6.672  49.331  1.00  0.00     0.165 HD
ENDROOT
BRANCH  12  16
HETATM   16  C15 UNL     1      33.224   6.737  44.668  1.00  0.00     0.182 C 
HETATM   17  O2  UNL     1      34.290   6.227  44.239  1.00  0.00    -0.290 OA
BRANCH  16  18
HETATM   18  C16 UNL     1      32.389   6.718  43.492  1.00  0.00     0.190 C 
HETATM   19  N2  UNL     1      31.377   7.745  43.372  1.00  0.00    -0.323 N 
HETATM   20  C17 UNL     1      32.149   8.866  42.892  1.00  0.00     0.361 C 
HETATM   21  H15 UNL     1      30.353   8.019  43.478  1.00  0.00     0.165 HD
HETATM   22  O3  UNL     1      32.095  10.142  42.954  1.00  0.00    -0.238 OA
HETATM   23  O4  UNL     1      33.261   8.409  42.160  1.00  0.00    -0.296 OA
HETATM   24  C18 UNL     1      33.225   6.983  42.255  1.00  0.00     0.160 C 
HETATM   25  C19 UNL     1      32.639   6.395  41.007  1.00  0.00     0.042 C 
ENDBRANCH  16  18
ENDBRANCH  12  16
BRANCH   1  26
HETATM   26  C4  UNL     1      30.975   6.878  47.063  1.00  0.00    -0.005 C 
HETATM   27  C3  UNL     1      29.678   6.795  47.409  1.00  0.00     0.035 C 
BRANCH  27  28
HETATM   28  C2  UNL     1      28.462   7.614  47.240  1.00  0.00     0.094 C 
HETATM   29  C1  UNL     1      27.957   7.641  48.461  1.00  0.00     0.077 C 
HETATM   30  F1  UNL     1      28.478   7.927  45.903  1.00  0.00    -0.211 F 
ENDBRANCH  27  28
ENDBRANCH   1  26
TORSDOF 4
ENDMDL
