MODEL 1
REMARK VINA RESULT:      -8.6      0.000      0.000
REMARK  0 active torsions:
REMARK  status: ('A' for Active; 'I' for Inactive)
ROOT
HETATM    1  O1  UNL     1      21.977   2.540  52.410  1.00  0.00    -0.268 OA
HETATM    2  C1  UNL     1      21.820   1.812  51.458  1.00  0.00     0.252 C 
HETATM    3  N1  UNL     1      22.841   1.398  50.443  1.00  0.00    -0.324 N 
HETATM    4  C2  UNL     1      22.957   2.562  49.547  1.00  0.00     0.049 C 
HETATM    5  C3  UNL     1      22.191   2.247  48.547  1.00  0.00     0.001 C 
HETATM    6  C4  UNL     1      20.900   1.927  48.671  1.00  0.00     0.015 C 
HETATM    7  C5  UNL     1      20.073   1.180  49.686  1.00  0.00     0.014 C 
HETATM    8  C6  UNL     1      20.647   1.064  50.899  1.00  0.00     0.013 C 
HETATM    9  C7  UNL     1      20.331   0.223  52.064  1.00  0.00     0.071 C 
HETATM   10  C8  UNL     1      21.491  -0.079  52.972  1.00  0.00    -0.021 C 
HETATM   11  C9  UNL     1      22.813  -0.028  53.197  1.00  0.00     0.010 C 
HETATM   12  C10 UNL     1      24.170   0.286  52.878  1.00  0.00    -0.009 A 
HETATM   13  C11 UNL     1      25.101  -0.566  53.450  1.00  0.00     0.014 A 
HETATM   14  C12 UNL     1      26.463  -0.527  53.282  1.00  0.00     0.002 A 
HETATM   15  C13 UNL     1      27.094   0.404  52.492  1.00  0.00     0.013 A 
HETATM   16  C14 UNL     1      26.170   1.278  51.901  1.00  0.00    -0.010 A 
HETATM   17  C15 UNL     1      26.426   2.328  51.000  1.00  0.00     0.023 A 
HETATM   18  C16 UNL     1      25.255   2.982  50.568  1.00  0.00     0.110 A 
HETATM   19  N2  UNL     1      24.522   2.131  51.351  1.00  0.00    -0.348 N 
HETATM   20  C17 UNL     1      24.835   1.155  52.132  1.00  0.00     0.052 A 
HETATM   21  C18 UNL     1      23.879   3.196  50.516  1.00  0.00     0.172 A 
HETATM   22  H1  UNL     1      23.425   0.624  50.199  1.00  0.00     0.169 HD
ENDROOT
TORSDOF 0
ENDMDL
MODEL 2
REMARK VINA RESULT:      -8.6      1.869      4.292
REMARK  0 active torsions:
REMARK  status: ('A' for Active; 'I' for Inactive)
ROOT
HETATM    1  O1  UNL     1      24.955   2.588  53.591  1.00  0.00    -0.268 OA
HETATM    2  C1  UNL     1      24.306   1.863  52.875  1.00  0.00     0.252 C 
HETATM    3  N1  UNL     1      23.469   2.251  51.695  1.00  0.00    -0.324 N 
HETATM    4  C2  UNL     1      22.232   2.790  52.288  1.00  0.00     0.049 C 
HETATM    5  C3  UNL     1      21.411   1.785  52.231  1.00  0.00     0.001 C 
HETATM    6  C4  UNL     1      21.661   0.589  52.771  1.00  0.00     0.015 C 
HETATM    7  C5  UNL     1      22.885  -0.274  52.944  1.00  0.00     0.014 C 
HETATM    8  C6  UNL     1      24.054   0.385  52.838  1.00  0.00     0.013 C 
HETATM    9  C7  UNL     1      25.440  -0.083  52.680  1.00  0.00     0.071 C 
HETATM   10  C8  UNL     1      26.373   0.886  52.008  1.00  0.00    -0.021 C 
HETATM   11  C9  UNL     1      26.541   2.034  51.335  1.00  0.00     0.010 C 
HETATM   12  C10 UNL     1      26.109   3.240  50.702  1.00  0.00    -0.009 A 
HETATM   13  C11 UNL     1      26.914   3.653  49.652  1.00  0.00     0.014 A 
HETATM   14  C12 UNL     1      26.716   4.744  48.844  1.00  0.00     0.002 A 
HETATM   15  C13 UNL     1      25.646   5.596  48.984  1.00  0.00     0.013 A 
HETATM   16  C14 UNL     1      24.815   5.197  50.042  1.00  0.00    -0.010 A 
HETATM   17  C15 UNL     1      23.609   5.786  50.464  1.00  0.00     0.023 A 
HETATM   18  C16 UNL     1      23.006   5.100  51.536  1.00  0.00     0.110 A 
HETATM   19  N2  UNL     1      24.045   4.207  51.515  1.00  0.00    -0.348 N 
HETATM   20  C17 UNL     1      25.101   4.095  50.786  1.00  0.00     0.052 A 
HETATM   21  C18 UNL     1      22.913   4.089  52.490  1.00  0.00     0.172 A 
HETATM   22  H1  UNL     1      23.487   2.253  50.695  1.00  0.00     0.169 HD
ENDROOT
TORSDOF 0
ENDMDL
MODEL 3
REMARK VINA RESULT:      -8.5      1.000      5.486
REMARK  0 active torsions:
REMARK  status: ('A' for Active; 'I' for Inactive)
ROOT
HETATM    1  O1  UNL     1      24.515   2.926  52.835  1.00  0.00    -0.268 OA
HETATM    2  C1  UNL     1      25.162   1.980  52.449  1.00  0.00     0.252 C 
HETATM    3  N1  UNL     1      24.652   0.654  51.973  1.00  0.00    -0.324 N 
HETATM    4  C2  UNL     1      24.311  -0.070  53.211  1.00  0.00     0.049 C 
HETATM    5  C3  UNL     1      25.353  -0.818  53.415  1.00  0.00     0.001 C 
HETATM    6  C4  UNL     1      26.599  -0.346  53.521  1.00  0.00     0.015 C 
HETATM    7  C5  UNL     1      27.383   0.765  52.872  1.00  0.00     0.014 C 
HETATM    8  C6  UNL     1      26.629   1.715  52.288  1.00  0.00     0.013 C 
HETATM    9  C7  UNL     1      26.958   2.798  51.348  1.00  0.00     0.071 C 
HETATM   10  C8  UNL     1      25.826   3.255  50.471  1.00  0.00    -0.021 C 
HETATM   11  C9  UNL     1      24.574   3.067  50.026  1.00  0.00     0.010 C 
HETATM   12  C10 UNL     1      23.318   2.391  49.939  1.00  0.00    -0.009 A 
HETATM   13  C11 UNL     1      22.681   2.529  48.716  1.00  0.00     0.014 A 
HETATM   14  C12 UNL     1      21.491   1.956  48.340  1.00  0.00     0.002 A 
HETATM   15  C13 UNL     1      20.757   1.141  49.168  1.00  0.00     0.013 A 
HETATM   16  C14 UNL     1      21.384   0.986  50.414  1.00  0.00    -0.010 A 
HETATM   17  C15 UNL     1      20.964   0.199  51.502  1.00  0.00     0.023 A 
HETATM   18  C16 UNL     1      21.858   0.239  52.589  1.00  0.00     0.110 A 
HETATM   19  N2  UNL     1      22.655   1.090  51.869  1.00  0.00    -0.348 N 
HETATM   20  C17 UNL     1      22.567   1.599  50.689  1.00  0.00     0.052 A 
HETATM   21  C18 UNL     1      23.015   0.643  53.254  1.00  0.00     0.172 A 
HETATM   22  H1  UNL     1      24.487   0.141  51.131  1.00  0.00     0.169 HD
ENDROOT
TORSDOF 0
ENDMDL
MODEL 4
REMARK VINA RESULT:      -8.5      1.758      4.082
REMARK  0 active torsions:
REMARK  status: ('A' for Active; 'I' for Inactive)
ROOT
HETATM    1  O1  UNL     1      23.975   2.690  49.531  1.00  0.00    -0.268 OA
HETATM    2  C1  UNL     1      24.107   3.572  50.347  1.00  0.00     0.252 C 
HETATM    3  N1  UNL     1      23.858   3.501  51.823  1.00  0.00    -0.324 N 
HETATM    4  C2  UNL     1      22.392   3.589  51.948  1.00  0.00     0.049 C 
HETATM    5  C3  UNL     1      22.191   4.843  52.222  1.00  0.00     0.001 C 
HETATM    6  C4  UNL     1      22.619   5.849  51.455  1.00  0.00     0.015 C 
HETATM    7  C5  UNL     1      23.842   6.112  50.613  1.00  0.00     0.014 C 
HETATM    8  C6  UNL     1      24.534   5.008  50.272  1.00  0.00     0.013 C 
HETATM    9  C7  UNL     1      25.879   4.821  49.707  1.00  0.00     0.071 C 
HETATM   10  C8  UNL     1      26.528   3.500  50.015  1.00  0.00    -0.021 C 
HETATM   11  C9  UNL     1      26.510   2.347  50.702  1.00  0.00     0.010 C 
HETATM   12  C10 UNL     1      25.980   1.405  51.636  1.00  0.00    -0.009 A 
HETATM   13  C11 UNL     1      26.938   0.613  52.250  1.00  0.00     0.014 A 
HETATM   14  C12 UNL     1      26.721  -0.340  53.214  1.00  0.00     0.002 A 
HETATM   15  C13 UNL     1      25.473  -0.637  53.708  1.00  0.00     0.013 A 
HETATM   16  C14 UNL     1      24.486   0.155  53.100  1.00  0.00    -0.010 A 
HETATM   17  C15 UNL     1      23.106   0.173  53.369  1.00  0.00     0.023 A 
HETATM   18  C16 UNL     1      22.407   1.125  52.602  1.00  0.00     0.110 A 
HETATM   19  N2  UNL     1      23.591   1.480  52.011  1.00  0.00    -0.348 N 
HETATM   20  C17 UNL     1      24.805   1.075  52.151  1.00  0.00     0.052 A 
HETATM   21  C18 UNL     1      22.294   2.142  51.655  1.00  0.00     0.172 A 
HETATM   22  H1  UNL     1      24.347   3.421  52.691  1.00  0.00     0.169 HD
ENDROOT
TORSDOF 0
ENDMDL
MODEL 5
REMARK VINA RESULT:      -8.5      1.802      4.059
REMARK  0 active torsions:
REMARK  status: ('A' for Active; 'I' for Inactive)
ROOT
HETATM    1  O1  UNL     1      23.857   4.009  52.920  1.00  0.00    -0.268 OA
HETATM    2  C1  UNL     1      24.070   3.608  51.800  1.00  0.00     0.252 C 
HETATM    3  N1  UNL     1      24.530   2.243  51.388  1.00  0.00    -0.324 N 
HETATM    4  C2  UNL     1      25.976   2.245  51.673  1.00  0.00     0.049 C 
HETATM    5  C3  UNL     1      26.508   2.506  50.517  1.00  0.00     0.001 C 
HETATM    6  C4  UNL     1      26.211   3.586  49.790  1.00  0.00     0.015 C 
HETATM    7  C5  UNL     1      24.965   4.393  49.526  1.00  0.00     0.014 C 
HETATM    8  C6  UNL     1      23.987   4.226  50.436  1.00  0.00     0.013 C 
HETATM    9  C7  UNL     1      22.563   4.593  50.434  1.00  0.00     0.071 C 
HETATM   10  C8  UNL     1      21.679   3.747  51.308  1.00  0.00    -0.021 C 
HETATM   11  C9  UNL     1      21.536   2.660  52.081  1.00  0.00     0.010 C 
HETATM   12  C10 UNL     1      21.972   1.458  52.719  1.00  0.00    -0.009 A 
HETATM   13  C11 UNL     1      20.967   0.526  52.925  1.00  0.00     0.014 A 
HETATM   14  C12 UNL     1      21.105  -0.724  53.474  1.00  0.00     0.002 A 
HETATM   15  C13 UNL     1      22.311  -1.225  53.904  1.00  0.00     0.013 A 
HETATM   16  C14 UNL     1      23.345  -0.298  53.704  1.00  0.00    -0.010 A 
HETATM   17  C15 UNL     1      24.716  -0.460  53.975  1.00  0.00     0.023 A 
HETATM   18  C16 UNL     1      25.486   0.662  53.611  1.00  0.00     0.110 A 
HETATM   19  N2  UNL     1      24.340   1.278  53.183  1.00  0.00    -0.348 N 
HETATM   20  C17 UNL     1      23.103   0.921  53.150  1.00  0.00     0.052 A 
HETATM   21  C18 UNL     1      25.681   1.940  53.091  1.00  0.00     0.172 A 
HETATM   22  H1  UNL     1      24.183   1.389  51.000  1.00  0.00     0.169 HD
ENDROOT
TORSDOF 0
ENDMDL
MODEL 6
REMARK VINA RESULT:      -8.2      2.922      5.409
REMARK  0 active torsions:
REMARK  status: ('A' for Active; 'I' for Inactive)
ROOT
HETATM    1  O1  UNL     1      23.640   3.092  49.846  1.00  0.00    -0.268 OA
HETATM    2  C1  UNL     1      24.208   3.028  50.911  1.00  0.00     0.252 C 
HETATM    3  N1  UNL     1      25.533   3.621  51.280  1.00  0.00    -0.324 N 
HETATM    4  C2  UNL     1      26.521   2.702  50.686  1.00  0.00     0.049 C 
HETATM    5  C3  UNL     1      26.859   1.942  51.683  1.00  0.00     0.001 C 
HETATM    6  C4  UNL     1      25.988   1.230  52.404  1.00  0.00     0.015 C 
HETATM    7  C5  UNL     1      24.577   1.439  52.894  1.00  0.00     0.014 C 
HETATM    8  C6  UNL     1      23.888   2.385  52.228  1.00  0.00     0.013 C 
HETATM    9  C7  UNL     1      22.624   3.077  52.523  1.00  0.00     0.071 C 
HETATM   10  C8  UNL     1      22.478   4.440  51.906  1.00  0.00    -0.021 C 
HETATM   11  C9  UNL     1      23.037   5.461  51.237  1.00  0.00     0.010 C 
HETATM   12  C10 UNL     1      24.102   6.150  50.580  1.00  0.00    -0.009 A 
HETATM   13  C11 UNL     1      24.012   7.531  50.644  1.00  0.00     0.014 A 
HETATM   14  C12 UNL     1      24.911   8.438  50.141  1.00  0.00     0.002 A 
HETATM   15  C13 UNL     1      26.061   8.068  49.483  1.00  0.00     0.013 A 
HETATM   16  C14 UNL     1      26.174   6.671  49.407  1.00  0.00    -0.010 A 
HETATM   17  C15 UNL     1      27.224   5.918  48.851  1.00  0.00     0.023 A 
HETATM   18  C16 UNL     1      27.035   4.528  48.982  1.00  0.00     0.110 A 
HETATM   19  N2  UNL     1      25.848   4.776  49.620  1.00  0.00    -0.348 N 
HETATM   20  C17 UNL     1      25.224   5.856  49.939  1.00  0.00     0.052 A 
HETATM   21  C18 UNL     1      26.349   3.383  49.383  1.00  0.00     0.172 A 
HETATM   22  H1  UNL     1      25.929   4.394  51.776  1.00  0.00     0.169 HD
ENDROOT
TORSDOF 0
ENDMDL
MODEL 7
REMARK VINA RESULT:      -8.0      2.158      4.426
REMARK  0 active torsions:
REMARK  status: ('A' for Active; 'I' for Inactive)
ROOT
HETATM    1  O1  UNL     1      21.501   0.068  51.017  1.00  0.00    -0.268 OA
HETATM    2  C1  UNL     1      21.031   0.087  52.131  1.00  0.00     0.252 C 
HETATM    3  N1  UNL     1      21.599   0.741  53.353  1.00  0.00    -0.324 N 
HETATM    4  C2  UNL     1      22.654  -0.184  53.803  1.00  0.00     0.049 C 
HETATM    5  C3  UNL     1      22.070  -0.870  54.739  1.00  0.00     0.001 C 
HETATM    6  C4  UNL     1      20.941  -1.560  54.561  1.00  0.00     0.015 C 
HETATM    7  C5  UNL     1      19.678  -1.362  53.761  1.00  0.00     0.014 C 
HETATM    8  C6  UNL     1      19.789  -0.480  52.750  1.00  0.00     0.013 C 
HETATM    9  C7  UNL     1      18.784   0.192  51.911  1.00  0.00     0.071 C 
HETATM   10  C8  UNL     1      19.211   1.508  51.325  1.00  0.00    -0.021 C 
HETATM   11  C9  UNL     1      20.113   2.501  51.276  1.00  0.00     0.010 C 
HETATM   12  C10 UNL     1      21.316   3.178  51.646  1.00  0.00    -0.009 A 
HETATM   13  C11 UNL     1      21.251   4.558  51.530  1.00  0.00     0.014 A 
HETATM   14  C12 UNL     1      22.236   5.457  51.855  1.00  0.00     0.002 A 
HETATM   15  C13 UNL     1      23.459   5.080  52.357  1.00  0.00     0.013 A 
HETATM   16  C14 UNL     1      23.548   3.685  52.483  1.00  0.00    -0.010 A 
HETATM   17  C15 UNL     1      24.618   2.930  52.996  1.00  0.00     0.023 A 
HETATM   18  C16 UNL     1      24.355   1.546  53.018  1.00  0.00     0.110 A 
HETATM   19  N2  UNL     1      23.119   1.798  52.482  1.00  0.00    -0.348 N 
HETATM   20  C17 UNL     1      22.511   2.877  52.132  1.00  0.00     0.052 A 
HETATM   21  C18 UNL     1      23.576   0.409  52.809  1.00  0.00     0.172 A 
HETATM   22  H1  UNL     1      21.487   1.555  53.923  1.00  0.00     0.169 HD
ENDROOT
TORSDOF 0
ENDMDL
MODEL 8
REMARK VINA RESULT:      -8.0      1.846      4.283
REMARK  0 active torsions:
REMARK  status: ('A' for Active; 'I' for Inactive)
ROOT
HETATM    1  O1  UNL     1      22.587   1.365  50.149  1.00  0.00    -0.268 OA
HETATM    2  C1  UNL     1      22.442   2.328  50.865  1.00  0.00     0.252 C 
HETATM    3  N1  UNL     1      21.484   2.484  52.006  1.00  0.00    -0.324 N 
HETATM    4  C2  UNL     1      20.188   2.758  51.357  1.00  0.00     0.049 C 
HETATM    5  C3  UNL     1      20.092   4.052  51.418  1.00  0.00     0.001 C 
HETATM    6  C4  UNL     1      21.007   4.890  50.922  1.00  0.00     0.015 C 
HETATM    7  C5  UNL     1      22.511   4.893  50.813  1.00  0.00     0.014 C 
HETATM    8  C6  UNL     1      23.083   3.681  50.938  1.00  0.00     0.013 C 
HETATM    9  C7  UNL     1      24.478   3.266  51.154  1.00  0.00     0.071 C 
HETATM   10  C8  UNL     1      24.656   1.933  51.826  1.00  0.00    -0.021 C 
HETATM   11  C9  UNL     1      24.104   0.892  52.470  1.00  0.00     0.010 C 
HETATM   12  C10 UNL     1      23.031   0.152  53.053  1.00  0.00    -0.009 A 
HETATM   13  C11 UNL     1      23.407  -0.656  54.115  1.00  0.00     0.014 A 
HETATM   14  C12 UNL     1      22.583  -1.439  54.884  1.00  0.00     0.002 A 
HETATM   15  C13 UNL     1      21.225  -1.520  54.685  1.00  0.00     0.013 A 
HETATM   16  C14 UNL     1      20.820  -0.709  53.613  1.00  0.00    -0.010 A 
HETATM   17  C15 UNL     1      19.515  -0.495  53.135  1.00  0.00     0.023 A 
HETATM   18  C16 UNL     1      19.462   0.419  52.065  1.00  0.00     0.110 A 
HETATM   19  N2  UNL     1      20.823   0.552  52.146  1.00  0.00    -0.348 N 
HETATM   20  C17 UNL     1      21.719   0.032  52.911  1.00  0.00     0.052 A 
HETATM   21  C18 UNL     1      20.008   1.306  51.139  1.00  0.00     0.172 A 
HETATM   22  H1  UNL     1      21.454   2.467  53.005  1.00  0.00     0.169 HD
ENDROOT
TORSDOF 0
ENDMDL
MODEL 9
REMARK VINA RESULT:      -7.6      6.345      9.156
REMARK  0 active torsions:
REMARK  status: ('A' for Active; 'I' for Inactive)
ROOT
HETATM    1  O1  UNL     1      28.859   7.458  46.636  1.00  0.00    -0.268 OA
HETATM    2  C1  UNL     1      29.202   7.846  47.729  1.00  0.00     0.252 C 
HETATM    3  N1  UNL     1      28.327   8.171  48.901  1.00  0.00    -0.324 N 
HETATM    4  C2  UNL     1      27.780   9.504  48.588  1.00  0.00     0.049 C 
HETATM    5  C3  UNL     1      28.554  10.308  49.252  1.00  0.00     0.001 C 
HETATM    6  C4  UNL     1      29.882  10.344  49.115  1.00  0.00     0.015 C 
HETATM    7  C5  UNL     1      30.964   9.323  48.870  1.00  0.00     0.014 C 
HETATM    8  C6  UNL     1      30.526   8.157  48.358  1.00  0.00     0.013 C 
HETATM    9  C7  UNL     1      31.166   6.840  48.215  1.00  0.00     0.071 C 
HETATM   10  C8  UNL     1      30.225   5.669  48.168  1.00  0.00    -0.021 C 
HETATM   11  C9  UNL     1      28.976   5.198  48.306  1.00  0.00     0.010 C 
HETATM   12  C10 UNL     1      27.577   5.296  48.581  1.00  0.00    -0.009 A 
HETATM   13  C11 UNL     1      27.017   4.140  49.102  1.00  0.00     0.014 A 
HETATM   14  C12 UNL     1      25.714   3.964  49.496  1.00  0.00     0.002 A 
HETATM   15  C13 UNL     1      24.766   4.957  49.419  1.00  0.00     0.013 A 
HETATM   16  C14 UNL     1      25.312   6.139  48.894  1.00  0.00    -0.010 A 
HETATM   17  C15 UNL     1      24.672   7.377  48.704  1.00  0.00     0.023 A 
HETATM   18  C16 UNL     1      25.531   8.369  48.194  1.00  0.00     0.110 A 
HETATM   19  N2  UNL     1      26.548   7.451  48.191  1.00  0.00    -0.348 N 
HETATM   20  C17 UNL     1      26.621   6.211  48.532  1.00  0.00     0.052 A 
HETATM   21  C18 UNL     1      26.751   8.865  47.737  1.00  0.00     0.172 A 
HETATM   22  H1  UNL     1      28.024   7.791  49.774  1.00  0.00     0.169 HD
ENDROOT
TORSDOF 0
ENDMDL
