MODEL 1
REMARK VINA RESULT:      -9.0      0.000      0.000
REMARK  3 active torsions:
REMARK  status: ('A' for Active; 'I' for Inactive)
REMARK    1  A    between atoms: C4_5  and  C9_11 
REMARK    2  A    between atoms: N3_16  and  C14_17 
REMARK    3  A    between atoms: C14_17  and  C15_18 
ROOT
HETATM    1  N1  UNL     1      26.906  -2.702  52.070  1.00  0.00    -0.190 NA
HETATM    2  C1  UNL     1      26.731  -1.660  52.344  1.00  0.00     0.126 C 
HETATM    3  C2  UNL     1      26.484  -0.254  52.738  1.00  0.00     0.219 C 
HETATM    4  C3  UNL     1      27.523   0.365  52.620  1.00  0.00     0.036 C 
HETATM    5  C4  UNL     1      26.919   1.739  52.104  1.00  0.00     0.068 C 
HETATM    6  C5  UNL     1      27.143   2.160  53.656  1.00  0.00     0.012 C 
HETATM    7  C6  UNL     1      25.953   2.063  54.068  1.00  0.00     0.208 C 
HETATM    8  N2  UNL     1      25.396   0.632  53.539  1.00  0.00     0.009 N 
HETATM    9  C7  UNL     1      23.728   0.375  53.308  1.00  0.00     0.166 A 
HETATM   10  C8  UNL     1      24.490   0.918  52.638  1.00  0.00     0.324 A 
HETATM   11  C9  UNL     1      25.505   1.642  51.745  1.00  0.00    -0.008 A 
HETATM   12  C10 UNL     1      24.651   2.168  50.848  1.00  0.00     0.046 A 
HETATM   13  C11 UNL     1      23.203   2.043  50.840  1.00  0.00    -0.021 A 
HETATM   14  C12 UNL     1      22.887   2.756  49.769  1.00  0.00     0.027 A 
HETATM   15  C13 UNL     1      24.067   3.231  49.237  1.00  0.00     0.092 A 
HETATM   16  N3  UNL     1      25.172   2.886  49.879  1.00  0.00    -0.352 N 
HETATM   17  C21 UNL     1      23.258   1.213  52.043  1.00  0.00     0.093 A 
ENDROOT
BRANCH  16  18
HETATM   18  C14 UNL     1      26.473   3.261  49.469  1.00  0.00     0.167 C 
BRANCH  18  19
HETATM   19  C15 UNL     1      26.475   4.740  49.377  1.00  0.00    -0.040 A 
HETATM   20  C16 UNL     1      25.670   5.685  49.974  1.00  0.00     0.009 A 
HETATM   21  C17 UNL     1      25.810   7.040  49.792  1.00  0.00     0.001 A 
HETATM   22  C18 UNL     1      26.795   7.546  48.975  1.00  0.00     0.000 A 
HETATM   23  C19 UNL     1      27.669   6.679  48.319  1.00  0.00     0.001 A 
HETATM   24  C20 UNL     1      27.439   5.328  48.575  1.00  0.00     0.009 A 
ENDBRANCH  18  19
ENDBRANCH  16  18
TORSDOF 3
ENDMDL
MODEL 2
REMARK VINA RESULT:      -8.7      3.019      3.870
REMARK  3 active torsions:
REMARK  status: ('A' for Active; 'I' for Inactive)
REMARK    1  A    between atoms: C4_5  and  C9_11 
REMARK    2  A    between atoms: N3_16  and  C14_17 
REMARK    3  A    between atoms: C14_17  and  C15_18 
ROOT
HETATM    1  N1  UNL     1      27.497  -3.007  52.204  1.00  0.00    -0.190 NA
HETATM    2  C1  UNL     1      27.057  -2.073  52.562  1.00  0.00     0.126 C 
HETATM    3  C2  UNL     1      26.473  -0.811  53.069  1.00  0.00     0.219 C 
HETATM    4  C3  UNL     1      26.728   0.074  52.276  1.00  0.00     0.036 C 
HETATM    5  C4  UNL     1      25.370   0.887  52.390  1.00  0.00     0.068 C 
HETATM    6  C5  UNL     1      26.278   1.833  53.346  1.00  0.00     0.012 C 
HETATM    7  C6  UNL     1      25.864   1.442  54.474  1.00  0.00     0.208 C 
HETATM    8  N2  UNL     1      25.888  -0.182  54.437  1.00  0.00     0.009 N 
HETATM    9  C7  UNL     1      24.857  -1.094  55.440  1.00  0.00     0.166 A 
HETATM   10  C8  UNL     1      24.633  -0.553  54.449  1.00  0.00     0.324 A 
HETATM   11  C9  UNL     1      24.334   0.167  53.129  1.00  0.00    -0.008 A 
HETATM   12  C10 UNL     1      22.995   0.027  53.117  1.00  0.00     0.046 A 
HETATM   13  C11 UNL     1      22.174  -0.618  54.127  1.00  0.00    -0.021 A 
HETATM   14  C12 UNL     1      20.961  -0.454  53.619  1.00  0.00     0.027 A 
HETATM   15  C13 UNL     1      21.111   0.225  52.428  1.00  0.00     0.092 A 
HETATM   16  N3  UNL     1      22.352   0.536  52.090  1.00  0.00    -0.352 N 
HETATM   17  C21 UNL     1      23.368  -0.939  54.908  1.00  0.00     0.093 A 
ENDROOT
BRANCH  16  18
HETATM   18  C14 UNL     1      22.700   1.211  50.897  1.00  0.00     0.167 C 
BRANCH  18  19
HETATM   19  C15 UNL     1      22.296   2.625  51.080  1.00  0.00    -0.040 A 
HETATM   20  C16 UNL     1      21.215   3.328  50.594  1.00  0.00     0.009 A 
HETATM   21  C17 UNL     1      20.973   4.653  50.869  1.00  0.00     0.001 A 
HETATM   22  C18 UNL     1      21.824   5.375  51.673  1.00  0.00     0.000 A 
HETATM   23  C19 UNL     1      22.952   4.764  52.220  1.00  0.00     0.001 A 
HETATM   24  C20 UNL     1      23.101   3.421  51.878  1.00  0.00     0.009 A 
ENDBRANCH  18  19
ENDBRANCH  16  18
TORSDOF 3
ENDMDL
MODEL 3
REMARK VINA RESULT:      -8.6      3.069      6.776
REMARK  3 active torsions:
REMARK  status: ('A' for Active; 'I' for Inactive)
REMARK    1  A    between atoms: C4_5  and  C9_11 
REMARK    2  A    between atoms: N3_16  and  C14_17 
REMARK    3  A    between atoms: C14_17  and  C15_18 
ROOT
HETATM    1  N1  UNL     1      23.054   7.624  50.849  1.00  0.00    -0.190 NA
HETATM    2  C1  UNL     1      23.333   6.602  51.112  1.00  0.00     0.126 C 
HETATM    3  C2  UNL     1      23.736   5.220  51.460  1.00  0.00     0.219 C 
HETATM    4  C3  UNL     1      23.491   5.034  52.636  1.00  0.00     0.036 C 
HETATM    5  C4  UNL     1      23.032   3.518  52.541  1.00  0.00     0.068 C 
HETATM    6  C5  UNL     1      24.541   3.263  53.080  1.00  0.00     0.012 C 
HETATM    7  C6  UNL     1      25.090   2.918  51.996  1.00  0.00     0.208 C 
HETATM    8  N2  UNL     1      24.647   4.016  50.884  1.00  0.00     0.009 N 
HETATM    9  C7  UNL     1      24.614   3.619  49.228  1.00  0.00     0.166 A 
HETATM   10  C8  UNL     1      23.854   3.381  50.059  1.00  0.00     0.324 A 
HETATM   11  C9  UNL     1      22.840   3.064  51.165  1.00  0.00    -0.008 A 
HETATM   12  C10 UNL     1      22.042   2.226  50.478  1.00  0.00     0.046 A 
HETATM   13  C11 UNL     1      22.203   1.797  49.099  1.00  0.00    -0.021 A 
HETATM   14  C12 UNL     1      21.167   0.983  48.958  1.00  0.00     0.027 A 
HETATM   15  C13 UNL     1      20.496   0.971  50.162  1.00  0.00     0.092 A 
HETATM   16  N3  UNL     1      21.010   1.726  51.120  1.00  0.00    -0.352 N 
HETATM   17  C21 UNL     1      23.401   2.625  48.971  1.00  0.00     0.093 A 
ENDROOT
BRANCH  16  18
HETATM   18  C14 UNL     1      20.447   1.856  52.411  1.00  0.00     0.167 C 
BRANCH  18  19
HETATM   19  C15 UNL     1      20.760   0.600  53.134  1.00  0.00    -0.040 A 
HETATM   20  C16 UNL     1      19.964  -0.473  53.470  1.00  0.00     0.009 A 
HETATM   21  C17 UNL     1      20.415  -1.584  54.143  1.00  0.00     0.001 A 
HETATM   22  C18 UNL     1      21.731  -1.689  54.531  1.00  0.00     0.000 A 
HETATM   23  C19 UNL     1      22.627  -0.660  54.243  1.00  0.00     0.001 A 
HETATM   24  C20 UNL     1      22.066   0.416  53.558  1.00  0.00     0.009 A 
ENDBRANCH  18  19
ENDBRANCH  16  18
TORSDOF 3
ENDMDL
MODEL 4
REMARK VINA RESULT:      -8.4      1.996      3.532
REMARK  3 active torsions:
REMARK  status: ('A' for Active; 'I' for Inactive)
REMARK    1  A    between atoms: C4_5  and  C9_11 
REMARK    2  A    between atoms: N3_16  and  C14_17 
REMARK    3  A    between atoms: C14_17  and  C15_18 
ROOT
HETATM    1  N1  UNL     1      25.497   0.336  52.502  1.00  0.00    -0.190 NA
HETATM    2  C1  UNL     1      24.603   0.938  52.327  1.00  0.00     0.126 C 
HETATM    3  C2  UNL     1      23.376   1.735  52.100  1.00  0.00     0.219 C 
HETATM    4  C3  UNL     1      23.516   2.815  52.639  1.00  0.00     0.036 C 
HETATM    5  C4  UNL     1      22.767   3.711  51.564  1.00  0.00     0.068 C 
HETATM    6  C5  UNL     1      21.566   3.612  52.650  1.00  0.00     0.012 C 
HETATM    7  C6  UNL     1      20.846   2.743  52.082  1.00  0.00     0.208 C 
HETATM    8  N2  UNL     1      21.839   1.535  51.645  1.00  0.00     0.009 N 
HETATM    9  C7  UNL     1      21.446   0.508  50.344  1.00  0.00     0.166 A 
HETATM   10  C8  UNL     1      21.885   1.572  50.337  1.00  0.00     0.324 A 
HETATM   11  C9  UNL     1      22.470   2.990  50.327  1.00  0.00    -0.008 A 
HETATM   12  C10 UNL     1      22.387   3.236  49.007  1.00  0.00     0.046 A 
HETATM   13  C11 UNL     1      21.858   2.352  47.983  1.00  0.00    -0.021 A 
HETATM   14  C12 UNL     1      22.006   3.096  46.896  1.00  0.00     0.027 A 
HETATM   15  C13 UNL     1      22.571   4.289  47.297  1.00  0.00     0.092 A 
HETATM   16  N3  UNL     1      22.818   4.406  48.592  1.00  0.00    -0.352 N 
HETATM   17  C21 UNL     1      21.583   1.330  48.992  1.00  0.00     0.093 A 
ENDROOT
BRANCH  16  18
HETATM   18  C14 UNL     1      23.414   5.546  49.182  1.00  0.00     0.167 C 
BRANCH  18  19
HETATM   19  C15 UNL     1      24.878   5.384  49.023  1.00  0.00    -0.040 A 
HETATM   20  C16 UNL     1      25.708   4.322  49.308  1.00  0.00     0.009 A 
HETATM   21  C17 UNL     1      27.065   4.325  49.091  1.00  0.00     0.001 A 
HETATM   22  C18 UNL     1      27.693   5.428  48.558  1.00  0.00     0.000 A 
HETATM   23  C19 UNL     1      26.950   6.563  48.232  1.00  0.00     0.001 A 
HETATM   24  C20 UNL     1      25.585   6.451  48.492  1.00  0.00     0.009 A 
ENDBRANCH  18  19
ENDBRANCH  16  18
TORSDOF 3
ENDMDL
MODEL 5
REMARK VINA RESULT:      -8.4      3.556      6.896
REMARK  3 active torsions:
REMARK  status: ('A' for Active; 'I' for Inactive)
REMARK    1  A    between atoms: C4_5  and  C9_11 
REMARK    2  A    between atoms: N3_16  and  C14_17 
REMARK    3  A    between atoms: C14_17  and  C15_18 
ROOT
HETATM    1  N1  UNL     1      22.106   3.262  46.320  1.00  0.00    -0.190 NA
HETATM    2  C1  UNL     1      21.758   2.916  47.296  1.00  0.00     0.126 C 
HETATM    3  C2  UNL     1      21.262   2.457  48.614  1.00  0.00     0.219 C 
HETATM    4  C3  UNL     1      21.416   1.254  48.682  1.00  0.00     0.036 C 
HETATM    5  C4  UNL     1      21.803   1.156  50.219  1.00  0.00     0.068 C 
HETATM    6  C5  UNL     1      20.249   0.707  50.349  1.00  0.00     0.012 C 
HETATM    7  C6  UNL     1      19.760   1.787  50.784  1.00  0.00     0.208 C 
HETATM    8  N2  UNL     1      20.334   2.971  49.832  1.00  0.00     0.009 N 
HETATM    9  C7  UNL     1      20.461   4.570  50.405  1.00  0.00     0.166 A 
HETATM   10  C8  UNL     1      21.149   3.665  50.585  1.00  0.00     0.324 A 
HETATM   11  C9  UNL     1      22.067   2.460  50.825  1.00  0.00    -0.008 A 
HETATM   12  C10 UNL     1      22.866   2.995  51.766  1.00  0.00     0.046 A 
HETATM   13  C11 UNL     1      22.780   4.330  52.332  1.00  0.00    -0.021 A 
HETATM   14  C12 UNL     1      23.780   4.309  53.200  1.00  0.00     0.027 A 
HETATM   15  C13 UNL     1      24.365   3.063  53.113  1.00  0.00     0.092 A 
HETATM   16  N3  UNL     1      23.825   2.230  52.238  1.00  0.00    -0.352 N 
HETATM   17  C21 UNL     1      21.637   4.632  51.472  1.00  0.00     0.093 A 
ENDROOT
BRANCH  16  18
HETATM   18  C14 UNL     1      24.303   0.921  51.995  1.00  0.00     0.167 C 
BRANCH  18  19
HETATM   19  C15 UNL     1      23.996   0.129  53.210  1.00  0.00    -0.040 A 
HETATM   20  C16 UNL     1      24.824  -0.452  54.145  1.00  0.00     0.009 A 
HETATM   21  C17 UNL     1      24.376  -1.156  55.237  1.00  0.00     0.001 A 
HETATM   22  C18 UNL     1      23.029  -1.325  55.466  1.00  0.00     0.000 A 
HETATM   23  C19 UNL     1      22.099  -0.778  54.582  1.00  0.00     0.001 A 
HETATM   24  C20 UNL     1      22.660  -0.085  53.511  1.00  0.00     0.009 A 
ENDBRANCH  18  19
ENDBRANCH  16  18
TORSDOF 3
ENDMDL
MODEL 6
REMARK VINA RESULT:      -8.3      2.295      6.304
REMARK  3 active torsions:
REMARK  status: ('A' for Active; 'I' for Inactive)
REMARK    1  A    between atoms: C4_5  and  C9_11 
REMARK    2  A    between atoms: N3_16  and  C14_17 
REMARK    3  A    between atoms: C14_17  and  C15_18 
ROOT
HETATM    1  N1  UNL     1      21.192   7.854  50.586  1.00  0.00    -0.190 NA
HETATM    2  C1  UNL     1      21.950   7.091  50.395  1.00  0.00     0.126 C 
HETATM    3  C2  UNL     1      22.983   6.068  50.113  1.00  0.00     0.219 C 
HETATM    4  C3  UNL     1      23.757   6.037  51.050  1.00  0.00     0.036 C 
HETATM    5  C4  UNL     1      24.033   4.474  51.072  1.00  0.00     0.068 C 
HETATM    6  C5  UNL     1      25.386   4.931  50.301  1.00  0.00     0.012 C 
HETATM    7  C6  UNL     1      25.064   4.619  49.120  1.00  0.00     0.208 C 
HETATM    8  N2  UNL     1      23.576   5.220  48.872  1.00  0.00     0.009 N 
HETATM    9  C7  UNL     1      22.533   4.525  47.719  1.00  0.00     0.166 A 
HETATM   10  C8  UNL     1      22.785   4.181  48.788  1.00  0.00     0.324 A 
HETATM   11  C9  UNL     1      23.121   3.721  50.213  1.00  0.00    -0.008 A 
HETATM   12  C10 UNL     1      22.508   2.523  50.192  1.00  0.00     0.046 A 
HETATM   13  C11 UNL     1      21.787   1.928  49.080  1.00  0.00    -0.021 A 
HETATM   14  C12 UNL     1      21.417   0.768  49.601  1.00  0.00     0.027 A 
HETATM   15  C13 UNL     1      21.898   0.734  50.893  1.00  0.00     0.092 A 
HETATM   16  N3  UNL     1      22.574   1.801  51.288  1.00  0.00    -0.352 N 
HETATM   17  C21 UNL     1      22.051   3.111  48.262  1.00  0.00     0.093 A 
ENDROOT
BRANCH  16  18
HETATM   18  C14 UNL     1      23.122   1.955  52.583  1.00  0.00     0.167 C 
BRANCH  18  19
HETATM   19  C15 UNL     1      24.291   1.047  52.655  1.00  0.00    -0.040 A 
HETATM   20  C16 UNL     1      24.477  -0.137  53.333  1.00  0.00     0.009 A 
HETATM   21  C17 UNL     1      25.635  -0.876  53.288  1.00  0.00     0.001 A 
HETATM   22  C18 UNL     1      26.710  -0.460  52.537  1.00  0.00     0.000 A 
HETATM   23  C19 UNL     1      26.633   0.727  51.808  1.00  0.00     0.001 A 
HETATM   24  C20 UNL     1      25.416   1.395  51.924  1.00  0.00     0.009 A 
ENDBRANCH  18  19
ENDBRANCH  16  18
TORSDOF 3
ENDMDL
MODEL 7
REMARK VINA RESULT:      -8.1      2.162      6.621
REMARK  3 active torsions:
REMARK  status: ('A' for Active; 'I' for Inactive)
REMARK    1  A    between atoms: C4_5  and  C9_11 
REMARK    2  A    between atoms: N3_16  and  C14_17 
REMARK    3  A    between atoms: C14_17  and  C15_18 
ROOT
HETATM    1  N1  UNL     1      22.200   5.128  46.792  1.00  0.00    -0.190 NA
HETATM    2  C1  UNL     1      22.774   5.399  47.681  1.00  0.00     0.126 C 
HETATM    3  C2  UNL     1      23.566   5.784  48.871  1.00  0.00     0.219 C 
HETATM    4  C3  UNL     1      22.796   6.107  49.754  1.00  0.00     0.036 C 
HETATM    5  C4  UNL     1      23.597   5.514  50.990  1.00  0.00     0.068 C 
HETATM    6  C5  UNL     1      24.039   7.067  51.158  1.00  0.00     0.012 C 
HETATM    7  C6  UNL     1      25.204   7.002  50.674  1.00  0.00     0.208 C 
HETATM    8  N2  UNL     1      25.076   6.193  49.271  1.00  0.00     0.009 N 
HETATM    9  C7  UNL     1      26.405   5.343  48.629  1.00  0.00     0.166 A 
HETATM   10  C8  UNL     1      25.677   5.047  49.469  1.00  0.00     0.324 A 
HETATM   11  C9  UNL     1      24.707   4.652  50.590  1.00  0.00    -0.008 A 
HETATM   12  C10 UNL     1      25.339   3.547  51.028  1.00  0.00     0.046 A 
HETATM   13  C11 UNL     1      26.586   2.995  50.527  1.00  0.00    -0.021 A 
HETATM   14  C12 UNL     1      26.740   1.943  51.317  1.00  0.00     0.027 A 
HETATM   15  C13 UNL     1      25.664   1.924  52.179  1.00  0.00     0.092 A 
HETATM   16  N3  UNL     1      24.782   2.899  52.027  1.00  0.00    -0.352 N 
HETATM   17  C21 UNL     1      26.671   4.064  49.532  1.00  0.00     0.093 A 
ENDROOT
BRANCH  16  18
HETATM   18  C14 UNL     1      23.606   3.030  52.803  1.00  0.00     0.167 C 
BRANCH  18  19
HETATM   19  C15 UNL     1      22.635   2.051  52.261  1.00  0.00    -0.040 A 
HETATM   20  C16 UNL     1      22.009   1.980  51.036  1.00  0.00     0.009 A 
HETATM   21  C17 UNL     1      21.127   0.987  50.678  1.00  0.00     0.001 A 
HETATM   22  C18 UNL     1      20.810  -0.026  51.554  1.00  0.00     0.000 A 
HETATM   23  C19 UNL     1      21.386  -0.053  52.824  1.00  0.00     0.001 A 
HETATM   24  C20 UNL     1      22.264   0.998  53.082  1.00  0.00     0.009 A 
ENDBRANCH  18  19
ENDBRANCH  16  18
TORSDOF 3
ENDMDL
MODEL 8
REMARK VINA RESULT:      -8.1      2.131      4.923
REMARK  3 active torsions:
REMARK  status: ('A' for Active; 'I' for Inactive)
REMARK    1  A    between atoms: C4_5  and  C9_11 
REMARK    2  A    between atoms: N3_16  and  C14_17 
REMARK    3  A    between atoms: C14_17  and  C15_18 
ROOT
HETATM    1  N1  UNL     1      20.695   6.495  49.012  1.00  0.00    -0.190 NA
HETATM    2  C1  UNL     1      21.035   5.458  49.047  1.00  0.00     0.126 C 
HETATM    3  C2  UNL     1      21.473   4.044  49.099  1.00  0.00     0.219 C 
HETATM    4  C3  UNL     1      22.062   3.788  48.067  1.00  0.00     0.036 C 
HETATM    5  C4  UNL     1      23.173   2.826  48.666  1.00  0.00     0.068 C 
HETATM    6  C5  UNL     1      22.179   1.685  48.081  1.00  0.00     0.012 C 
HETATM    7  C6  UNL     1      21.623   1.326  49.156  1.00  0.00     0.208 C 
HETATM    8  N2  UNL     1      21.169   2.686  49.919  1.00  0.00     0.009 N 
HETATM    9  C7  UNL     1      20.980   2.718  51.611  1.00  0.00     0.166 A 
HETATM   10  C8  UNL     1      21.938   2.771  50.975  1.00  0.00     0.324 A 
HETATM   11  C9  UNL     1      23.214   2.842  50.128  1.00  0.00    -0.008 A 
HETATM   12  C10 UNL     1      24.122   2.736  51.115  1.00  0.00     0.046 A 
HETATM   13  C11 UNL     1      23.857   2.580  52.535  1.00  0.00    -0.021 A 
HETATM   14  C12 UNL     1      25.087   2.513  53.023  1.00  0.00     0.027 A 
HETATM   15  C13 UNL     1      25.952   2.624  51.955  1.00  0.00     0.092 A 
HETATM   16  N3  UNL     1      25.389   2.763  50.765  1.00  0.00    -0.352 N 
HETATM   17  C21 UNL     1      22.417   2.625  52.282  1.00  0.00     0.093 A 
ENDROOT
BRANCH  16  18
HETATM   18  C14 UNL     1      26.115   2.913  49.560  1.00  0.00     0.167 C 
BRANCH  18  19
HETATM   19  C15 UNL     1      26.344   4.366  49.386  1.00  0.00    -0.040 A 
HETATM   20  C16 UNL     1      25.616   5.455  49.813  1.00  0.00     0.009 A 
HETATM   21  C17 UNL     1      25.974   6.761  49.575  1.00  0.00     0.001 A 
HETATM   22  C18 UNL     1      27.118   7.064  48.873  1.00  0.00     0.000 A 
HETATM   23  C19 UNL     1      27.932   6.038  48.392  1.00  0.00     0.001 A 
HETATM   24  C20 UNL     1      27.477   4.755  48.690  1.00  0.00     0.009 A 
ENDBRANCH  18  19
ENDBRANCH  16  18
TORSDOF 3
ENDMDL
MODEL 9
REMARK VINA RESULT:      -8.0      2.315      5.851
REMARK  3 active torsions:
REMARK  status: ('A' for Active; 'I' for Inactive)
REMARK    1  A    between atoms: C4_5  and  C9_11 
REMARK    2  A    between atoms: N3_16  and  C14_17 
REMARK    3  A    between atoms: C14_17  and  C15_18 
ROOT
HETATM    1  N1  UNL     1      19.899   0.783  50.053  1.00  0.00    -0.190 NA
HETATM    2  C1  UNL     1      20.462   1.647  50.414  1.00  0.00     0.126 C 
HETATM    3  C2  UNL     1      21.209   2.833  50.889  1.00  0.00     0.219 C 
HETATM    4  C3  UNL     1      21.232   2.809  52.104  1.00  0.00     0.036 C 
HETATM    5  C4  UNL     1      22.697   3.383  52.320  1.00  0.00     0.068 C 
HETATM    6  C5  UNL     1      21.873   4.749  52.618  1.00  0.00     0.012 C 
HETATM    7  C6  UNL     1      22.058   5.343  51.519  1.00  0.00     0.208 C 
HETATM    8  N2  UNL     1      21.726   4.266  50.350  1.00  0.00     0.009 N 
HETATM    9  C7  UNL     1      22.426   4.410  48.804  1.00  0.00     0.166 A 
HETATM   10  C8  UNL     1      22.874   3.998  49.781  1.00  0.00     0.324 A 
HETATM   11  C9  UNL     1      23.472   3.450  51.083  1.00  0.00    -0.008 A 
HETATM   12  C10 UNL     1      24.748   3.311  50.680  1.00  0.00     0.046 A 
HETATM   13  C11 UNL     1      25.295   3.640  49.374  1.00  0.00    -0.021 A 
HETATM   14  C12 UNL     1      26.571   3.324  49.540  1.00  0.00     0.027 A 
HETATM   15  C13 UNL     1      26.708   2.861  50.832  1.00  0.00     0.092 A 
HETATM   16  N3  UNL     1      25.603   2.840  51.560  1.00  0.00    -0.352 N 
HETATM   17  C21 UNL     1      23.972   4.062  48.915  1.00  0.00     0.093 A 
ENDROOT
BRANCH  16  18
HETATM   18  C14 UNL     1      25.546   2.377  52.896  1.00  0.00     0.167 C 
BRANCH  18  19
HETATM   19  C15 UNL     1      26.261   1.080  52.921  1.00  0.00    -0.040 A 
HETATM   20  C16 UNL     1      25.890  -0.168  52.471  1.00  0.00     0.009 A 
HETATM   21  C17 UNL     1      26.684  -1.286  52.562  1.00  0.00     0.001 A 
HETATM   22  C18 UNL     1      27.937  -1.220  53.126  1.00  0.00     0.000 A 
HETATM   23  C19 UNL     1      28.417  -0.005  53.616  1.00  0.00     0.001 A 
HETATM   24  C20 UNL     1      27.532   1.062  53.474  1.00  0.00     0.009 A 
ENDBRANCH  18  19
ENDBRANCH  16  18
TORSDOF 3
ENDMDL
