MODEL 1
REMARK VINA RESULT:      -7.1      0.000      0.000
REMARK  7 active torsions:
REMARK  status: ('A' for Active; 'I' for Inactive)
REMARK    1  A    between atoms: O1_2  and  C2_3 
REMARK    2  A    between atoms: C10_14  and  N3_15 
REMARK    3  A    between atoms: N3_15  and  C11_16 
REMARK    4  A    between atoms: C12_17  and  C13_18 
REMARK    5  A    between atoms: C13_18  and  C14_19 
REMARK    6  A    between atoms: C14_19  and  P1_20 
REMARK    7  A    between atoms: P1_20  and  C15_21 
ROOT
HETATM    1  C2  UNL     1      25.144  -0.162  53.490  1.00  0.00     0.108 A 
HETATM    2  C3  UNL     1      25.011   1.023  52.879  1.00  0.00    -0.012 A 
HETATM    3  C4  UNL     1      23.878   1.901  52.626  1.00  0.00     0.052 C 
HETATM    4  C5  UNL     1      26.384   1.251  52.458  1.00  0.00     0.021 A 
HETATM    5  C6  UNL     1      27.313   0.279  52.753  1.00  0.00     0.056 A 
HETATM    6  C7  UNL     1      26.476  -0.590  53.422  1.00  0.00     0.111 A 
HETATM    7  O2  UNL     1      27.576  -1.335  53.603  1.00  0.00    -0.301 OA
HETATM    8  C8  UNL     1      28.519  -0.523  54.347  1.00  0.00     0.260 C 
HETATM    9  N1  UNL     1      28.287   0.819  54.659  1.00  0.00    -0.230 NA
HETATM   10  C9  UNL     1      28.422   1.870  53.778  1.00  0.00     0.237 C 
HETATM   11  N2  UNL     1      28.306   2.491  52.563  1.00  0.00    -0.224 NA
HETATM   12  C10 UNL     1      27.035   2.430  51.990  1.00  0.00     0.139 C 
ENDROOT
BRANCH  12  13
HETATM   13  N3  UNL     1      26.340   3.284  51.148  1.00  0.00    -0.350 N 
HETATM   14  H10 UNL     1      25.930   2.316  50.930  1.00  0.00     0.166 HD
BRANCH  13  15
HETATM   15  C11 UNL     1      25.658   4.115  50.324  1.00  0.00     0.090 C 
HETATM   16  C12 UNL     1      24.672   4.158  49.483  1.00  0.00     0.025 C 
BRANCH  16  17
HETATM   17  C13 UNL     1      24.250   5.331  48.738  1.00  0.00     0.057 C 
BRANCH  17  18
HETATM   18  C14 UNL     1      25.210   6.232  48.714  1.00  0.00    -0.117 C 
BRANCH  18  19
HETATM   19  P1  UNL     1      26.537   7.153  48.212  1.00  0.00     0.028 P 
BRANCH  19  20
HETATM   20  C15 UNL     1      28.218   6.357  48.209  1.00  0.00     0.274 C 
HETATM   21  F1  UNL     1      28.090   4.980  48.207  1.00  0.00    -0.249 F 
ENDBRANCH  19  20
ENDBRANCH  18  19
ENDBRANCH  17  18
ENDBRANCH  16  17
ENDBRANCH  13  15
ENDBRANCH  12  13
BRANCH   1  22
HETATM   22  O1  UNL     1      24.118  -0.840  54.083  1.00  0.00    -0.353 OA
HETATM   23  C1  UNL     1      24.193  -1.255  55.464  1.00  0.00     0.210 C 
ENDBRANCH   1  22
TORSDOF 7
ENDMDL
MODEL 2
REMARK VINA RESULT:      -6.8      1.977      2.409
REMARK  7 active torsions:
REMARK  status: ('A' for Active; 'I' for Inactive)
REMARK    1  A    between atoms: O1_2  and  C2_3 
REMARK    2  A    between atoms: C10_14  and  N3_15 
REMARK    3  A    between atoms: N3_15  and  C11_16 
REMARK    4  A    between atoms: C12_17  and  C13_18 
REMARK    5  A    between atoms: C13_18  and  C14_19 
REMARK    6  A    between atoms: C14_19  and  P1_20 
REMARK    7  A    between atoms: P1_20  and  C15_21 
ROOT
HETATM    1  C2  UNL     1      24.903   0.107  53.469  1.00  0.00     0.108 A 
HETATM    2  C3  UNL     1      24.863   1.266  52.798  1.00  0.00    -0.012 A 
HETATM    3  C4  UNL     1      23.795   2.199  52.467  1.00  0.00     0.052 C 
HETATM    4  C5  UNL     1      26.259   1.387  52.409  1.00  0.00     0.021 A 
HETATM    5  C6  UNL     1      27.115   0.374  52.780  1.00  0.00     0.056 A 
HETATM    6  C7  UNL     1      26.206  -0.405  53.464  1.00  0.00     0.111 A 
HETATM    7  O2  UNL     1      27.251  -1.207  53.715  1.00  0.00    -0.301 OA
HETATM    8  C8  UNL     1      28.222  -0.419  54.448  1.00  0.00     0.260 C 
HETATM    9  N1  UNL     1      28.067   0.949  54.687  1.00  0.00    -0.230 NA
HETATM   10  C9  UNL     1      28.294   1.944  53.760  1.00  0.00     0.237 C 
HETATM   11  N2  UNL     1      28.252   2.509  52.513  1.00  0.00    -0.224 NA
HETATM   12  C10 UNL     1      26.996   2.498  51.905  1.00  0.00     0.139 C 
ENDROOT
BRANCH  12  13
HETATM   13  N3  UNL     1      26.380   3.350  51.001  1.00  0.00    -0.350 N 
HETATM   14  H10 UNL     1      25.614   3.140  51.723  1.00  0.00     0.166 HD
BRANCH  13  15
HETATM   15  C11 UNL     1      25.774   4.183  50.122  1.00  0.00     0.090 C 
HETATM   16  C12 UNL     1      25.747   5.412  49.712  1.00  0.00     0.025 C 
BRANCH  16  17
HETATM   17  C13 UNL     1      24.866   5.939  48.685  1.00  0.00     0.057 C 
BRANCH  17  18
HETATM   18  C14 UNL     1      23.625   5.553  48.900  1.00  0.00    -0.117 C 
BRANCH  18  19
HETATM   19  P1  UNL     1      22.133   5.284  49.648  1.00  0.00     0.028 P 
BRANCH  19  20
HETATM   20  C15 UNL     1      22.022   5.474  51.495  1.00  0.00     0.274 C 
HETATM   21  F1  UNL     1      23.288   5.459  52.050  1.00  0.00    -0.249 F 
ENDBRANCH  19  20
ENDBRANCH  18  19
ENDBRANCH  17  18
ENDBRANCH  16  17
ENDBRANCH  13  15
ENDBRANCH  12  13
BRANCH   1  22
HETATM   22  O1  UNL     1      23.820  -0.475  54.062  1.00  0.00    -0.353 OA
HETATM   23  C1  UNL     1      22.732  -1.010  53.277  1.00  0.00     0.210 C 
ENDBRANCH   1  22
TORSDOF 7
ENDMDL
MODEL 3
REMARK VINA RESULT:      -6.8      2.280      2.787
REMARK  7 active torsions:
REMARK  status: ('A' for Active; 'I' for Inactive)
REMARK    1  A    between atoms: O1_2  and  C2_3 
REMARK    2  A    between atoms: C10_14  and  N3_15 
REMARK    3  A    between atoms: N3_15  and  C11_16 
REMARK    4  A    between atoms: C12_17  and  C13_18 
REMARK    5  A    between atoms: C13_18  and  C14_19 
REMARK    6  A    between atoms: C14_19  and  P1_20 
REMARK    7  A    between atoms: P1_20  and  C15_21 
ROOT
HETATM    1  C2  UNL     1      24.939  -0.199  53.554  1.00  0.00     0.108 A 
HETATM    2  C3  UNL     1      24.720   0.895  52.811  1.00  0.00    -0.012 A 
HETATM    3  C4  UNL     1      23.530   1.666  52.485  1.00  0.00     0.052 C 
HETATM    4  C5  UNL     1      26.069   1.152  52.329  1.00  0.00     0.021 A 
HETATM    5  C6  UNL     1      27.062   0.280  52.714  1.00  0.00     0.056 A 
HETATM    6  C7  UNL     1      26.293  -0.551  53.502  1.00  0.00     0.111 A 
HETATM    7  O2  UNL     1      27.442  -1.201  53.741  1.00  0.00    -0.301 OA
HETATM    8  C8  UNL     1      28.345  -0.251  54.360  1.00  0.00     0.260 C 
HETATM    9  N1  UNL     1      28.035   1.102  54.516  1.00  0.00    -0.230 NA
HETATM   10  C9  UNL     1      28.088   2.047  53.514  1.00  0.00     0.237 C 
HETATM   11  N2  UNL     1      27.910   2.509  52.237  1.00  0.00    -0.224 NA
HETATM   12  C10 UNL     1      26.635   2.303  51.709  1.00  0.00     0.139 C 
ENDROOT
BRANCH  12  13
HETATM   13  N3  UNL     1      25.872   3.008  50.790  1.00  0.00    -0.350 N 
HETATM   14  H10 UNL     1      25.323   3.100  51.708  1.00  0.00     0.166 HD
BRANCH  13  15
HETATM   15  C11 UNL     1      25.123   3.697  49.897  1.00  0.00     0.090 C 
HETATM   16  C12 UNL     1      24.118   4.510  49.798  1.00  0.00     0.025 C 
BRANCH  16  17
HETATM   17  C13 UNL     1      23.577   5.035  48.558  1.00  0.00     0.057 C 
BRANCH  17  18
HETATM   18  C14 UNL     1      22.671   4.215  48.067  1.00  0.00    -0.117 C 
BRANCH  18  19
HETATM   19  P1  UNL     1      21.931   2.837  47.424  1.00  0.00     0.028 P 
BRANCH  19  20
HETATM   20  C15 UNL     1      21.527   1.431  48.573  1.00  0.00     0.274 C 
HETATM   21  F1  UNL     1      22.498   1.324  49.551  1.00  0.00    -0.249 F 
ENDBRANCH  19  20
ENDBRANCH  18  19
ENDBRANCH  17  18
ENDBRANCH  16  17
ENDBRANCH  13  15
ENDBRANCH  12  13
BRANCH   1  22
HETATM   22  O1  UNL     1      23.969  -0.861  54.249  1.00  0.00    -0.353 OA
HETATM   23  C1  UNL     1      24.177  -1.276  55.617  1.00  0.00     0.210 C 
ENDBRANCH   1  22
TORSDOF 7
ENDMDL
MODEL 4
REMARK VINA RESULT:      -6.4      4.370      6.184
REMARK  7 active torsions:
REMARK  status: ('A' for Active; 'I' for Inactive)
REMARK    1  A    between atoms: O1_2  and  C2_3 
REMARK    2  A    between atoms: C10_14  and  N3_15 
REMARK    3  A    between atoms: N3_15  and  C11_16 
REMARK    4  A    between atoms: C12_17  and  C13_18 
REMARK    5  A    between atoms: C13_18  and  C14_19 
REMARK    6  A    between atoms: C14_19  and  P1_20 
REMARK    7  A    between atoms: P1_20  and  C15_21 
ROOT
HETATM    1  C2  UNL     1      25.739   2.492  52.100  1.00  0.00     0.108 A 
HETATM    2  C3  UNL     1      24.725   1.619  52.183  1.00  0.00    -0.012 A 
HETATM    3  C4  UNL     1      23.505   1.420  51.414  1.00  0.00     0.052 C 
HETATM    4  C5  UNL     1      25.141   0.852  53.347  1.00  0.00     0.021 A 
HETATM    5  C6  UNL     1      26.312   1.221  53.971  1.00  0.00     0.056 A 
HETATM    6  C7  UNL     1      26.658   2.258  53.130  1.00  0.00     0.111 A 
HETATM    7  O2  UNL     1      27.752   2.368  53.899  1.00  0.00    -0.301 OA
HETATM    8  C8  UNL     1      28.456   1.105  53.815  1.00  0.00     0.260 C 
HETATM    9  N1  UNL     1      27.947  -0.008  53.140  1.00  0.00    -0.230 NA
HETATM   10  C9  UNL     1      26.965  -0.845  53.624  1.00  0.00     0.237 C 
HETATM   11  N2  UNL     1      25.795  -1.137  54.275  1.00  0.00    -0.224 NA
HETATM   12  C10 UNL     1      24.687  -0.401  53.850  1.00  0.00     0.139 C 
ENDROOT
BRANCH  12  13
HETATM   13  N3  UNL     1      23.332  -0.689  53.798  1.00  0.00    -0.350 N 
HETATM   14  H10 UNL     1      23.760  -1.548  54.277  1.00  0.00     0.166 HD
BRANCH  13  15
HETATM   15  C11 UNL     1      22.009  -0.974  53.749  1.00  0.00     0.090 C 
HETATM   16  C12 UNL     1      20.834  -0.429  53.698  1.00  0.00     0.025 C 
BRANCH  16  17
HETATM   17  C13 UNL     1      19.572  -1.146  53.683  1.00  0.00     0.057 C 
BRANCH  17  18
HETATM   18  C14 UNL     1      18.737  -0.592  52.827  1.00  0.00    -0.117 C 
BRANCH  18  19
HETATM   19  P1  UNL     1      18.075   0.022  51.398  1.00  0.00     0.028 P 
BRANCH  19  20
HETATM   20  C15 UNL     1      19.180   0.979  50.249  1.00  0.00     0.274 C 
HETATM   21  F1  UNL     1      20.478   0.511  50.342  1.00  0.00    -0.249 F 
ENDBRANCH  19  20
ENDBRANCH  18  19
ENDBRANCH  17  18
ENDBRANCH  16  17
ENDBRANCH  13  15
ENDBRANCH  12  13
BRANCH   1  22
HETATM   22  O1  UNL     1      25.840   3.463  51.146  1.00  0.00    -0.353 OA
HETATM   23  C1  UNL     1      26.500   3.211  49.887  1.00  0.00     0.210 C 
ENDBRANCH   1  22
TORSDOF 7
ENDMDL
MODEL 5
REMARK VINA RESULT:      -6.0      4.234      7.243
REMARK  7 active torsions:
REMARK  status: ('A' for Active; 'I' for Inactive)
REMARK    1  A    between atoms: O1_2  and  C2_3 
REMARK    2  A    between atoms: C10_14  and  N3_15 
REMARK    3  A    between atoms: N3_15  and  C11_16 
REMARK    4  A    between atoms: C12_17  and  C13_18 
REMARK    5  A    between atoms: C13_18  and  C14_19 
REMARK    6  A    between atoms: C14_19  and  P1_20 
REMARK    7  A    between atoms: P1_20  and  C15_21 
ROOT
HETATM    1  C2  UNL     1      26.687   4.579  49.200  1.00  0.00     0.108 A 
HETATM    2  C3  UNL     1      26.137   3.786  50.131  1.00  0.00    -0.012 A 
HETATM    3  C4  UNL     1      26.597   2.601  50.840  1.00  0.00     0.052 C 
HETATM    4  C5  UNL     1      24.834   4.419  50.270  1.00  0.00     0.021 A 
HETATM    5  C6  UNL     1      24.566   5.511  49.476  1.00  0.00     0.056 A 
HETATM    6  C7  UNL     1      25.781   5.578  48.826  1.00  0.00     0.111 A 
HETATM    7  O2  UNL     1      25.269   6.659  48.219  1.00  0.00    -0.301 OA
HETATM    8  C8  UNL     1      24.952   7.618  49.258  1.00  0.00     0.260 C 
HETATM    9  N1  UNL     1      25.068   7.330  50.621  1.00  0.00    -0.230 NA
HETATM   10  C9  UNL     1      24.171   6.580  51.350  1.00  0.00     0.237 C 
HETATM   11  N2  UNL     1      23.307   5.538  51.557  1.00  0.00    -0.224 NA
HETATM   12  C10 UNL     1      23.829   4.275  51.270  1.00  0.00     0.139 C 
ENDROOT
BRANCH  12  13
HETATM   13  N3  UNL     1      23.583   3.015  51.791  1.00  0.00    -0.350 N 
HETATM   14  H10 UNL     1      23.228   3.684  52.552  1.00  0.00     0.166 HD
BRANCH  13  15
HETATM   15  C11 UNL     1      23.341   1.786  52.306  1.00  0.00     0.090 C 
HETATM   16  C12 UNL     1      22.422   1.059  52.861  1.00  0.00     0.025 C 
BRANCH  16  17
HETATM   17  C13 UNL     1      22.591  -0.308  53.321  1.00  0.00     0.057 C 
BRANCH  17  18
HETATM   18  C14 UNL     1      23.869  -0.589  53.470  1.00  0.00    -0.117 C 
BRANCH  18  19
HETATM   19  P1  UNL     1      25.528  -0.425  53.750  1.00  0.00     0.028 P 
BRANCH  19  20
HETATM   20  C15 UNL     1      26.704  -0.816  52.363  1.00  0.00     0.274 C 
HETATM   21  F1  UNL     1      26.663  -2.168  52.075  1.00  0.00    -0.249 F 
ENDBRANCH  19  20
ENDBRANCH  18  19
ENDBRANCH  17  18
ENDBRANCH  16  17
ENDBRANCH  13  15
ENDBRANCH  12  13
BRANCH   1  22
HETATM   22  O1  UNL     1      27.946   4.416  48.700  1.00  0.00    -0.353 OA
HETATM   23  C1  UNL     1      28.750   5.550  48.308  1.00  0.00     0.210 C 
ENDBRANCH   1  22
TORSDOF 7
ENDMDL
MODEL 6
REMARK VINA RESULT:      -5.9      5.281      7.840
REMARK  7 active torsions:
REMARK  status: ('A' for Active; 'I' for Inactive)
REMARK    1  A    between atoms: O1_2  and  C2_3 
REMARK    2  A    between atoms: C10_14  and  N3_15 
REMARK    3  A    between atoms: N3_15  and  C11_16 
REMARK    4  A    between atoms: C12_17  and  C13_18 
REMARK    5  A    between atoms: C13_18  and  C14_19 
REMARK    6  A    between atoms: C14_19  and  P1_20 
REMARK    7  A    between atoms: P1_20  and  C15_21 
ROOT
HETATM    1  C2  UNL     1      27.600   5.236  48.555  1.00  0.00     0.108 A 
HETATM    2  C3  UNL     1      26.642   4.527  49.168  1.00  0.00    -0.012 A 
HETATM    3  C4  UNL     1      26.579   3.174  49.700  1.00  0.00     0.052 C 
HETATM    4  C5  UNL     1      25.558   5.497  49.159  1.00  0.00     0.021 A 
HETATM    5  C6  UNL     1      25.797   6.717  48.567  1.00  0.00     0.056 A 
HETATM    6  C7  UNL     1      27.113   6.504  48.213  1.00  0.00     0.111 A 
HETATM    7  O2  UNL     1      27.074   7.761  47.747  1.00  0.00    -0.301 OA
HETATM    8  C8  UNL     1      26.759   8.619  48.871  1.00  0.00     0.260 C 
HETATM    9  N1  UNL     1      26.441   8.126  50.139  1.00  0.00    -0.230 NA
HETATM   10  C9  UNL     1      25.223   7.590  50.496  1.00  0.00     0.237 C 
HETATM   11  N2  UNL     1      24.095   6.838  50.301  1.00  0.00    -0.224 NA
HETATM   12  C10 UNL     1      24.327   5.529  49.877  1.00  0.00     0.139 C 
ENDROOT
BRANCH  12  13
HETATM   13  N3  UNL     1      23.637   4.342  50.067  1.00  0.00    -0.350 N 
HETATM   14  H10 UNL     1      23.238   4.729  49.148  1.00  0.00     0.166 HD
BRANCH  13  15
HETATM   15  C11 UNL     1      22.959   3.183  50.247  1.00  0.00     0.090 C 
HETATM   16  C12 UNL     1      22.600   2.091  49.649  1.00  0.00     0.025 C 
BRANCH  16  17
HETATM   17  C13 UNL     1      21.796   1.033  50.236  1.00  0.00     0.057 C 
BRANCH  17  18
HETATM   18  C14 UNL     1      22.019   0.949  51.531  1.00  0.00    -0.117 C 
BRANCH  18  19
HETATM   19  P1  UNL     1      22.671   0.491  53.023  1.00  0.00     0.028 P 
BRANCH  19  20
HETATM   20  C15 UNL     1      21.883  -0.924  53.936  1.00  0.00     0.274 C 
HETATM   21  F1  UNL     1      22.048  -0.759  55.299  1.00  0.00    -0.249 F 
ENDBRANCH  19  20
ENDBRANCH  18  19
ENDBRANCH  17  18
ENDBRANCH  16  17
ENDBRANCH  13  15
ENDBRANCH  12  13
BRANCH   1  22
HETATM   22  O1  UNL     1      28.859   4.771  48.306  1.00  0.00    -0.353 OA
HETATM   23  C1  UNL     1      29.971   5.676  48.127  1.00  0.00     0.210 C 
ENDBRANCH   1  22
TORSDOF 7
ENDMDL
MODEL 7
REMARK VINA RESULT:      -5.9      1.853      2.314
REMARK  7 active torsions:
REMARK  status: ('A' for Active; 'I' for Inactive)
REMARK    1  A    between atoms: O1_2  and  C2_3 
REMARK    2  A    between atoms: C10_14  and  N3_15 
REMARK    3  A    between atoms: N3_15  and  C11_16 
REMARK    4  A    between atoms: C12_17  and  C13_18 
REMARK    5  A    between atoms: C13_18  and  C14_19 
REMARK    6  A    between atoms: C14_19  and  P1_20 
REMARK    7  A    between atoms: P1_20  and  C15_21 
ROOT
HETATM    1  C2  UNL     1      23.323   1.323  52.613  1.00  0.00     0.108 A 
HETATM    2  C3  UNL     1      23.895   2.403  52.064  1.00  0.00    -0.012 A 
HETATM    3  C4  UNL     1      23.405   3.726  51.704  1.00  0.00     0.052 C 
HETATM    4  C5  UNL     1      25.246   1.903  51.860  1.00  0.00     0.021 A 
HETATM    5  C6  UNL     1      25.508   0.602  52.226  1.00  0.00     0.056 A 
HETATM    6  C7  UNL     1      24.257   0.284  52.711  1.00  0.00     0.111 A 
HETATM    7  O2  UNL     1      24.796  -0.909  53.003  1.00  0.00    -0.301 OA
HETATM    8  C8  UNL     1      25.888  -0.665  53.924  1.00  0.00     0.260 C 
HETATM    9  N1  UNL     1      26.310   0.618  54.282  1.00  0.00    -0.230 NA
HETATM   10  C9  UNL     1      27.087   1.443  53.496  1.00  0.00     0.237 C 
HETATM   11  N2  UNL     1      27.486   2.015  52.318  1.00  0.00    -0.224 NA
HETATM   12  C10 UNL     1      26.460   2.588  51.565  1.00  0.00     0.139 C 
ENDROOT
BRANCH  12  13
HETATM   13  N3  UNL     1      26.424   3.659  50.686  1.00  0.00    -0.350 N 
HETATM   14  H10 UNL     1      25.795   3.969  51.498  1.00  0.00     0.166 HD
BRANCH  13  15
HETATM   15  C11 UNL     1      26.386   4.709  49.831  1.00  0.00     0.090 C 
HETATM   16  C12 UNL     1      25.593   5.390  49.064  1.00  0.00     0.025 C 
BRANCH  16  17
HETATM   17  C13 UNL     1      25.985   6.515  48.233  1.00  0.00     0.057 C 
BRANCH  17  18
HETATM   18  C14 UNL     1      27.289   6.687  48.274  1.00  0.00    -0.117 C 
BRANCH  18  19
HETATM   19  P1  UNL     1      28.884   7.000  47.806  1.00  0.00     0.028 P 
BRANCH  19  20
HETATM   20  C15 UNL     1      29.746   8.479  48.533  1.00  0.00     0.274 C 
HETATM   21  F1  UNL     1      28.887   9.162  49.373  1.00  0.00    -0.249 F 
ENDBRANCH  19  20
ENDBRANCH  18  19
ENDBRANCH  17  18
ENDBRANCH  16  17
ENDBRANCH  13  15
ENDBRANCH  12  13
BRANCH   1  22
HETATM   22  O1  UNL     1      22.018   1.262  53.008  1.00  0.00    -0.353 OA
HETATM   23  C1  UNL     1      21.458   0.053  53.564  1.00  0.00     0.210 C 
ENDBRANCH   1  22
TORSDOF 7
ENDMDL
MODEL 8
REMARK VINA RESULT:      -5.7      5.570      7.384
REMARK  7 active torsions:
REMARK  status: ('A' for Active; 'I' for Inactive)
REMARK    1  A    between atoms: O1_2  and  C2_3 
REMARK    2  A    between atoms: C10_14  and  N3_15 
REMARK    3  A    between atoms: N3_15  and  C11_16 
REMARK    4  A    between atoms: C12_17  and  C13_18 
REMARK    5  A    between atoms: C13_18  and  C14_19 
REMARK    6  A    between atoms: C14_19  and  P1_20 
REMARK    7  A    between atoms: P1_20  and  C15_21 
ROOT
HETATM    1  C2  UNL     1      23.602   2.069  50.860  1.00  0.00     0.108 A 
HETATM    2  C3  UNL     1      22.648   1.215  51.255  1.00  0.00    -0.012 A 
HETATM    3  C4  UNL     1      21.415   0.736  50.649  1.00  0.00     0.052 C 
HETATM    4  C5  UNL     1      23.155   0.855  52.571  1.00  0.00     0.021 A 
HETATM    5  C6  UNL     1      24.323   1.449  52.991  1.00  0.00     0.056 A 
HETATM    6  C7  UNL     1      24.573   2.201  51.861  1.00  0.00     0.111 A 
HETATM    7  O2  UNL     1      25.686   2.588  52.501  1.00  0.00    -0.301 OA
HETATM    8  C8  UNL     1      26.463   1.393  52.760  1.00  0.00     0.260 C 
HETATM    9  N1  UNL     1      25.998   0.106  52.477  1.00  0.00    -0.230 NA
HETATM   10  C9  UNL     1      25.088  -0.592  53.242  1.00  0.00     0.237 C 
HETATM   11  N2  UNL     1      23.964  -0.729  54.013  1.00  0.00    -0.224 NA
HETATM   12  C10 UNL     1      22.797  -0.209  53.450  1.00  0.00     0.139 C 
ENDROOT
BRANCH  12  13
HETATM   13  N3  UNL     1      21.462  -0.562  53.559  1.00  0.00    -0.350 N 
HETATM   14  H10 UNL     1      21.436   0.413  53.111  1.00  0.00     0.166 HD
BRANCH  13  15
HETATM   15  C11 UNL     1      20.155  -0.903  53.663  1.00  0.00     0.090 C 
HETATM   16  C12 UNL     1      19.042  -0.951  53.000  1.00  0.00     0.025 C 
BRANCH  16  17
HETATM   17  C13 UNL     1      17.764  -1.392  53.529  1.00  0.00     0.057 C 
BRANCH  17  18
HETATM   18  C14 UNL     1      16.789  -1.074  52.703  1.00  0.00    -0.117 C 
BRANCH  18  19
HETATM   19  P1  UNL     1      15.923  -0.356  51.440  1.00  0.00     0.028 P 
BRANCH  19  20
HETATM   20  C15 UNL     1      16.724  -0.249  49.765  1.00  0.00     0.274 C 
HETATM   21  F1  UNL     1      18.059   0.086  49.899  1.00  0.00    -0.249 F 
ENDBRANCH  19  20
ENDBRANCH  18  19
ENDBRANCH  17  18
ENDBRANCH  16  17
ENDBRANCH  13  15
ENDBRANCH  12  13
BRANCH   1  22
HETATM   22  O1  UNL     1      23.607   2.711  49.656  1.00  0.00    -0.353 OA
HETATM   23  C1  UNL     1      22.989   4.007  49.494  1.00  0.00     0.210 C 
ENDBRANCH   1  22
TORSDOF 7
ENDMDL
MODEL 9
REMARK VINA RESULT:      -5.7      4.709      7.199
REMARK  7 active torsions:
REMARK  status: ('A' for Active; 'I' for Inactive)
REMARK    1  A    between atoms: O1_2  and  C2_3 
REMARK    2  A    between atoms: C10_14  and  N3_15 
REMARK    3  A    between atoms: N3_15  and  C11_16 
REMARK    4  A    between atoms: C12_17  and  C13_18 
REMARK    5  A    between atoms: C13_18  and  C14_19 
REMARK    6  A    between atoms: C14_19  and  P1_20 
REMARK    7  A    between atoms: P1_20  and  C15_21 
ROOT
HETATM    1  C2  UNL     1      23.142   3.506  48.843  1.00  0.00     0.108 A 
HETATM    2  C3  UNL     1      22.984   2.505  49.720  1.00  0.00    -0.012 A 
HETATM    3  C4  UNL     1      22.076   1.369  49.797  1.00  0.00     0.052 C 
HETATM    4  C5  UNL     1      24.007   2.854  50.694  1.00  0.00     0.021 A 
HETATM    5  C6  UNL     1      24.740   3.997  50.469  1.00  0.00     0.056 A 
HETATM    6  C7  UNL     1      24.160   4.365  49.273  1.00  0.00     0.111 A 
HETATM    7  O2  UNL     1      25.033   5.383  49.291  1.00  0.00    -0.301 OA
HETATM    8  C8  UNL     1      26.360   4.801  49.301  1.00  0.00     0.260 C 
HETATM    9  N1  UNL     1      26.588   3.427  49.406  1.00  0.00    -0.230 NA
HETATM   10  C9  UNL     1      26.505   2.698  50.573  1.00  0.00     0.237 C 
HETATM   11  N2  UNL     1      25.958   2.349  51.780  1.00  0.00    -0.224 NA
HETATM   12  C10 UNL     1      24.586   2.095  51.752  1.00  0.00     0.139 C 
ENDROOT
BRANCH  12  13
HETATM   13  N3  UNL     1      23.770   1.256  52.494  1.00  0.00    -0.350 N 
HETATM   14  H10 UNL     1      23.160   2.122  52.319  1.00  0.00     0.166 HD
BRANCH  13  15
HETATM   15  C11 UNL     1      22.968   0.439  53.219  1.00  0.00     0.090 C 
HETATM   16  C12 UNL     1      22.708  -0.807  53.460  1.00  0.00     0.025 C 
BRANCH  16  17
HETATM   17  C13 UNL     1      21.673  -1.295  54.355  1.00  0.00     0.057 C 
BRANCH  17  18
HETATM   18  C14 UNL     1      20.486  -0.901  53.945  1.00  0.00    -0.117 C 
BRANCH  18  19
HETATM   19  P1  UNL     1      19.175  -0.522  52.946  1.00  0.00     0.028 P 
BRANCH  19  20
HETATM   20  C15 UNL     1      19.178   1.116  52.065  1.00  0.00     0.274 C 
HETATM   21  F1  UNL     1      20.103   1.965  52.645  1.00  0.00    -0.249 F 
ENDBRANCH  19  20
ENDBRANCH  18  19
ENDBRANCH  17  18
ENDBRANCH  16  17
ENDBRANCH  13  15
ENDBRANCH  12  13
BRANCH   1  22
HETATM   22  O1  UNL     1      22.404   3.651  47.703  1.00  0.00    -0.353 OA
HETATM   23  C1  UNL     1      22.093   4.957  47.172  1.00  0.00     0.210 C 
ENDBRANCH   1  22
TORSDOF 7
ENDMDL
