MODEL 1
REMARK VINA RESULT:      -7.7      0.000      0.000
REMARK  5 active torsions:
REMARK  status: ('A' for Active; 'I' for Inactive)
REMARK    1  A    between atoms: C2_2  and  C3_3 
REMARK    2  A    between atoms: C2_2  and  N1_5 
REMARK    3  A    between atoms: N1_5  and  C4_6 
REMARK    4  A    between atoms: C6_8  and  C7_9 
REMARK    5  A    between atoms: C7_9  and  C9_11 
ROOT
HETATM    1  C4  UNL     1      25.569   1.183  53.582  1.00  0.00     0.151 C 
HETATM    2  C5  UNL     1      25.068   2.101  52.732  1.00  0.00     0.084 C 
HETATM    3  C6  UNL     1      24.073   1.966  51.663  1.00  0.00     0.067 C 
HETATM    4  N2  UNL     1      23.111   1.094  51.831  1.00  0.00    -0.266 NA
HETATM    5  C15 UNL     1      22.800   0.176  52.912  1.00  0.00     0.322 C 
HETATM    6  N3  UNL     1      23.980  -0.601  53.291  1.00  0.00    -0.169 NA
HETATM    7  N4  UNL     1      25.151  -0.202  53.576  1.00  0.00    -0.135 NA
ENDROOT
BRANCH   3   8
HETATM    8  C7  UNL     1      24.142   2.711  50.423  1.00  0.00    -0.007 C 
HETATM    9  C8  UNL     1      23.035   2.475  49.740  1.00  0.00     0.026 C 
BRANCH   8  10
HETATM   10  C9  UNL     1      25.095   3.590  49.820  1.00  0.00    -0.024 A 
HETATM   11  C10 UNL     1      26.423   3.387  49.558  1.00  0.00     0.014 A 
HETATM   12  C11 UNL     1      27.325   4.272  49.018  1.00  0.00     0.024 A 
HETATM   13  C12 UNL     1      26.798   5.506  48.712  1.00  0.00     0.034 A 
HETATM   14 CL1  UNL     1      27.850   6.721  48.018  1.00  0.00    -0.084 Cl
HETATM   15  C13 UNL     1      25.487   5.831  48.925  1.00  0.00     0.024 A 
HETATM   16  C14 UNL     1      24.666   4.876  49.470  1.00  0.00     0.014 A 
ENDBRANCH   8  10
ENDBRANCH   3   8
BRANCH   1  17
HETATM   17  N1  UNL     1      26.537   1.777  54.472  1.00  0.00    -0.343 N 
HETATM   18  H5  UNL     1      26.147   2.412  55.203  1.00  0.00     0.167 HD
BRANCH  17  19
HETATM   19  C2  UNL     1      27.870   1.378  54.184  1.00  0.00     0.011 C 
HETATM   20  C1  UNL     1      28.595   2.123  53.367  1.00  0.00     0.039 C 
BRANCH  19  21
HETATM   21  C3  UNL     1      28.432   0.145  54.793  1.00  0.00     0.141 C 
HETATM   22 BR1  UNL     1      29.455  -0.883  53.510  1.00  0.00    -0.090 Br
ENDBRANCH  19  21
ENDBRANCH  17  19
ENDBRANCH   1  17
TORSDOF 5
ENDMDL
MODEL 2
REMARK VINA RESULT:      -7.6      3.157      5.733
REMARK  5 active torsions:
REMARK  status: ('A' for Active; 'I' for Inactive)
REMARK    1  A    between atoms: C2_2  and  C3_3 
REMARK    2  A    between atoms: C2_2  and  N1_5 
REMARK    3  A    between atoms: N1_5  and  C4_6 
REMARK    4  A    between atoms: C6_8  and  C7_9 
REMARK    5  A    between atoms: C7_9  and  C9_11 
ROOT
HETATM    1  C4  UNL     1      22.481   1.832  51.773  1.00  0.00     0.151 C 
HETATM    2  C5  UNL     1      23.228   0.806  52.225  1.00  0.00     0.084 C 
HETATM    3  C6  UNL     1      23.027  -0.084  53.373  1.00  0.00     0.067 C 
HETATM    4  N2  UNL     1      21.797  -0.384  53.706  1.00  0.00    -0.266 NA
HETATM    5  C15 UNL     1      20.511   0.000  53.149  1.00  0.00     0.322 C 
HETATM    6  N3  UNL     1      20.432   1.451  52.976  1.00  0.00    -0.169 NA
HETATM    7  N4  UNL     1      21.245   2.240  52.403  1.00  0.00    -0.135 NA
ENDROOT
BRANCH   3   8
HETATM    8  C7  UNL     1      24.119  -0.596  54.175  1.00  0.00    -0.007 C 
HETATM    9  C8  UNL     1      23.604  -1.267  55.191  1.00  0.00     0.026 C 
BRANCH   8  10
HETATM   10  C9  UNL     1      25.546  -0.531  54.104  1.00  0.00    -0.024 A 
HETATM   11  C10 UNL     1      26.424   0.178  54.879  1.00  0.00     0.014 A 
HETATM   12  C11 UNL     1      27.790   0.255  54.756  1.00  0.00     0.024 A 
HETATM   13  C12 UNL     1      28.311  -0.482  53.717  1.00  0.00     0.034 A 
HETATM   14 CL1  UNL     1      30.042  -0.463  53.458  1.00  0.00    -0.084 Cl
HETATM   15  C13 UNL     1      27.539  -1.231  52.874  1.00  0.00     0.024 A 
HETATM   16  C14 UNL     1      26.182  -1.242  53.081  1.00  0.00     0.014 A 
ENDBRANCH   8  10
ENDBRANCH   3   8
BRANCH   1  17
HETATM   17  N1  UNL     1      23.075   2.426  50.599  1.00  0.00    -0.343 N 
HETATM   18  H5  UNL     1      22.695   2.097  49.686  1.00  0.00     0.167 HD
BRANCH  17  19
HETATM   19  C2  UNL     1      24.090   3.371  50.913  1.00  0.00     0.011 C 
HETATM   20  C1  UNL     1      23.793   4.381  51.712  1.00  0.00     0.039 C 
BRANCH  19  21
HETATM   21  C3  UNL     1      25.456   3.219  50.350  1.00  0.00     0.141 C 
HETATM   22 BR1  UNL     1      26.642   2.316  51.587  1.00  0.00    -0.090 Br
ENDBRANCH  19  21
ENDBRANCH  17  19
ENDBRANCH   1  17
TORSDOF 5
ENDMDL
MODEL 3
REMARK VINA RESULT:      -7.4      3.486      5.976
REMARK  5 active torsions:
REMARK  status: ('A' for Active; 'I' for Inactive)
REMARK    1  A    between atoms: C2_2  and  C3_3 
REMARK    2  A    between atoms: C2_2  and  N1_5 
REMARK    3  A    between atoms: N1_5  and  C4_6 
REMARK    4  A    between atoms: C6_8  and  C7_9 
REMARK    5  A    between atoms: C7_9  and  C9_11 
ROOT
HETATM    1  C4  UNL     1      23.629   3.774  51.978  1.00  0.00     0.151 C 
HETATM    2  C5  UNL     1      24.102   2.517  52.092  1.00  0.00     0.084 C 
HETATM    3  C6  UNL     1      23.475   1.311  52.643  1.00  0.00     0.067 C 
HETATM    4  N2  UNL     1      22.180   1.179  52.505  1.00  0.00    -0.266 NA
HETATM    5  C15 UNL     1      21.170   2.021  51.889  1.00  0.00     0.322 C 
HETATM    6  N3  UNL     1      21.284   3.401  52.362  1.00  0.00    -0.169 NA
HETATM    7  N4  UNL     1      22.303   4.156  52.410  1.00  0.00    -0.135 NA
ENDROOT
BRANCH   3   8
HETATM    8  C7  UNL     1      24.214   0.299  53.369  1.00  0.00    -0.007 C 
HETATM    9  C8  UNL     1      23.344  -0.514  53.942  1.00  0.00     0.026 C 
BRANCH   8  10
HETATM   10  C9  UNL     1      25.599   0.014  53.585  1.00  0.00    -0.024 A 
HETATM   11  C10 UNL     1      26.447   0.492  54.548  1.00  0.00     0.014 A 
HETATM   12  C11 UNL     1      27.787   0.233  54.700  1.00  0.00     0.024 A 
HETATM   13  C12 UNL     1      28.314  -0.615  53.753  1.00  0.00     0.034 A 
HETATM   14 CL1  UNL     1      30.015  -1.020  53.842  1.00  0.00    -0.084 Cl
HETATM   15  C13 UNL     1      27.572  -1.159  52.743  1.00  0.00     0.024 A 
HETATM   16  C14 UNL     1      26.239  -0.837  52.677  1.00  0.00     0.014 A 
ENDBRANCH   8  10
ENDBRANCH   3   8
BRANCH   1  17
HETATM   17  N1  UNL     1      24.610   4.641  51.369  1.00  0.00    -0.343 N 
HETATM   18  H5  UNL     1      25.115   5.278  52.022  1.00  0.00     0.167 HD
BRANCH  17  19
HETATM   19  C2  UNL     1      24.707   4.462  49.963  1.00  0.00     0.011 C 
HETATM   20  C1  UNL     1      25.885   4.169  49.438  1.00  0.00     0.039 C 
BRANCH  19  21
HETATM   21  C3  UNL     1      23.503   4.602  49.104  1.00  0.00     0.141 C 
HETATM   22 BR1  UNL     1      22.860   2.882  48.490  1.00  0.00    -0.090 Br
ENDBRANCH  19  21
ENDBRANCH  17  19
ENDBRANCH   1  17
TORSDOF 5
ENDMDL
MODEL 4
REMARK VINA RESULT:      -7.4      3.433      5.884
REMARK  5 active torsions:
REMARK  status: ('A' for Active; 'I' for Inactive)
REMARK    1  A    between atoms: C2_2  and  C3_3 
REMARK    2  A    between atoms: C2_2  and  N1_5 
REMARK    3  A    between atoms: N1_5  and  C4_6 
REMARK    4  A    between atoms: C6_8  and  C7_9 
REMARK    5  A    between atoms: C7_9  and  C9_11 
ROOT
HETATM    1  C4  UNL     1      23.417   2.733  50.992  1.00  0.00     0.151 C 
HETATM    2  C5  UNL     1      23.737   1.525  51.496  1.00  0.00     0.084 C 
HETATM    3  C6  UNL     1      23.262   0.843  52.705  1.00  0.00     0.067 C 
HETATM    4  N2  UNL     1      22.026   1.055  53.080  1.00  0.00    -0.266 NA
HETATM    5  C15 UNL     1      20.960   1.870  52.523  1.00  0.00     0.322 C 
HETATM    6  N3  UNL     1      21.432   3.229  52.256  1.00  0.00    -0.169 NA
HETATM    7  N4  UNL     1      22.458   3.616  51.616  1.00  0.00    -0.135 NA
ENDROOT
BRANCH   3   8
HETATM    8  C7  UNL     1      24.110  -0.003  53.518  1.00  0.00    -0.007 C 
HETATM    9  C8  UNL     1      23.334  -0.761  54.273  1.00  0.00     0.026 C 
BRANCH   8  10
HETATM   10  C9  UNL     1      25.522  -0.178  53.669  1.00  0.00    -0.024 A 
HETATM   11  C10 UNL     1      26.381   0.401  54.564  1.00  0.00     0.014 A 
HETATM   12  C11 UNL     1      27.742   0.246  54.653  1.00  0.00     0.024 A 
HETATM   13  C12 UNL     1      28.281  -0.603  53.713  1.00  0.00     0.034 A 
HETATM   14 CL1  UNL     1      30.010  -0.881  53.724  1.00  0.00    -0.084 Cl
HETATM   15  C13 UNL     1      27.530  -1.243  52.767  1.00  0.00     0.024 A 
HETATM   16  C14 UNL     1      26.175  -1.021  52.762  1.00  0.00     0.014 A 
ENDBRANCH   8  10
ENDBRANCH   3   8
BRANCH   1  17
HETATM   17  N1  UNL     1      24.143   2.990  49.770  1.00  0.00    -0.343 N 
HETATM   18  H5  UNL     1      23.715   2.602  48.902  1.00  0.00     0.167 HD
BRANCH  17  19
HETATM   19  C2  UNL     1      25.331   3.741  49.982  1.00  0.00     0.011 C 
HETATM   20  C1  UNL     1      26.487   3.102  50.035  1.00  0.00     0.039 C 
BRANCH  19  21
HETATM   21  C3  UNL     1      25.267   5.217  50.141  1.00  0.00     0.141 C 
HETATM   22 BR1  UNL     1      26.344   6.125  48.812  1.00  0.00    -0.090 Br
ENDBRANCH  19  21
ENDBRANCH  17  19
ENDBRANCH   1  17
TORSDOF 5
ENDMDL
MODEL 5
REMARK VINA RESULT:      -7.2      3.880      6.279
REMARK  5 active torsions:
REMARK  status: ('A' for Active; 'I' for Inactive)
REMARK    1  A    between atoms: C2_2  and  C3_3 
REMARK    2  A    between atoms: C2_2  and  N1_5 
REMARK    3  A    between atoms: N1_5  and  C4_6 
REMARK    4  A    between atoms: C6_8  and  C7_9 
REMARK    5  A    between atoms: C7_9  and  C9_11 
ROOT
HETATM    1  C4  UNL     1      25.596   1.810  52.172  1.00  0.00     0.151 C 
HETATM    2  C5  UNL     1      24.530   1.448  52.913  1.00  0.00     0.084 C 
HETATM    3  C6  UNL     1      24.104   0.127  53.384  1.00  0.00     0.067 C 
HETATM    4  N2  UNL     1      25.035  -0.748  53.672  1.00  0.00    -0.266 NA
HETATM    5  C15 UNL     1      26.485  -0.688  53.619  1.00  0.00     0.322 C 
HETATM    6  N3  UNL     1      26.938  -0.181  52.324  1.00  0.00    -0.169 NA
HETATM    7  N4  UNL     1      26.580   0.863  51.696  1.00  0.00    -0.135 NA
ENDROOT
BRANCH   3   8
HETATM    8  C7  UNL     1      22.713  -0.261  53.493  1.00  0.00    -0.007 C 
HETATM    9  C8  UNL     1      22.558  -0.920  54.629  1.00  0.00     0.026 C 
BRANCH   8  10
HETATM   10  C9  UNL     1      21.548  -0.094  52.682  1.00  0.00    -0.024 A 
HETATM   11  C10 UNL     1      21.439   0.373  51.400  1.00  0.00     0.014 A 
HETATM   12  C11 UNL     1      20.297   0.566  50.662  1.00  0.00     0.024 A 
HETATM   13  C12 UNL     1      19.133   0.238  51.320  1.00  0.00     0.034 A 
HETATM   14 CL1  UNL     1      17.609   0.441  50.483  1.00  0.00    -0.084 Cl
HETATM   15  C13 UNL     1      19.109  -0.240  52.600  1.00  0.00     0.024 A 
HETATM   16  C14 UNL     1      20.306  -0.396  53.252  1.00  0.00     0.014 A 
ENDBRANCH   8  10
ENDBRANCH   3   8
BRANCH   1  17
HETATM   17  N1  UNL     1      25.609   3.237  51.948  1.00  0.00    -0.343 N 
HETATM   18  H5  UNL     1      25.892   3.819  52.766  1.00  0.00     0.167 HD
BRANCH  17  19
HETATM   19  C2  UNL     1      25.225   3.591  50.626  1.00  0.00     0.011 C 
HETATM   20  C1  UNL     1      26.144   3.595  49.676  1.00  0.00     0.039 C 
BRANCH  19  21
HETATM   21  C3  UNL     1      23.815   3.950  50.325  1.00  0.00     0.141 C 
HETATM   22 BR1  UNL     1      23.092   2.866  48.893  1.00  0.00    -0.090 Br
ENDBRANCH  19  21
ENDBRANCH  17  19
ENDBRANCH   1  17
TORSDOF 5
ENDMDL
MODEL 6
REMARK VINA RESULT:      -7.1      2.409      3.758
REMARK  5 active torsions:
REMARK  status: ('A' for Active; 'I' for Inactive)
REMARK    1  A    between atoms: C2_2  and  C3_3 
REMARK    2  A    between atoms: C2_2  and  N1_5 
REMARK    3  A    between atoms: N1_5  and  C4_6 
REMARK    4  A    between atoms: C6_8  and  C7_9 
REMARK    5  A    between atoms: C7_9  and  C9_11 
ROOT
HETATM    1  C4  UNL     1      24.520   2.169  52.986  1.00  0.00     0.151 C 
HETATM    2  C5  UNL     1      24.693   2.390  51.668  1.00  0.00     0.084 C 
HETATM    3  C6  UNL     1      25.856   2.897  50.932  1.00  0.00     0.067 C 
HETATM    4  N2  UNL     1      27.046   2.595  51.388  1.00  0.00    -0.266 NA
HETATM    5  C15 UNL     1      27.487   1.822  52.535  1.00  0.00     0.322 C 
HETATM    6  N3  UNL     1      26.799   2.256  53.751  1.00  0.00    -0.169 NA
HETATM    7  N4  UNL     1      25.557   2.409  53.964  1.00  0.00    -0.135 NA
ENDROOT
BRANCH   3   8
HETATM    8  C7  UNL     1      25.742   3.750  49.768  1.00  0.00    -0.007 C 
HETATM    9  C8  UNL     1      24.604   3.465  49.158  1.00  0.00     0.026 C 
BRANCH   8  10
HETATM   10  C9  UNL     1      26.551   4.770  49.176  1.00  0.00    -0.024 A 
HETATM   11  C10 UNL     1      27.821   4.690  48.670  1.00  0.00     0.014 A 
HETATM   12  C11 UNL     1      28.590   5.702  48.149  1.00  0.00     0.024 A 
HETATM   13  C12 UNL     1      27.981   6.936  48.146  1.00  0.00     0.034 A 
HETATM   14 CL1  UNL     1      28.862   8.307  47.506  1.00  0.00    -0.084 Cl
HETATM   15  C13 UNL     1      26.716   7.145  48.621  1.00  0.00     0.024 A 
HETATM   16  C14 UNL     1      26.030   6.068  49.123  1.00  0.00     0.014 A 
ENDBRANCH   8  10
ENDBRANCH   3   8
BRANCH   1  17
HETATM   17  N1  UNL     1      23.195   1.663  53.255  1.00  0.00    -0.343 N 
HETATM   18  H5  UNL     1      22.481   2.380  53.507  1.00  0.00     0.167 HD
BRANCH  17  19
HETATM   19  C2  UNL     1      23.108   0.250  53.125  1.00  0.00     0.011 C 
HETATM   20  C1  UNL     1      24.051  -0.499  53.668  1.00  0.00     0.039 C 
BRANCH  19  21
HETATM   21  C3  UNL     1      21.973  -0.366  52.389  1.00  0.00     0.141 C 
HETATM   22 BR1  UNL     1      21.424   0.721  50.884  1.00  0.00    -0.090 Br
ENDBRANCH  19  21
ENDBRANCH  17  19
ENDBRANCH   1  17
TORSDOF 5
ENDMDL
MODEL 7
REMARK VINA RESULT:      -6.9      4.192      6.362
REMARK  5 active torsions:
REMARK  status: ('A' for Active; 'I' for Inactive)
REMARK    1  A    between atoms: C2_2  and  C3_3 
REMARK    2  A    between atoms: C2_2  and  N1_5 
REMARK    3  A    between atoms: N1_5  and  C4_6 
REMARK    4  A    between atoms: C6_8  and  C7_9 
REMARK    5  A    between atoms: C7_9  and  C9_11 
ROOT
HETATM    1  C4  UNL     1      20.843   0.362  52.760  1.00  0.00     0.151 C 
HETATM    2  C5  UNL     1      22.127   0.247  52.367  1.00  0.00     0.084 C 
HETATM    3  C6  UNL     1      23.339  -0.027  53.145  1.00  0.00     0.067 C 
HETATM    4  N2  UNL     1      23.230  -0.807  54.191  1.00  0.00    -0.266 NA
HETATM    5  C15 UNL     1      22.098  -1.499  54.783  1.00  0.00     0.322 C 
HETATM    6  N3  UNL     1      20.970  -0.586  54.968  1.00  0.00    -0.169 NA
HETATM    7  N4  UNL     1      20.426   0.203  54.136  1.00  0.00    -0.135 NA
ENDROOT
BRANCH   3   8
HETATM    8  C7  UNL     1      24.624   0.564  52.838  1.00  0.00    -0.007 C 
HETATM    9  C8  UNL     1      24.413   1.763  52.323  1.00  0.00     0.026 C 
BRANCH   8  10
HETATM   10  C9  UNL     1      25.987   0.149  52.964  1.00  0.00    -0.024 A 
HETATM   11  C10 UNL     1      26.551  -1.075  52.725  1.00  0.00     0.014 A 
HETATM   12  C11 UNL     1      27.859  -1.455  52.900  1.00  0.00     0.024 A 
HETATM   13  C12 UNL     1      28.681  -0.459  53.376  1.00  0.00     0.034 A 
HETATM   14 CL1  UNL     1      30.373  -0.821  53.642  1.00  0.00    -0.084 Cl
HETATM   15  C13 UNL     1      28.240   0.805  53.652  1.00  0.00     0.024 A 
HETATM   16  C14 UNL     1      26.912   1.084  53.443  1.00  0.00     0.014 A 
ENDBRANCH   8  10
ENDBRANCH   3   8
BRANCH   1  17
HETATM   17  N1  UNL     1      19.982   0.642  51.636  1.00  0.00    -0.343 N 
HETATM   18  H5  UNL     1      19.461  -0.177  51.253  1.00  0.00     0.167 HD
BRANCH  17  19
HETATM   19  C2  UNL     1      20.002   2.010  51.252  1.00  0.00     0.011 C 
HETATM   20  C1  UNL     1      19.863   2.935  52.186  1.00  0.00     0.039 C 
BRANCH  19  21
HETATM   21  C3  UNL     1      20.178   2.386  49.826  1.00  0.00     0.141 C 
HETATM   22 BR1  UNL     1      21.359   1.160  48.904  1.00  0.00    -0.090 Br
ENDBRANCH  19  21
ENDBRANCH  17  19
ENDBRANCH   1  17
TORSDOF 5
ENDMDL
MODEL 8
REMARK VINA RESULT:      -6.9      4.259      6.886
REMARK  5 active torsions:
REMARK  status: ('A' for Active; 'I' for Inactive)
REMARK    1  A    between atoms: C2_2  and  C3_3 
REMARK    2  A    between atoms: C2_2  and  N1_5 
REMARK    3  A    between atoms: N1_5  and  C4_6 
REMARK    4  A    between atoms: C6_8  and  C7_9 
REMARK    5  A    between atoms: C7_9  and  C9_11 
ROOT
HETATM    1  C4  UNL     1      20.567   1.094  51.470  1.00  0.00     0.151 C 
HETATM    2  C5  UNL     1      21.580   1.067  52.358  1.00  0.00     0.084 C 
HETATM    3  C6  UNL     1      23.028   0.982  52.146  1.00  0.00     0.067 C 
HETATM    4  N2  UNL     1      23.525   1.554  51.079  1.00  0.00    -0.266 NA
HETATM    5  C15 UNL     1      22.911   2.298  49.993  1.00  0.00     0.322 C 
HETATM    6  N3  UNL     1      21.770   1.567  49.441  1.00  0.00    -0.169 NA
HETATM    7  N4  UNL     1      20.776   1.053  50.039  1.00  0.00    -0.135 NA
ENDROOT
BRANCH   3   8
HETATM    8  C7  UNL     1      23.914   0.255  53.033  1.00  0.00    -0.007 C 
HETATM    9  C8  UNL     1      23.175  -0.528  53.801  1.00  0.00     0.026 C 
BRANCH   8  10
HETATM   10  C9  UNL     1      25.328   0.210  53.239  1.00  0.00    -0.024 A 
HETATM   11  C10 UNL     1      26.164   1.164  53.755  1.00  0.00     0.014 A 
HETATM   12  C11 UNL     1      27.528   1.107  53.898  1.00  0.00     0.024 A 
HETATM   13  C12 UNL     1      28.098  -0.067  53.461  1.00  0.00     0.034 A 
HETATM   14 CL1  UNL     1      29.833  -0.260  53.591  1.00  0.00    -0.084 Cl
HETATM   15  C13 UNL     1      27.371  -1.096  52.929  1.00  0.00     0.024 A 
HETATM   16  C14 UNL     1      26.012  -0.940  52.828  1.00  0.00     0.014 A 
ENDBRANCH   8  10
ENDBRANCH   3   8
BRANCH   1  17
HETATM   17  N1  UNL     1      19.292   1.181  52.142  1.00  0.00    -0.343 N 
HETATM   18  H5  UNL     1      19.001   2.140  52.432  1.00  0.00     0.167 HD
BRANCH  17  19
HETATM   19  C2  UNL     1      18.658  -0.082  52.288  1.00  0.00     0.011 C 
HETATM   20  C1  UNL     1      17.740  -0.438  51.406  1.00  0.00     0.039 C 
BRANCH  19  21
HETATM   21  C3  UNL     1      19.024  -0.980  53.413  1.00  0.00     0.141 C 
HETATM   22 BR1  UNL     1      17.792  -2.465  53.571  1.00  0.00    -0.090 Br
ENDBRANCH  19  21
ENDBRANCH  17  19
ENDBRANCH   1  17
TORSDOF 5
ENDMDL
MODEL 9
REMARK VINA RESULT:      -6.8      3.024      4.553
REMARK  5 active torsions:
REMARK  status: ('A' for Active; 'I' for Inactive)
REMARK    1  A    between atoms: C2_2  and  C3_3 
REMARK    2  A    between atoms: C2_2  and  N1_5 
REMARK    3  A    between atoms: N1_5  and  C4_6 
REMARK    4  A    between atoms: C6_8  and  C7_9 
REMARK    5  A    between atoms: C7_9  and  C9_11 
ROOT
HETATM    1  C4  UNL     1      25.996   0.386  53.502  1.00  0.00     0.151 C 
HETATM    2  C5  UNL     1      25.915   0.847  52.239  1.00  0.00     0.084 C 
HETATM    3  C6  UNL     1      26.437   2.081  51.642  1.00  0.00     0.067 C 
HETATM    4  N2  UNL     1      27.564   2.557  52.109  1.00  0.00    -0.266 NA
HETATM    5  C15 UNL     1      28.460   2.099  53.156  1.00  0.00     0.322 C 
HETATM    6  N3  UNL     1      27.721   1.812  54.385  1.00  0.00    -0.169 NA
HETATM    7  N4  UNL     1      26.686   1.097  54.555  1.00  0.00    -0.135 NA
ENDROOT
BRANCH   3   8
HETATM    8  C7  UNL     1      25.739   2.813  50.605  1.00  0.00    -0.007 C 
HETATM    9  C8  UNL     1      26.637   3.284  49.757  1.00  0.00     0.026 C 
BRANCH   8  10
HETATM   10  C9  UNL     1      24.369   3.114  50.325  1.00  0.00    -0.024 A 
HETATM   11  C10 UNL     1      23.674   2.995  49.152  1.00  0.00     0.014 A 
HETATM   12  C11 UNL     1      22.367   3.338  48.904  1.00  0.00     0.024 A 
HETATM   13  C12 UNL     1      21.700   3.863  49.987  1.00  0.00     0.034 A 
HETATM   14 CL1  UNL     1      20.026   4.339  49.795  1.00  0.00    -0.084 Cl
HETATM   15  C13 UNL     1      22.283   4.030  51.212  1.00  0.00     0.024 A 
HETATM   16  C14 UNL     1      23.595   3.657  51.358  1.00  0.00     0.014 A 
ENDBRANCH   8  10
ENDBRANCH   3   8
BRANCH   1  17
HETATM   17  N1  UNL     1      25.326  -0.886  53.631  1.00  0.00    -0.343 N 
HETATM   18  H5  UNL     1      25.841  -1.708  53.246  1.00  0.00     0.167 HD
BRANCH  17  19
HETATM   19  C2  UNL     1      24.062  -0.782  54.272  1.00  0.00     0.011 C 
HETATM   20  C1  UNL     1      23.936  -1.234  55.508  1.00  0.00     0.039 C 
BRANCH  19  21
HETATM   21  C3  UNL     1      22.908  -0.175  53.560  1.00  0.00     0.141 C 
HETATM   22 BR1  UNL     1      21.262  -0.390  54.555  1.00  0.00    -0.090 Br
ENDBRANCH  19  21
ENDBRANCH  17  19
ENDBRANCH   1  17
TORSDOF 5
ENDMDL
