MODEL 1
REMARK VINA RESULT:      -7.7      0.000      0.000
REMARK  7 active torsions:
REMARK  status: ('A' for Active; 'I' for Inactive)
REMARK    1  A    between atoms: C4_4  and  C5_5 
REMARK    2  A    between atoms: C5_5  and  C6_6 
REMARK    3  A    between atoms: C6_6  and  C7_7 
REMARK    4  A    between atoms: C6_6  and  N1_9 
REMARK    5  A    between atoms: C7_7  and  O1_8 
REMARK    6  A    between atoms: N1_9  and  C8_10 
REMARK       I    between atoms: N4_18  and  C14_19 
REMARK    7  A    between atoms: C14_19  and  C15_21 
ROOT
HETATM    1  C1  UNL     1      26.379   9.344  44.125  1.00  0.00     0.017 C 
HETATM    2  C2  UNL     1      26.517   8.796  45.187  1.00  0.00    -0.090 C 
HETATM    3  C3  UNL     1      26.696   8.158  46.468  1.00  0.00     0.059 C 
HETATM    4  C4  UNL     1      27.878   7.944  47.072  1.00  0.00    -0.016 C 
ENDROOT
BRANCH   4   5
HETATM    5  C5  UNL     1      27.878   7.275  48.388  1.00  0.00     0.065 C 
BRANCH   5   6
HETATM    6  C6  UNL     1      26.961   8.033  49.334  1.00  0.00     0.250 C 
BRANCH   6   7
HETATM    7  C7  UNL     1      27.680   9.209  49.877  1.00  0.00     0.200 C 
BRANCH   7   8
HETATM    8  O1  UNL     1      27.565   9.432  51.229  1.00  0.00    -0.399 OA
HETATM    9  H9  UNL     1      27.785  10.382  51.440  1.00  0.00     0.209 HD
ENDBRANCH   7   8
ENDBRANCH   6   7
BRANCH   6  10
HETATM   10  N1  UNL     1      26.392   7.122  50.266  1.00  0.00     0.121 N 
HETATM   11  H10 UNL     1      26.093   7.605  51.141  1.00  0.00     0.319 HD
BRANCH  10  12
HETATM   12  C8  UNL     1      25.324   6.384  49.721  1.00  0.00     0.400 A 
HETATM   13  N2  UNL     1      24.006   7.029  50.020  1.00  0.00    -0.233 NA
HETATM   14  C9  UNL     1      23.284   6.263  50.820  1.00  0.00     0.373 A 
HETATM   15  N3  UNL     1      23.818   5.030  51.203  1.00  0.00     0.081 N 
HETATM   16  S1  UNL     1      22.655   4.897  51.895  1.00  0.00     0.099 SA
HETATM   17  C10 UNL     1      24.978   5.162  50.513  1.00  0.00     0.192 A 
HETATM   18  C12 UNL     1      24.012   3.737  51.739  1.00  0.00     0.260 A 
HETATM   19  C11 UNL     1      25.160   3.853  51.063  1.00  0.00     0.009 A 
HETATM   20  C19 UNL     1      26.458   3.230  50.673  1.00  0.00     0.060 C 
HETATM   21  C18 UNL     1      26.420   1.894  51.431  1.00  0.00     0.131 C 
HETATM   22  N4  UNL     1      25.142   1.703  52.116  1.00  0.00    -0.337 N 
HETATM   23  C13 UNL     1      23.898   2.429  52.453  1.00  0.00     0.185 C 
HETATM   24  C14 UNL     1      25.136   0.339  52.615  1.00  0.00     0.298 C 
HETATM   25  O2  UNL     1      26.038  -0.568  52.510  1.00  0.00    -0.258 OA
BRANCH  24  26
HETATM   26  C15 UNL     1      24.000  -0.199  53.357  1.00  0.00    -0.006 C 
HETATM   27  C16 UNL     1      23.069  -0.662  53.978  1.00  0.00    -0.101 C 
HETATM   28  C17 UNL     1      21.951  -1.244  54.732  1.00  0.00     0.112 C 
ENDBRANCH  24  26
ENDBRANCH  10  12
ENDBRANCH   6  10
ENDBRANCH   5   6
ENDBRANCH   4   5
TORSDOF 7
ENDMDL
MODEL 2
REMARK VINA RESULT:      -7.3      2.773      8.655
REMARK  7 active torsions:
REMARK  status: ('A' for Active; 'I' for Inactive)
REMARK    1  A    between atoms: C4_4  and  C5_5 
REMARK    2  A    between atoms: C5_5  and  C6_6 
REMARK    3  A    between atoms: C6_6  and  C7_7 
REMARK    4  A    between atoms: C6_6  and  N1_9 
REMARK    5  A    between atoms: C7_7  and  O1_8 
REMARK    6  A    between atoms: N1_9  and  C8_10 
REMARK       I    between atoms: N4_18  and  C14_19 
REMARK    7  A    between atoms: C14_19  and  C15_21 
ROOT
HETATM    1  C1  UNL     1      19.562   3.536  51.470  1.00  0.00     0.017 C 
HETATM    2  C2  UNL     1      19.670   2.438  51.949  1.00  0.00    -0.090 C 
HETATM    3  C3  UNL     1      19.796   1.131  52.547  1.00  0.00     0.059 C 
HETATM    4  C4  UNL     1      20.655   0.804  53.528  1.00  0.00    -0.016 C 
ENDROOT
BRANCH   4   5
HETATM    5  C5  UNL     1      20.651  -0.586  54.024  1.00  0.00     0.065 C 
BRANCH   5   6
HETATM    6  C6  UNL     1      22.080  -1.102  54.075  1.00  0.00     0.250 C 
BRANCH   6   7
HETATM    7  C7  UNL     1      22.272  -1.895  55.311  1.00  0.00     0.200 C 
BRANCH   7   8
HETATM    8  O1  UNL     1      23.450  -1.699  55.993  1.00  0.00    -0.399 OA
HETATM    9  H9  UNL     1      23.533  -2.364  56.733  1.00  0.00     0.209 HD
ENDBRANCH   7   8
ENDBRANCH   6   7
BRANCH   6  10
HETATM   10  N1  UNL     1      22.976  -0.023  53.840  1.00  0.00     0.121 N 
HETATM   11  H10 UNL     1      23.442   0.288  54.720  1.00  0.00     0.319 HD
BRANCH  10  12
HETATM   12  C8  UNL     1      23.937  -0.320  52.853  1.00  0.00     0.400 A 
HETATM   13  N2  UNL     1      25.274  -0.611  53.463  1.00  0.00    -0.233 NA
HETATM   14  C9  UNL     1      26.151   0.318  53.125  1.00  0.00     0.373 A 
HETATM   15  N3  UNL     1      25.727   1.341  52.272  1.00  0.00     0.081 N 
HETATM   16  S1  UNL     1      27.003   1.790  52.402  1.00  0.00     0.099 SA
HETATM   17  C10 UNL     1      24.454   0.891  52.141  1.00  0.00     0.192 A 
HETATM   18  C12 UNL     1      25.666   2.462  51.415  1.00  0.00     0.260 A 
HETATM   19  C11 UNL     1      24.409   2.030  51.276  1.00  0.00     0.009 A 
HETATM   20  C19 UNL     1      23.073   2.229  50.640  1.00  0.00     0.060 C 
HETATM   21  C18 UNL     1      23.284   3.521  49.835  1.00  0.00     0.131 C 
HETATM   22  N4  UNL     1      24.673   3.974  49.903  1.00  0.00    -0.337 N 
HETATM   23  C13 UNL     1      25.942   3.688  50.607  1.00  0.00     0.185 C 
HETATM   24  C14 UNL     1      24.804   5.063  48.951  1.00  0.00     0.298 C 
HETATM   25  O2  UNL     1      23.918   5.574  48.175  1.00  0.00    -0.258 OA
BRANCH  24  26
HETATM   26  C15 UNL     1      26.072   5.758  48.754  1.00  0.00    -0.006 C 
HETATM   27  C16 UNL     1      27.118   6.342  48.572  1.00  0.00    -0.101 C 
HETATM   28  C17 UNL     1      28.379   7.053  48.328  1.00  0.00     0.112 C 
ENDBRANCH  24  26
ENDBRANCH  10  12
ENDBRANCH   6  10
ENDBRANCH   5   6
ENDBRANCH   4   5
TORSDOF 7
ENDMDL
MODEL 3
REMARK VINA RESULT:      -7.0      5.104      8.573
REMARK  7 active torsions:
REMARK  status: ('A' for Active; 'I' for Inactive)
REMARK    1  A    between atoms: C4_4  and  C5_5 
REMARK    2  A    between atoms: C5_5  and  C6_6 
REMARK    3  A    between atoms: C6_6  and  C7_7 
REMARK    4  A    between atoms: C6_6  and  N1_9 
REMARK    5  A    between atoms: C7_7  and  O1_8 
REMARK    6  A    between atoms: N1_9  and  C8_10 
REMARK       I    between atoms: N4_18  and  C14_19 
REMARK    7  A    between atoms: C14_19  and  C15_21 
ROOT
HETATM    1  C1  UNL     1      20.829   2.556  48.206  1.00  0.00     0.017 C 
HETATM    2  C2  UNL     1      20.020   2.020  48.917  1.00  0.00    -0.090 C 
HETATM    3  C3  UNL     1      19.037   1.397  49.770  1.00  0.00     0.059 C 
HETATM    4  C4  UNL     1      18.593   1.896  50.937  1.00  0.00    -0.016 C 
ENDROOT
BRANCH   4   5
HETATM    5  C5  UNL     1      17.581   1.123  51.684  1.00  0.00     0.065 C 
BRANCH   5   6
HETATM    6  C6  UNL     1      18.207  -0.171  52.181  1.00  0.00     0.250 C 
BRANCH   6   7
HETATM    7  C7  UNL     1      17.168  -0.997  52.837  1.00  0.00     0.200 C 
BRANCH   7   8
HETATM    8  O1  UNL     1      17.422  -1.395  54.130  1.00  0.00    -0.399 OA
HETATM    9  H9  UNL     1      17.849  -0.652  54.640  1.00  0.00     0.209 HD
ENDBRANCH   7   8
ENDBRANCH   6   7
BRANCH   6  10
HETATM   10  N1  UNL     1      19.377   0.133  52.931  1.00  0.00     0.121 N 
HETATM   11  H10 UNL     1      19.163   0.259  53.943  1.00  0.00     0.319 HD
BRANCH  10  12
HETATM   12  C8  UNL     1      20.395  -0.826  52.759  1.00  0.00     0.400 A 
HETATM   13  N2  UNL     1      20.557  -1.674  53.983  1.00  0.00    -0.233 NA
HETATM   14  C9  UNL     1      21.736  -1.462  54.543  1.00  0.00     0.373 A 
HETATM   15  N3  UNL     1      22.606  -0.564  53.918  1.00  0.00     0.081 N 
HETATM   16  S1  UNL     1      23.439  -0.869  54.949  1.00  0.00     0.099 SA
HETATM   17  C10 UNL     1      21.775  -0.260  52.890  1.00  0.00     0.192 A 
HETATM   18  C12 UNL     1      23.725   0.216  53.550  1.00  0.00     0.260 A 
HETATM   19  C11 UNL     1      22.917   0.524  52.531  1.00  0.00     0.009 A 
HETATM   20  C19 UNL     1      22.724   1.292  51.266  1.00  0.00     0.060 C 
HETATM   21  C18 UNL     1      24.044   2.072  51.154  1.00  0.00     0.131 C 
HETATM   22  N4  UNL     1      24.980   1.696  52.213  1.00  0.00    -0.337 N 
HETATM   23  C13 UNL     1      25.046   0.907  53.462  1.00  0.00     0.185 C 
HETATM   24  C14 UNL     1      26.249   2.327  51.891  1.00  0.00     0.298 C 
HETATM   25  O2  UNL     1      26.553   3.075  50.894  1.00  0.00    -0.258 OA
BRANCH  24  26
HETATM   26  C15 UNL     1      27.422   2.162  52.743  1.00  0.00    -0.006 C 
HETATM   27  C16 UNL     1      28.390   2.005  53.454  1.00  0.00    -0.101 C 
HETATM   28  C17 UNL     1      29.554   1.794  54.324  1.00  0.00     0.112 C 
ENDBRANCH  24  26
ENDBRANCH  10  12
ENDBRANCH   6  10
ENDBRANCH   5   6
ENDBRANCH   4   5
TORSDOF 7
ENDMDL
MODEL 4
REMARK VINA RESULT:      -7.0      4.201      7.681
REMARK  7 active torsions:
REMARK  status: ('A' for Active; 'I' for Inactive)
REMARK    1  A    between atoms: C4_4  and  C5_5 
REMARK    2  A    between atoms: C5_5  and  C6_6 
REMARK    3  A    between atoms: C6_6  and  C7_7 
REMARK    4  A    between atoms: C6_6  and  N1_9 
REMARK    5  A    between atoms: C7_7  and  O1_8 
REMARK    6  A    between atoms: N1_9  and  C8_10 
REMARK       I    between atoms: N4_18  and  C14_19 
REMARK    7  A    between atoms: C14_19  and  C15_21 
ROOT
HETATM    1  C1  UNL     1      22.662  -1.561  55.333  1.00  0.00     0.017 C 
HETATM    2  C2  UNL     1      23.827  -1.269  55.399  1.00  0.00    -0.090 C 
HETATM    3  C3  UNL     1      25.218  -0.895  55.479  1.00  0.00     0.059 C 
HETATM    4  C4  UNL     1      25.828   0.004  54.688  1.00  0.00    -0.016 C 
ENDROOT
BRANCH   4   5
HETATM    5  C5  UNL     1      27.264   0.266  54.909  1.00  0.00     0.065 C 
BRANCH   5   6
HETATM    6  C6  UNL     1      27.877   0.802  53.624  1.00  0.00     0.250 C 
BRANCH   6   7
HETATM    7  C7  UNL     1      29.329   1.017  53.827  1.00  0.00     0.200 C 
BRANCH   7   8
HETATM    8  O1  UNL     1      29.691   2.093  54.602  1.00  0.00    -0.399 OA
HETATM    9  H9  UNL     1      28.970   2.783  54.590  1.00  0.00     0.209 HD
ENDBRANCH   7   8
ENDBRANCH   6   7
BRANCH   6  10
HETATM   10  N1  UNL     1      27.107   1.904  53.162  1.00  0.00     0.121 N 
HETATM   11  H10 UNL     1      27.620   2.805  53.274  1.00  0.00     0.319 HD
BRANCH  10  12
HETATM   12  C8  UNL     1      26.678   1.745  51.829  1.00  0.00     0.400 A 
HETATM   13  N2  UNL     1      27.164   2.865  50.962  1.00  0.00    -0.233 NA
HETATM   14  C9  UNL     1      26.148   3.591  50.527  1.00  0.00     0.373 A 
HETATM   15  N3  UNL     1      24.858   3.196  50.892  1.00  0.00     0.081 N 
HETATM   16  S1  UNL     1      24.471   4.278  50.164  1.00  0.00     0.099 SA
HETATM   17  C10 UNL     1      25.243   2.118  51.617  1.00  0.00     0.192 A 
HETATM   18  C12 UNL     1      23.456   3.072  51.017  1.00  0.00     0.260 A 
HETATM   19  C11 UNL     1      23.822   2.005  51.735  1.00  0.00     0.009 A 
HETATM   20  C19 UNL     1      23.394   0.830  52.550  1.00  0.00     0.060 C 
HETATM   21  C18 UNL     1      21.865   0.983  52.564  1.00  0.00     0.131 C 
HETATM   22  N4  UNL     1      21.430   2.096  51.721  1.00  0.00    -0.337 N 
HETATM   23  C13 UNL     1      21.973   3.237  50.952  1.00  0.00     0.185 C 
HETATM   24  C14 UNL     1      19.981   2.017  51.641  1.00  0.00     0.298 C 
HETATM   25  O2  UNL     1      19.183   1.166  52.177  1.00  0.00    -0.258 OA
BRANCH  24  26
HETATM   26  C15 UNL     1      19.204   2.983  50.871  1.00  0.00    -0.006 C 
HETATM   27  C16 UNL     1      18.542   3.773  50.233  1.00  0.00    -0.101 C 
HETATM   28  C17 UNL     1      17.723   4.714  49.459  1.00  0.00     0.112 C 
ENDBRANCH  24  26
ENDBRANCH  10  12
ENDBRANCH   6  10
ENDBRANCH   5   6
ENDBRANCH   4   5
TORSDOF 7
ENDMDL
MODEL 5
REMARK VINA RESULT:      -6.9      1.955      2.305
REMARK  7 active torsions:
REMARK  status: ('A' for Active; 'I' for Inactive)
REMARK    1  A    between atoms: C4_4  and  C5_5 
REMARK    2  A    between atoms: C5_5  and  C6_6 
REMARK    3  A    between atoms: C6_6  and  C7_7 
REMARK    4  A    between atoms: C6_6  and  N1_9 
REMARK    5  A    between atoms: C7_7  and  O1_8 
REMARK    6  A    between atoms: N1_9  and  C8_10 
REMARK       I    between atoms: N4_18  and  C14_19 
REMARK    7  A    between atoms: C14_19  and  C15_21 
ROOT
HETATM    1  C1  UNL     1      25.779  12.621  47.888  1.00  0.00     0.017 C 
HETATM    2  C2  UNL     1      26.176  11.495  48.041  1.00  0.00    -0.090 C 
HETATM    3  C3  UNL     1      26.629  10.138  48.225  1.00  0.00     0.059 C 
HETATM    4  C4  UNL     1      26.244   9.319  49.219  1.00  0.00    -0.016 C 
ENDROOT
BRANCH   4   5
HETATM    5  C5  UNL     1      26.810   7.955  49.256  1.00  0.00     0.065 C 
BRANCH   5   6
HETATM    6  C6  UNL     1      25.739   6.983  49.725  1.00  0.00     0.250 C 
BRANCH   6   7
HETATM    7  C7  UNL     1      24.898   7.638  50.753  1.00  0.00     0.200 C 
BRANCH   7   8
HETATM    8  O1  UNL     1      24.644   6.915  51.895  1.00  0.00    -0.399 OA
HETATM    9  H9  UNL     1      24.702   5.938  51.702  1.00  0.00     0.209 HD
ENDBRANCH   7   8
ENDBRANCH   6   7
BRANCH   6  10
HETATM   10  N1  UNL     1      26.347   5.743  50.065  1.00  0.00     0.121 N 
HETATM   11  H10 UNL     1      26.331   5.577  51.094  1.00  0.00     0.319 HD
BRANCH  10  12
HETATM   12  C8  UNL     1      25.776   4.653  49.381  1.00  0.00     0.400 A 
HETATM   13  N2  UNL     1      24.448   5.016  48.788  1.00  0.00    -0.233 NA
HETATM   14  C9  UNL     1      23.477   4.334  49.371  1.00  0.00     0.373 A 
HETATM   15  N3  UNL     1      23.827   3.410  50.360  1.00  0.00     0.081 N 
HETATM   16  S1  UNL     1      22.488   3.185  50.428  1.00  0.00     0.099 SA
HETATM   17  C10 UNL     1      25.163   3.633  50.290  1.00  0.00     0.192 A 
HETATM   18  C12 UNL     1      23.813   2.388  51.335  1.00  0.00     0.260 A 
HETATM   19  C11 UNL     1      25.132   2.598  51.277  1.00  0.00     0.009 A 
HETATM   20  C19 UNL     1      26.488   2.228  51.779  1.00  0.00     0.060 C 
HETATM   21  C18 UNL     1      26.163   1.168  52.844  1.00  0.00     0.131 C 
HETATM   22  N4  UNL     1      24.734   0.859  52.874  1.00  0.00    -0.337 N 
HETATM   23  C13 UNL     1      23.445   1.325  52.318  1.00  0.00     0.185 C 
HETATM   24  C14 UNL     1      24.574  -0.288  53.752  1.00  0.00     0.298 C 
HETATM   25  O2  UNL     1      25.465  -0.945  54.400  1.00  0.00    -0.258 OA
BRANCH  24  26
HETATM   26  C15 UNL     1      23.262  -0.871  54.015  1.00  0.00    -0.006 C 
HETATM   27  C16 UNL     1      22.168  -1.352  54.213  1.00  0.00    -0.101 C 
HETATM   28  C17 UNL     1      20.835  -1.928  54.432  1.00  0.00     0.112 C 
ENDBRANCH  24  26
ENDBRANCH  10  12
ENDBRANCH   6  10
ENDBRANCH   5   6
ENDBRANCH   4   5
TORSDOF 7
ENDMDL
MODEL 6
REMARK VINA RESULT:      -6.6      3.806      5.356
REMARK  7 active torsions:
REMARK  status: ('A' for Active; 'I' for Inactive)
REMARK    1  A    between atoms: C4_4  and  C5_5 
REMARK    2  A    between atoms: C5_5  and  C6_6 
REMARK    3  A    between atoms: C6_6  and  C7_7 
REMARK    4  A    between atoms: C6_6  and  N1_9 
REMARK    5  A    between atoms: C7_7  and  O1_8 
REMARK    6  A    between atoms: N1_9  and  C8_10 
REMARK       I    between atoms: N4_18  and  C14_19 
REMARK    7  A    between atoms: C14_19  and  C15_21 
ROOT
HETATM    1  C1  UNL     1      21.417   5.644  44.374  1.00  0.00     0.017 C 
HETATM    2  C2  UNL     1      21.548   4.702  45.111  1.00  0.00    -0.090 C 
HETATM    3  C3  UNL     1      21.696   3.586  46.013  1.00  0.00     0.059 C 
HETATM    4  C4  UNL     1      22.335   3.621  47.195  1.00  0.00    -0.016 C 
ENDROOT
BRANCH   4   5
HETATM    5  C5  UNL     1      22.392   2.381  47.994  1.00  0.00     0.065 C 
BRANCH   5   6
HETATM    6  C6  UNL     1      22.029   2.699  49.436  1.00  0.00     0.250 C 
BRANCH   6   7
HETATM    7  C7  UNL     1      20.886   1.854  49.852  1.00  0.00     0.200 C 
BRANCH   7   8
HETATM    8  O1  UNL     1      20.163   1.256  48.846  1.00  0.00    -0.399 OA
HETATM    9  H9  UNL     1      19.395   0.748  49.231  1.00  0.00     0.209 HD
ENDBRANCH   7   8
ENDBRANCH   6   7
BRANCH   6  10
HETATM   10  N1  UNL     1      21.894   4.107  49.585  1.00  0.00     0.121 N 
HETATM   11  H10 UNL     1      20.947   4.367  49.936  1.00  0.00     0.319 HD
BRANCH  10  12
HETATM   12  C8  UNL     1      22.894   4.663  50.407  1.00  0.00     0.400 A 
HETATM   13  N2  UNL     1      23.947   5.351  49.593  1.00  0.00    -0.233 NA
HETATM   14  C9  UNL     1      25.105   4.723  49.705  1.00  0.00     0.373 A 
HETATM   15  N3  UNL     1      25.167   3.608  50.545  1.00  0.00     0.081 N 
HETATM   16  S1  UNL     1      26.470   3.564  50.161  1.00  0.00     0.099 SA
HETATM   17  C10 UNL     1      23.867   3.653  50.929  1.00  0.00     0.192 A 
HETATM   18  C12 UNL     1      25.599   2.507  51.318  1.00  0.00     0.260 A 
HETATM   19  C11 UNL     1      24.320   2.540  51.706  1.00  0.00     0.009 A 
HETATM   20  C19 UNL     1      23.247   1.939  52.550  1.00  0.00     0.060 C 
HETATM   21  C18 UNL     1      23.974   0.758  53.212  1.00  0.00     0.131 C 
HETATM   22  N4  UNL     1      25.396   0.745  52.869  1.00  0.00    -0.337 N 
HETATM   23  C13 UNL     1      26.369   1.408  51.975  1.00  0.00     0.185 C 
HETATM   24  C14 UNL     1      26.016  -0.270  53.704  1.00  0.00     0.298 C 
HETATM   25  O2  UNL     1      25.481  -1.034  54.585  1.00  0.00    -0.258 OA
BRANCH  24  26
HETATM   26  C15 UNL     1      27.445  -0.555  53.625  1.00  0.00    -0.006 C 
HETATM   27  C16 UNL     1      28.627  -0.813  53.558  1.00  0.00    -0.101 C 
HETATM   28  C17 UNL     1      30.055  -1.148  53.479  1.00  0.00     0.112 C 
ENDBRANCH  24  26
ENDBRANCH  10  12
ENDBRANCH   6  10
ENDBRANCH   5   6
ENDBRANCH   4   5
TORSDOF 7
ENDMDL
MODEL 7
REMARK VINA RESULT:      -6.5      2.775      8.584
REMARK  7 active torsions:
REMARK  status: ('A' for Active; 'I' for Inactive)
REMARK    1  A    between atoms: C4_4  and  C5_5 
REMARK    2  A    between atoms: C5_5  and  C6_6 
REMARK    3  A    between atoms: C6_6  and  C7_7 
REMARK    4  A    between atoms: C6_6  and  N1_9 
REMARK    5  A    between atoms: C7_7  and  O1_8 
REMARK    6  A    between atoms: N1_9  and  C8_10 
REMARK       I    between atoms: N4_18  and  C14_19 
REMARK    7  A    between atoms: C14_19  and  C15_21 
ROOT
HETATM    1  C1  UNL     1      27.178  -2.209  52.338  1.00  0.00     0.017 C 
HETATM    2  C2  UNL     1      26.412  -1.420  52.828  1.00  0.00    -0.090 C 
HETATM    3  C3  UNL     1      25.476  -0.487  53.404  1.00  0.00     0.059 C 
HETATM    4  C4  UNL     1      24.576   0.237  52.715  1.00  0.00    -0.016 C 
ENDROOT
BRANCH   4   5
HETATM    5  C5  UNL     1      23.691   1.148  53.468  1.00  0.00     0.065 C 
BRANCH   5   6
HETATM    6  C6  UNL     1      22.242   0.777  53.194  1.00  0.00     0.250 C 
BRANCH   6   7
HETATM    7  C7  UNL     1      21.760  -0.132  54.259  1.00  0.00     0.200 C 
BRANCH   7   8
HETATM    8  O1  UNL     1      21.587  -1.452  53.911  1.00  0.00    -0.399 OA
HETATM    9  H9  UNL     1      21.753  -1.574  52.935  1.00  0.00     0.209 HD
ENDBRANCH   7   8
ENDBRANCH   6   7
BRANCH   6  10
HETATM   10  N1  UNL     1      22.117   0.338  51.847  1.00  0.00     0.121 N 
HETATM   11  H10 UNL     1      21.797  -0.653  51.795  1.00  0.00     0.319 HD
BRANCH  10  12
HETATM   12  C8  UNL     1      21.277   1.169  51.081  1.00  0.00     0.400 A 
HETATM   13  N2  UNL     1      20.948   0.543  49.760  1.00  0.00    -0.233 NA
HETATM   14  C9  UNL     1      21.473   1.245  48.770  1.00  0.00     0.373 A 
HETATM   15  N3  UNL     1      22.175   2.410  49.093  1.00  0.00     0.081 N 
HETATM   16  S1  UNL     1      22.352   2.509  47.748  1.00  0.00     0.099 SA
HETATM   17  C10 UNL     1      21.997   2.311  50.433  1.00  0.00     0.192 A 
HETATM   18  C12 UNL     1      22.886   3.629  49.042  1.00  0.00     0.260 A 
HETATM   19  C11 UNL     1      22.718   3.545  50.366  1.00  0.00     0.009 A 
HETATM   20  C19 UNL     1      22.954   4.159  51.705  1.00  0.00     0.060 C 
HETATM   21  C18 UNL     1      23.779   5.406  51.352  1.00  0.00     0.131 C 
HETATM   22  N4  UNL     1      23.912   5.568  49.904  1.00  0.00    -0.337 N 
HETATM   23  C13 UNL     1      23.637   4.856  48.637  1.00  0.00     0.185 C 
HETATM   24  C14 UNL     1      24.517   6.871  49.684  1.00  0.00     0.298 C 
HETATM   25  O2  UNL     1      24.885   7.750  50.543  1.00  0.00    -0.258 OA
BRANCH  24  26
HETATM   26  C15 UNL     1      24.797   7.366  48.340  1.00  0.00    -0.006 C 
HETATM   27  C16 UNL     1      25.050   7.780  47.230  1.00  0.00    -0.101 C 
HETATM   28  C17 UNL     1      25.378   8.291  45.893  1.00  0.00     0.112 C 
ENDBRANCH  24  26
ENDBRANCH  10  12
ENDBRANCH   6  10
ENDBRANCH   5   6
ENDBRANCH   4   5
TORSDOF 7
ENDMDL
MODEL 8
REMARK VINA RESULT:      -6.5      5.342      8.882
REMARK  7 active torsions:
REMARK  status: ('A' for Active; 'I' for Inactive)
REMARK    1  A    between atoms: C4_4  and  C5_5 
REMARK    2  A    between atoms: C5_5  and  C6_6 
REMARK    3  A    between atoms: C6_6  and  C7_7 
REMARK    4  A    between atoms: C6_6  and  N1_9 
REMARK    5  A    between atoms: C7_7  and  O1_8 
REMARK    6  A    between atoms: N1_9  and  C8_10 
REMARK       I    between atoms: N4_18  and  C14_19 
REMARK    7  A    between atoms: C14_19  and  C15_21 
ROOT
HETATM    1  C1  UNL     1      15.140  -0.835  46.928  1.00  0.00     0.017 C 
HETATM    2  C2  UNL     1      15.528  -0.774  48.065  1.00  0.00    -0.090 C 
HETATM    3  C3  UNL     1      15.995  -0.676  49.426  1.00  0.00     0.059 C 
HETATM    4  C4  UNL     1      17.142  -0.092  49.814  1.00  0.00    -0.016 C 
ENDROOT
BRANCH   4   5
HETATM    5  C5  UNL     1      17.467  -0.083  51.254  1.00  0.00     0.065 C 
BRANCH   5   6
HETATM    6  C6  UNL     1      18.256   1.176  51.580  1.00  0.00     0.250 C 
BRANCH   6   7
HETATM    7  C7  UNL     1      18.854   1.715  50.337  1.00  0.00     0.200 C 
BRANCH   7   8
HETATM    8  O1  UNL     1      18.905   3.085  50.219  1.00  0.00    -0.399 OA
HETATM    9  H9  UNL     1      19.516   3.466  50.910  1.00  0.00     0.209 HD
ENDBRANCH   7   8
ENDBRANCH   6   7
BRANCH   6  10
HETATM   10  N1  UNL     1      19.130   0.913  52.670  1.00  0.00     0.121 N 
HETATM   11  H10 UNL     1      18.607   0.821  53.568  1.00  0.00     0.319 HD
BRANCH  10  12
HETATM   12  C8  UNL     1      19.941  -0.218  52.454  1.00  0.00     0.400 A 
HETATM   13  N2  UNL     1      19.904  -1.149  53.628  1.00  0.00    -0.233 NA
HETATM   14  C9  UNL     1      21.088  -1.207  54.213  1.00  0.00     0.373 A 
HETATM   15  N3  UNL     1      22.133  -0.467  53.652  1.00  0.00     0.081 N 
HETATM   16  S1  UNL     1      22.865  -0.989  54.672  1.00  0.00     0.099 SA
HETATM   17  C10 UNL     1      21.403   0.053  52.634  1.00  0.00     0.192 A 
HETATM   18  C12 UNL     1      23.392   0.094  53.344  1.00  0.00     0.260 A 
HETATM   19  C11 UNL     1      22.685   0.612  52.335  1.00  0.00     0.009 A 
HETATM   20  C19 UNL     1      22.678   1.472  51.115  1.00  0.00     0.060 C 
HETATM   21  C18 UNL     1      24.128   1.980  51.065  1.00  0.00     0.131 C 
HETATM   22  N4  UNL     1      24.946   1.366  52.110  1.00  0.00    -0.337 N 
HETATM   23  C13 UNL     1      24.826   0.512  53.311  1.00  0.00     0.185 C 
HETATM   24  C14 UNL     1      26.322   1.748  51.840  1.00  0.00     0.298 C 
HETATM   25  O2  UNL     1      26.792   2.475  50.893  1.00  0.00    -0.258 OA
BRANCH  24  26
HETATM   26  C15 UNL     1      27.419   1.306  52.695  1.00  0.00    -0.006 C 
HETATM   27  C16 UNL     1      28.341   0.932  53.387  1.00  0.00    -0.101 C 
HETATM   28  C17 UNL     1      29.466   0.466  54.208  1.00  0.00     0.112 C 
ENDBRANCH  24  26
ENDBRANCH  10  12
ENDBRANCH   6  10
ENDBRANCH   5   6
ENDBRANCH   4   5
TORSDOF 7
ENDMDL
MODEL 9
REMARK VINA RESULT:      -6.4      4.066      6.669
REMARK  7 active torsions:
REMARK  status: ('A' for Active; 'I' for Inactive)
REMARK    1  A    between atoms: C4_4  and  C5_5 
REMARK    2  A    between atoms: C5_5  and  C6_6 
REMARK    3  A    between atoms: C6_6  and  C7_7 
REMARK    4  A    between atoms: C6_6  and  N1_9 
REMARK    5  A    between atoms: C7_7  and  O1_8 
REMARK    6  A    between atoms: N1_9  and  C8_10 
REMARK       I    between atoms: N4_18  and  C14_19 
REMARK    7  A    between atoms: C14_19  and  C15_21 
ROOT
HETATM    1  C1  UNL     1      23.181   7.629  50.401  1.00  0.00     0.017 C 
HETATM    2  C2  UNL     1      22.169   6.979  50.437  1.00  0.00    -0.090 C 
HETATM    3  C3  UNL     1      20.958   6.199  50.505  1.00  0.00     0.059 C 
HETATM    4  C4  UNL     1      20.837   5.001  51.104  1.00  0.00    -0.016 C 
ENDROOT
BRANCH   4   5
HETATM    5  C5  UNL     1      19.518   4.339  51.079  1.00  0.00     0.065 C 
BRANCH   5   6
HETATM    6  C6  UNL     1      19.649   2.994  50.380  1.00  0.00     0.250 C 
BRANCH   6   7
HETATM    7  C7  UNL     1      19.119   3.105  49.001  1.00  0.00     0.200 C 
BRANCH   7   8
HETATM    8  O1  UNL     1      18.229   4.126  48.762  1.00  0.00    -0.399 OA
HETATM    9  H9  UNL     1      17.987   4.577  49.619  1.00  0.00     0.209 HD
ENDBRANCH   7   8
ENDBRANCH   6   7
BRANCH   6  10
HETATM   10  N1  UNL     1      19.106   1.978  51.214  1.00  0.00     0.121 N 
HETATM   11  H10 UNL     1      18.090   1.833  51.030  1.00  0.00     0.319 HD
BRANCH  10  12
HETATM   12  C8  UNL     1      19.805   0.760  51.109  1.00  0.00     0.400 A 
HETATM   13  N2  UNL     1      19.420  -0.186  52.206  1.00  0.00    -0.233 NA
HETATM   14  C9  UNL     1      20.445  -0.406  53.012  1.00  0.00     0.373 A 
HETATM   15  N3  UNL     1      21.661   0.211  52.707  1.00  0.00     0.081 N 
HETATM   16  S1  UNL     1      22.103  -0.422  53.827  1.00  0.00     0.099 SA
HETATM   17  C10 UNL     1      21.221   0.841  51.591  1.00  0.00     0.192 A 
HETATM   18  C12 UNL     1      23.015   0.617  52.684  1.00  0.00     0.260 A 
HETATM   19  C11 UNL     1      22.594   1.243  51.580  1.00  0.00     0.009 A 
HETATM   20  C19 UNL     1      22.937   2.125  50.427  1.00  0.00     0.060 C 
HETATM   21  C18 UNL     1      24.416   2.448  50.691  1.00  0.00     0.131 C 
HETATM   22  N4  UNL     1      24.926   1.712  51.848  1.00  0.00    -0.337 N 
HETATM   23  C13 UNL     1      24.464   0.852  52.959  1.00  0.00     0.185 C 
HETATM   24  C14 UNL     1      26.363   1.926  51.877  1.00  0.00     0.298 C 
HETATM   25  O2  UNL     1      27.099   2.610  51.078  1.00  0.00    -0.258 OA
BRANCH  24  26
HETATM   26  C15 UNL     1      27.204   1.330  52.911  1.00  0.00    -0.006 C 
HETATM   27  C16 UNL     1      27.899   0.853  53.781  1.00  0.00    -0.101 C 
HETATM   28  C17 UNL     1      28.743   0.296  54.845  1.00  0.00     0.112 C 
ENDBRANCH  24  26
ENDBRANCH  10  12
ENDBRANCH   6  10
ENDBRANCH   5   6
ENDBRANCH   4   5
TORSDOF 7
ENDMDL
