MODEL 1
REMARK VINA RESULT:      -6.7      0.000      0.000
REMARK  4 active torsions:
REMARK  status: ('A' for Active; 'I' for Inactive)
REMARK    1  A    between atoms: O1_2  and  C2_3 
REMARK    2  A    between atoms: C7_9  and  C8_10 
REMARK    3  A    between atoms: C8_10  and  N2_12 
REMARK    4  A    between atoms: C13_16  and  O2_17 
ROOT
HETATM    1  C2  UNL     1      24.484   3.703  49.398  1.00  0.00     0.096 C 
HETATM    2  C3  UNL     1      23.507   4.614  49.156  1.00  0.00     0.066 C 
HETATM    3  C4  UNL     1      24.082   5.196  50.410  1.00  0.00     0.036 C 
HETATM    4  N1  UNL     1      24.118   4.985  51.719  1.00  0.00    -0.282 NA
HETATM    5  C5  UNL     1      23.426   3.854  52.250  1.00  0.00     0.160 C 
HETATM    6  C6  UNL     1      23.275   2.536  52.573  1.00  0.00     0.011 C 
HETATM    7  C7  UNL     1      24.198   1.372  52.370  1.00  0.00    -0.027 C 
HETATM    8  C12 UNL     1      25.327   1.808  51.756  1.00  0.00     0.035 C 
HETATM    9  C13 UNL     1      26.593   2.104  51.104  1.00  0.00     0.242 C 
HETATM   10  N3  UNL     1      26.417   2.768  49.799  1.00  0.00    -0.359 N 
HETATM   11  C14 UNL     1      25.921   4.064  49.505  1.00  0.00     0.060 C 
HETATM   12  C15 UNL     1      26.172   5.392  49.330  1.00  0.00     0.011 C 
HETATM   13  C16 UNL     1      25.077   6.259  49.992  1.00  0.00     0.088 C 
HETATM   14  H20 UNL     1      26.684   2.266  48.897  1.00  0.00     0.162 HD
ENDROOT
BRANCH   7  15
HETATM   15  C8  UNL     1      23.570   0.166  52.917  1.00  0.00     0.250 C 
HETATM   16  C9  UNL     1      24.382  -0.449  54.030  1.00  0.00     0.048 C 
BRANCH  15  17
HETATM   17  N2  UNL     1      22.194   0.392  53.218  1.00  0.00     0.088 N 
HETATM   18  C10 UNL     1      21.362  -0.069  52.110  1.00  0.00     0.310 C 
HETATM   19  C11 UNL     1      21.720  -0.174  54.456  1.00  0.00     0.310 C 
ENDBRANCH  15  17
ENDBRANCH   7  15
BRANCH   9  20
HETATM   20  O2  UNL     1      27.387   2.979  51.885  1.00  0.00    -0.373 OA
HETATM   21  H19 UNL     1      27.675   2.538  52.718  1.00  0.00     0.212 HD
ENDBRANCH   9  20
BRANCH   1  22
HETATM   22  O1  UNL     1      23.535   2.732  49.434  1.00  0.00    -0.354 OA
HETATM   23  C1  UNL     1      22.666   2.473  48.352  1.00  0.00     0.210 C 
ENDBRANCH   1  22
TORSDOF 4
ENDMDL
MODEL 2
REMARK VINA RESULT:      -6.7      1.758      2.304
REMARK  4 active torsions:
REMARK  status: ('A' for Active; 'I' for Inactive)
REMARK    1  A    between atoms: O1_2  and  C2_3 
REMARK    2  A    between atoms: C7_9  and  C8_10 
REMARK    3  A    between atoms: C8_10  and  N2_12 
REMARK    4  A    between atoms: C13_16  and  O2_17 
ROOT
HETATM    1  C2  UNL     1      23.301   3.417  49.905  1.00  0.00     0.096 C 
HETATM    2  C3  UNL     1      22.091   3.886  50.303  1.00  0.00     0.066 C 
HETATM    3  C4  UNL     1      22.978   4.720  51.175  1.00  0.00     0.036 C 
HETATM    4  N1  UNL     1      23.745   4.624  52.253  1.00  0.00    -0.282 NA
HETATM    5  C5  UNL     1      23.865   3.356  52.898  1.00  0.00     0.160 C 
HETATM    6  C6  UNL     1      24.369   2.099  53.072  1.00  0.00     0.011 C 
HETATM    7  C7  UNL     1      25.399   1.346  52.284  1.00  0.00    -0.027 C 
HETATM    8  C12 UNL     1      25.824   2.126  51.257  1.00  0.00     0.035 C 
HETATM    9  C13 UNL     1      26.386   2.823  50.112  1.00  0.00     0.242 C 
HETATM   10  N3  UNL     1      25.353   3.287  49.168  1.00  0.00    -0.359 N 
HETATM   11  C14 UNL     1      24.361   4.288  49.336  1.00  0.00     0.060 C 
HETATM   12  C15 UNL     1      24.007   5.600  49.241  1.00  0.00     0.011 C 
HETATM   13  C16 UNL     1      23.179   6.045  50.467  1.00  0.00     0.088 C 
HETATM   14  H20 UNL     1      25.280   2.861  48.193  1.00  0.00     0.162 HD
ENDROOT
BRANCH   7  15
HETATM   15  C8  UNL     1      25.603   0.032  52.902  1.00  0.00     0.250 C 
HETATM   16  C9  UNL     1      26.709  -0.749  52.235  1.00  0.00     0.048 C 
BRANCH  15  17
HETATM   17  N2  UNL     1      25.700   0.139  54.321  1.00  0.00     0.088 N 
HETATM   18  C10 UNL     1      24.949  -0.943  54.951  1.00  0.00     0.310 C 
HETATM   19  C11 UNL     1      27.036   0.186  54.858  1.00  0.00     0.310 C 
ENDBRANCH  15  17
ENDBRANCH   7  15
BRANCH   9  20
HETATM   20  O2  UNL     1      27.103   3.978  50.508  1.00  0.00    -0.373 OA
HETATM   21  H19 UNL     1      27.074   4.088  51.487  1.00  0.00     0.212 HD
ENDBRANCH   9  20
BRANCH   1  22
HETATM   22  O1  UNL     1      22.911   2.169  50.274  1.00  0.00    -0.354 OA
HETATM   23  C1  UNL     1      21.886   1.461  49.609  1.00  0.00     0.210 C 
ENDBRANCH   1  22
TORSDOF 4
ENDMDL
MODEL 3
REMARK VINA RESULT:      -6.6      2.329      6.305
REMARK  4 active torsions:
REMARK  status: ('A' for Active; 'I' for Inactive)
REMARK    1  A    between atoms: O1_2  and  C2_3 
REMARK    2  A    between atoms: C7_9  and  C8_10 
REMARK    3  A    between atoms: C8_10  and  N2_12 
REMARK    4  A    between atoms: C13_16  and  O2_17 
ROOT
HETATM    1  C2  UNL     1      23.066   3.941  49.963  1.00  0.00     0.096 C 
HETATM    2  C3  UNL     1      23.119   2.606  49.717  1.00  0.00     0.066 C 
HETATM    3  C4  UNL     1      24.106   2.690  50.840  1.00  0.00     0.036 C 
HETATM    4  N1  UNL     1      25.342   3.100  51.095  1.00  0.00    -0.282 NA
HETATM    5  C5  UNL     1      26.100   3.687  50.036  1.00  0.00     0.160 C 
HETATM    6  C6  UNL     1      26.496   4.702  49.213  1.00  0.00     0.011 C 
HETATM    7  C7  UNL     1      26.047   6.131  49.144  1.00  0.00    -0.027 C 
HETATM    8  C12 UNL     1      25.091   6.337  50.087  1.00  0.00     0.035 C 
HETATM    9  C13 UNL     1      24.062   6.728  51.036  1.00  0.00     0.242 C 
HETATM   10  N3  UNL     1      22.861   5.877  50.952  1.00  0.00    -0.359 N 
HETATM   11  C14 UNL     1      22.699   4.508  51.285  1.00  0.00     0.060 C 
HETATM   12  C15 UNL     1      22.411   3.569  52.230  1.00  0.00     0.011 C 
HETATM   13  C16 UNL     1      23.360   2.353  52.115  1.00  0.00     0.088 C 
HETATM   14  H20 UNL     1      21.936   6.280  50.603  1.00  0.00     0.162 HD
ENDROOT
BRANCH   7  15
HETATM   15  C8  UNL     1      26.803   6.817  48.093  1.00  0.00     0.250 C 
HETATM   16  C9  UNL     1      26.000   7.908  47.428  1.00  0.00     0.048 C 
BRANCH  15  17
HETATM   17  N2  UNL     1      28.095   7.205  48.556  1.00  0.00     0.088 N 
HETATM   18  C10 UNL     1      29.091   6.947  47.520  1.00  0.00     0.310 C 
HETATM   19  C11 UNL     1      28.213   8.563  49.023  1.00  0.00     0.310 C 
ENDBRANCH  15  17
ENDBRANCH   7  15
BRANCH   9  20
HETATM   20  O2  UNL     1      24.522   6.627  52.372  1.00  0.00    -0.373 OA
HETATM   21  H19 UNL     1      23.858   6.163  52.934  1.00  0.00     0.212 HD
ENDBRANCH   9  20
BRANCH   1  22
HETATM   22  O1  UNL     1      23.433   4.167  48.674  1.00  0.00    -0.354 OA
HETATM   23  C1  UNL     1      22.501   4.459  47.655  1.00  0.00     0.210 C 
ENDBRANCH   1  22
TORSDOF 4
ENDMDL
MODEL 4
REMARK VINA RESULT:      -6.6      1.926      3.455
REMARK  4 active torsions:
REMARK  status: ('A' for Active; 'I' for Inactive)
REMARK    1  A    between atoms: O1_2  and  C2_3 
REMARK    2  A    between atoms: C7_9  and  C8_10 
REMARK    3  A    between atoms: C8_10  and  N2_12 
REMARK    4  A    between atoms: C13_16  and  O2_17 
ROOT
HETATM    1  C2  UNL     1      24.903   5.391  50.154  1.00  0.00     0.096 C 
HETATM    2  C3  UNL     1      25.030   5.271  48.808  1.00  0.00     0.066 C 
HETATM    3  C4  UNL     1      23.571   4.963  48.947  1.00  0.00     0.036 C 
HETATM    4  N1  UNL     1      22.758   3.999  49.361  1.00  0.00    -0.282 NA
HETATM    5  C5  UNL     1      23.330   2.798  49.880  1.00  0.00     0.160 C 
HETATM    6  C6  UNL     1      23.896   2.013  50.843  1.00  0.00     0.011 C 
HETATM    7  C7  UNL     1      24.242   2.319  52.269  1.00  0.00    -0.027 C 
HETATM    8  C12 UNL     1      23.905   3.607  52.537  1.00  0.00     0.035 C 
HETATM    9  C13 UNL     1      23.607   4.955  52.990  1.00  0.00     0.242 C 
HETATM   10  N3  UNL     1      24.234   5.989  52.146  1.00  0.00    -0.359 N 
HETATM   11  C14 UNL     1      23.962   6.342  50.799  1.00  0.00     0.060 C 
HETATM   12  C15 UNL     1      23.240   7.090  49.917  1.00  0.00     0.011 C 
HETATM   13  C16 UNL     1      22.817   6.252  48.690  1.00  0.00     0.088 C 
HETATM   14  H20 UNL     1      25.011   6.607  52.535  1.00  0.00     0.162 HD
ENDROOT
BRANCH   7  15
HETATM   15  C8  UNL     1      24.814   1.120  52.889  1.00  0.00     0.250 C 
HETATM   16  C9  UNL     1      23.790   0.026  53.071  1.00  0.00     0.048 C 
BRANCH  15  17
HETATM   17  N2  UNL     1      26.019   0.725  52.235  1.00  0.00     0.088 N 
HETATM   18  C10 UNL     1      27.085   1.672  52.549  1.00  0.00     0.310 C 
HETATM   19  C11 UNL     1      26.464  -0.620  52.495  1.00  0.00     0.310 C 
ENDBRANCH  15  17
ENDBRANCH   7  15
BRANCH   9  20
HETATM   20  O2  UNL     1      22.215   5.217  52.961  1.00  0.00    -0.373 OA
HETATM   21  H19 UNL     1      21.772   4.837  53.756  1.00  0.00     0.212 HD
ENDBRANCH   9  20
BRANCH   1  22
HETATM   22  O1  UNL     1      25.852   4.430  50.304  1.00  0.00    -0.354 OA
HETATM   23  C1  UNL     1      26.856   4.191  49.341  1.00  0.00     0.210 C 
ENDBRANCH   1  22
TORSDOF 4
ENDMDL
MODEL 5
REMARK VINA RESULT:      -6.6      8.539     11.188
REMARK  4 active torsions:
REMARK  status: ('A' for Active; 'I' for Inactive)
REMARK    1  A    between atoms: O1_2  and  C2_3 
REMARK    2  A    between atoms: C7_9  and  C8_10 
REMARK    3  A    between atoms: C8_10  and  N2_12 
REMARK    4  A    between atoms: C13_16  and  O2_17 
ROOT
HETATM    1  C2  UNL     1      33.053   4.939  46.517  1.00  0.00     0.096 C 
HETATM    2  C3  UNL     1      34.240   4.668  45.915  1.00  0.00     0.066 C 
HETATM    3  C4  UNL     1      34.685   4.679  47.345  1.00  0.00     0.036 C 
HETATM    4  N1  UNL     1      34.923   5.521  48.342  1.00  0.00    -0.282 NA
HETATM    5  C5  UNL     1      34.723   6.918  48.121  1.00  0.00     0.160 C 
HETATM    6  C6  UNL     1      33.984   8.062  48.028  1.00  0.00     0.011 C 
HETATM    7  C7  UNL     1      32.512   8.288  48.203  1.00  0.00    -0.027 C 
HETATM    8  C12 UNL     1      31.917   7.102  48.490  1.00  0.00     0.035 C 
HETATM    9  C13 UNL     1      31.124   5.924  48.802  1.00  0.00     0.242 C 
HETATM   10  N3  UNL     1      31.297   4.845  47.811  1.00  0.00    -0.359 N 
HETATM   11  C14 UNL     1      32.437   4.049  47.533  1.00  0.00     0.060 C 
HETATM   12  C15 UNL     1      33.166   2.929  47.803  1.00  0.00     0.011 C 
HETATM   13  C16 UNL     1      34.680   3.241  47.824  1.00  0.00     0.088 C 
HETATM   14  H20 UNL     1      30.489   4.560  47.176  1.00  0.00     0.162 HD
ENDROOT
BRANCH   7  15
HETATM   15  C8  UNL     1      32.224   9.713  48.019  1.00  0.00     0.250 C 
HETATM   16  C9  UNL     1      32.928  10.289  46.815  1.00  0.00     0.048 C 
BRANCH  15  17
HETATM   17  N2  UNL     1      30.822   9.969  48.088  1.00  0.00     0.088 N 
HETATM   18  C10 UNL     1      30.571  11.120  48.950  1.00  0.00     0.310 C 
HETATM   19  C11 UNL     1      30.153  10.147  46.825  1.00  0.00     0.310 C 
ENDBRANCH  15  17
ENDBRANCH   7  15
BRANCH   9  20
HETATM   20  O2  UNL     1      31.489   5.369  50.053  1.00  0.00    -0.373 OA
HETATM   21  H19 UNL     1      31.978   6.029  50.598  1.00  0.00     0.212 HD
ENDBRANCH   9  20
BRANCH   1  22
HETATM   22  O1  UNL     1      32.974   6.083  45.788  1.00  0.00    -0.354 OA
HETATM   23  C1  UNL     1      32.828   6.085  44.384  1.00  0.00     0.210 C 
ENDBRANCH   1  22
TORSDOF 4
ENDMDL
MODEL 6
REMARK VINA RESULT:      -6.4      1.834      3.267
REMARK  4 active torsions:
REMARK  status: ('A' for Active; 'I' for Inactive)
REMARK    1  A    between atoms: O1_2  and  C2_3 
REMARK    2  A    between atoms: C7_9  and  C8_10 
REMARK    3  A    between atoms: C8_10  and  N2_12 
REMARK    4  A    between atoms: C13_16  and  O2_17 
ROOT
HETATM    1  C2  UNL     1      25.282   6.073  49.943  1.00  0.00     0.096 C 
HETATM    2  C3  UNL     1      25.580   6.218  48.626  1.00  0.00     0.066 C 
HETATM    3  C4  UNL     1      24.087   6.153  48.535  1.00  0.00     0.036 C 
HETATM    4  N1  UNL     1      23.088   5.284  48.627  1.00  0.00    -0.282 NA
HETATM    5  C5  UNL     1      23.392   3.918  48.912  1.00  0.00     0.160 C 
HETATM    6  C6  UNL     1      23.690   2.861  49.722  1.00  0.00     0.011 C 
HETATM    7  C7  UNL     1      23.871   2.793  51.208  1.00  0.00    -0.027 C 
HETATM    8  C12 UNL     1      23.696   4.035  51.729  1.00  0.00     0.035 C 
HETATM    9  C13 UNL     1      23.542   5.289  52.448  1.00  0.00     0.242 C 
HETATM   10  N3  UNL     1      24.432   6.348  51.936  1.00  0.00    -0.359 N 
HETATM   11  C14 UNL     1      24.411   7.019  50.687  1.00  0.00     0.060 C 
HETATM   12  C15 UNL     1      23.944   8.053  49.930  1.00  0.00     0.011 C 
HETATM   13  C16 UNL     1      23.580   7.580  48.505  1.00  0.00     0.088 C 
HETATM   14  H20 UNL     1      25.229   6.722  52.538  1.00  0.00     0.162 HD
ENDROOT
BRANCH   7  15
HETATM   15  C8  UNL     1      24.161   1.408  51.590  1.00  0.00     0.250 C 
HETATM   16  C9  UNL     1      25.613   1.204  51.948  1.00  0.00     0.048 C 
BRANCH  15  17
HETATM   17  N2  UNL     1      23.222   0.931  52.552  1.00  0.00     0.088 N 
HETATM   18  C10 UNL     1      22.018   0.456  51.877  1.00  0.00     0.310 C 
HETATM   19  C11 UNL     1      23.708  -0.080  53.457  1.00  0.00     0.310 C 
ENDBRANCH  15  17
ENDBRANCH   7  15
BRANCH   9  20
HETATM   20  O2  UNL     1      22.224   5.796  52.333  1.00  0.00    -0.373 OA
HETATM   21  H19 UNL     1      22.138   6.655  52.808  1.00  0.00     0.212 HD
ENDBRANCH   9  20
BRANCH   1  22
HETATM   22  O1  UNL     1      26.044   4.948  49.966  1.00  0.00    -0.354 OA
HETATM   23  C1  UNL     1      27.084   4.712  49.042  1.00  0.00     0.210 C 
ENDBRANCH   1  22
TORSDOF 4
ENDMDL
MODEL 7
REMARK VINA RESULT:      -6.3      5.482      8.252
REMARK  4 active torsions:
REMARK  status: ('A' for Active; 'I' for Inactive)
REMARK    1  A    between atoms: O1_2  and  C2_3 
REMARK    2  A    between atoms: C7_9  and  C8_10 
REMARK    3  A    between atoms: C8_10  and  N2_12 
REMARK    4  A    between atoms: C13_16  and  O2_17 
ROOT
HETATM    1  C2  UNL     1      30.788   8.954  48.728  1.00  0.00     0.096 C 
HETATM    2  C3  UNL     1      31.722   8.826  47.751  1.00  0.00     0.066 C 
HETATM    3  C4  UNL     1      30.704   9.642  47.015  1.00  0.00     0.036 C 
HETATM    4  N1  UNL     1      29.510   9.529  46.447  1.00  0.00    -0.282 NA
HETATM    5  C5  UNL     1      28.853   8.261  46.481  1.00  0.00     0.160 C 
HETATM    6  C6  UNL     1      28.096   7.275  47.044  1.00  0.00     0.011 C 
HETATM    7  C7  UNL     1      27.450   7.195  48.395  1.00  0.00    -0.027 C 
HETATM    8  C12 UNL     1      27.731   8.330  49.084  1.00  0.00     0.035 C 
HETATM    9  C13 UNL     1      27.936   9.474  49.958  1.00  0.00     0.242 C 
HETATM   10  N3  UNL     1      29.363   9.783  50.162  1.00  0.00    -0.359 N 
HETATM   11  C14 UNL     1      30.324  10.270  49.239  1.00  0.00     0.060 C 
HETATM   12  C15 UNL     1      30.925  11.338  48.643  1.00  0.00     0.011 C 
HETATM   13  C16 UNL     1      31.128  11.092  47.130  1.00  0.00     0.088 C 
HETATM   14  H20 UNL     1      29.813   9.651  51.121  1.00  0.00     0.162 HD
ENDROOT
BRANCH   7  15
HETATM   15  C8  UNL     1      26.725   5.926  48.501  1.00  0.00     0.250 C 
HETATM   16  C9  UNL     1      27.652   4.751  48.694  1.00  0.00     0.048 C 
BRANCH  15  17
HETATM   17  N2  UNL     1      25.655   6.019  49.440  1.00  0.00     0.088 N 
HETATM   18  C10 UNL     1      24.435   6.443  48.759  1.00  0.00     0.310 C 
HETATM   19  C11 UNL     1      25.397   4.835  50.219  1.00  0.00     0.310 C 
ENDBRANCH  15  17
ENDBRANCH   7  15
BRANCH   9  20
HETATM   20  O2  UNL     1      27.355  10.649  49.420  1.00  0.00    -0.373 OA
HETATM   21  H19 UNL     1      27.387  10.634  48.435  1.00  0.00     0.212 HD
ENDBRANCH   9  20
BRANCH   1  22
HETATM   22  O1  UNL     1      30.704   7.600  48.792  1.00  0.00    -0.354 OA
HETATM   23  C1  UNL     1      31.686   6.802  49.417  1.00  0.00     0.210 C 
ENDBRANCH   1  22
TORSDOF 4
ENDMDL
MODEL 8
REMARK VINA RESULT:      -6.1      3.517      5.469
REMARK  4 active torsions:
REMARK  status: ('A' for Active; 'I' for Inactive)
REMARK    1  A    between atoms: O1_2  and  C2_3 
REMARK    2  A    between atoms: C7_9  and  C8_10 
REMARK    3  A    between atoms: C8_10  and  N2_12 
REMARK    4  A    between atoms: C13_16  and  O2_17 
ROOT
HETATM    1  C2  UNL     1      22.177   0.971  51.196  1.00  0.00     0.096 C 
HETATM    2  C3  UNL     1      22.665   2.024  50.490  1.00  0.00     0.066 C 
HETATM    3  C4  UNL     1      22.311   2.724  51.765  1.00  0.00     0.036 C 
HETATM    4  N1  UNL     1      21.254   3.152  52.445  1.00  0.00    -0.282 NA
HETATM    5  C5  UNL     1      19.953   2.930  51.899  1.00  0.00     0.160 C 
HETATM    6  C6  UNL     1      18.831   2.199  51.636  1.00  0.00     0.011 C 
HETATM    7  C7  UNL     1      18.481   0.787  52.000  1.00  0.00    -0.027 C 
HETATM    8  C12 UNL     1      19.514   0.242  52.691  1.00  0.00     0.035 C 
HETATM    9  C13 UNL     1      20.521  -0.492  53.439  1.00  0.00     0.242 C 
HETATM   10  N3  UNL     1      21.828  -0.517  52.756  1.00  0.00    -0.359 N 
HETATM   11  C14 UNL     1      22.736   0.543  52.504  1.00  0.00     0.060 C 
HETATM   12  C15 UNL     1      23.788   1.297  52.930  1.00  0.00     0.011 C 
HETATM   13  C16 UNL     1      23.573   2.792  52.602  1.00  0.00     0.088 C 
HETATM   14  H20 UNL     1      22.220  -1.432  52.371  1.00  0.00     0.162 HD
ENDROOT
BRANCH   7  15
HETATM   15  C8  UNL     1      17.137   0.486  51.497  1.00  0.00     0.250 C 
HETATM   16  C9  UNL     1      17.166  -0.143  50.125  1.00  0.00     0.048 C 
BRANCH  15  17
HETATM   17  N2  UNL     1      16.365  -0.213  52.473  1.00  0.00     0.088 N 
HETATM   18  C10 UNL     1      15.109   0.492  52.707  1.00  0.00     0.310 C 
HETATM   19  C11 UNL     1      16.104  -1.602  52.191  1.00  0.00     0.310 C 
ENDBRANCH  15  17
ENDBRANCH   7  15
BRANCH   9  20
HETATM   20  O2  UNL     1      20.754   0.092  54.708  1.00  0.00    -0.373 OA
HETATM   21  H19 UNL     1      20.282   0.953  54.787  1.00  0.00     0.212 HD
ENDBRANCH   9  20
BRANCH   1  22
HETATM   22  O1  UNL     1      21.259   0.771  50.215  1.00  0.00    -0.354 OA
HETATM   23  C1  UNL     1      21.543   0.984  48.849  1.00  0.00     0.210 C 
ENDBRANCH   1  22
TORSDOF 4
ENDMDL
MODEL 9
REMARK VINA RESULT:      -6.0      1.723      3.018
REMARK  4 active torsions:
REMARK  status: ('A' for Active; 'I' for Inactive)
REMARK    1  A    between atoms: O1_2  and  C2_3 
REMARK    2  A    between atoms: C7_9  and  C8_10 
REMARK    3  A    between atoms: C8_10  and  N2_12 
REMARK    4  A    between atoms: C13_16  and  O2_17 
ROOT
HETATM    1  C2  UNL     1      23.070   4.612  50.629  1.00  0.00     0.096 C 
HETATM    2  C3  UNL     1      24.064   5.297  51.251  1.00  0.00     0.066 C 
HETATM    3  C4  UNL     1      24.889   4.383  50.399  1.00  0.00     0.036 C 
HETATM    4  N1  UNL     1      25.267   3.114  50.317  1.00  0.00    -0.282 NA
HETATM    5  C5  UNL     1      24.796   2.195  51.305  1.00  0.00     0.160 C 
HETATM    6  C6  UNL     1      23.892   1.343  51.870  1.00  0.00     0.011 C 
HETATM    7  C7  UNL     1      22.514   0.951  51.427  1.00  0.00    -0.027 C 
HETATM    8  C12 UNL     1      22.218   1.611  50.278  1.00  0.00     0.035 C 
HETATM    9  C13 UNL     1      21.741   2.232  49.053  1.00  0.00     0.242 C 
HETATM   10  N3  UNL     1      21.791   3.705  49.109  1.00  0.00    -0.359 N 
HETATM   11  C14 UNL     1      22.916   4.569  49.153  1.00  0.00     0.060 C 
HETATM   12  C15 UNL     1      23.857   5.286  48.476  1.00  0.00     0.011 C 
HETATM   13  C16 UNL     1      25.246   5.149  49.140  1.00  0.00     0.088 C 
HETATM   14  H20 UNL     1      20.891   4.277  49.114  1.00  0.00     0.162 HD
ENDROOT
BRANCH   7  15
HETATM   15  C8  UNL     1      21.966  -0.019  52.379  1.00  0.00     0.250 C 
HETATM   16  C9  UNL     1      23.039  -0.663  53.223  1.00  0.00     0.048 C 
BRANCH  15  17
HETATM   17  N2  UNL     1      20.868   0.532  53.103  1.00  0.00     0.088 N 
HETATM   18  C10 UNL     1      19.610   0.103  52.498  1.00  0.00     0.310 C 
HETATM   19  C11 UNL     1      20.849   0.261  54.518  1.00  0.00     0.310 C 
ENDBRANCH  15  17
ENDBRANCH   7  15
BRANCH   9  20
HETATM   20  O2  UNL     1      22.529   1.855  47.938  1.00  0.00    -0.373 OA
HETATM   21  H19 UNL     1      21.957   1.642  47.164  1.00  0.00     0.212 HD
ENDBRANCH   9  20
BRANCH   1  22
HETATM   22  O1  UNL     1      22.609   4.226  51.847  1.00  0.00    -0.354 OA
HETATM   23  C1  UNL     1      21.286   4.470  52.275  1.00  0.00     0.210 C 
ENDBRANCH   1  22
TORSDOF 4
ENDMDL
