MODEL 1
REMARK VINA RESULT:      -6.9      0.000      0.000
REMARK  10 active torsions:
REMARK  status: ('A' for Active; 'I' for Inactive)
REMARK    1  A    between atoms: N1_1  and  C1_2 
REMARK    2  A    between atoms: C1_2  and  C2_3 
REMARK    3  A    between atoms: C2_3  and  C3_4 
REMARK    4  A    between atoms: C3_4  and  C4_5 
REMARK    5  A    between atoms: C4_5  and  C5_6 
REMARK    6  A    between atoms: C6_7  and  C7_8 
REMARK    7  A    between atoms: C7_8  and  C8_9 
REMARK    8  A    between atoms: C8_9  and  C9_10 
REMARK       I    between atoms: C9_10  and  N2_12 
REMARK    9  A    between atoms: N2_12  and  S1_13 
REMARK   10  A    between atoms: S1_13  and  C10_16 
ROOT
HETATM    1  C9  UNL     1      26.030   4.043  50.011  1.00  0.00     0.231 C 
HETATM    2  O1  UNL     1      26.425   3.004  49.417  1.00  0.00    -0.273 OA
HETATM    3  N2  UNL     1      25.251   4.150  51.174  1.00  0.00    -0.250 N 
HETATM    4  H11 UNL     1      25.020   5.104  51.524  1.00  0.00     0.181 HD
ENDROOT
BRANCH   1   5
HETATM    5  C8  UNL     1      26.565   5.182  49.220  1.00  0.00     0.107 C 
BRANCH   5   6
HETATM    6  C7  UNL     1      27.843   4.689  48.543  1.00  0.00     0.038 C 
BRANCH   6   7
HETATM    7  C6  UNL     1      28.697   5.880  48.233  1.00  0.00    -0.004 C 
HETATM    8  C5  UNL     1      30.008   5.801  48.270  1.00  0.00     0.032 C 
BRANCH   8   9
HETATM    9  C4  UNL     1      31.179   5.478  47.798  1.00  0.00    -0.065 C 
BRANCH   9  10
HETATM   10  C3  UNL     1      32.408   5.179  47.537  1.00  0.00    -0.093 C 
BRANCH  10  11
HETATM   11  C2  UNL     1      33.549   4.722  47.066  1.00  0.00     0.110 C 
BRANCH  11  12
HETATM   12  C1  UNL     1      34.246   3.555  47.679  1.00  0.00     0.285 C 
BRANCH  12  13
HETATM   13  N1  UNL     1      35.027   4.078  48.803  1.00  0.00     0.079 N 
HETATM   14  H1  UNL     1      35.546   3.308  49.262  1.00  0.00     0.312 HD
HETATM   15  H2  UNL     1      35.666   4.845  48.518  1.00  0.00     0.312 HD
ENDBRANCH  12  13
ENDBRANCH  11  12
ENDBRANCH  10  11
ENDBRANCH   9  10
ENDBRANCH   8   9
ENDBRANCH   6   7
ENDBRANCH   5   6
ENDBRANCH   1   5
BRANCH   3  16
HETATM   16  S1  UNL     1      24.715   2.691  51.965  1.00  0.00     0.265 S 
HETATM   17  O2  UNL     1      23.901   3.030  53.179  1.00  0.00    -0.200 OA
HETATM   18  O3  UNL     1      23.844   1.879  51.054  1.00  0.00    -0.200 OA
BRANCH  16  19
HETATM   19  C10 UNL     1      26.082   1.711  52.431  1.00  0.00     0.080 A 
HETATM   20  C11 UNL     1      27.183   2.235  53.086  1.00  0.00     0.027 A 
HETATM   21  C12 UNL     1      28.287   1.510  53.477  1.00  0.00     0.020 A 
HETATM   22  C13 UNL     1      28.239   0.153  53.166  1.00  0.00     0.011 A 
HETATM   23 BR1  UNL     1      29.737  -0.924  53.676  1.00  0.00    -0.051 Br
HETATM   24  C14 UNL     1      27.163  -0.412  52.513  1.00  0.00     0.020 A 
HETATM   25  C15 UNL     1      26.079   0.356  52.142  1.00  0.00     0.027 A 
ENDBRANCH  16  19
ENDBRANCH   3  16
TORSDOF 10
ENDMDL
MODEL 2
REMARK VINA RESULT:      -6.8      4.767      6.214
REMARK  10 active torsions:
REMARK  status: ('A' for Active; 'I' for Inactive)
REMARK    1  A    between atoms: N1_1  and  C1_2 
REMARK    2  A    between atoms: C1_2  and  C2_3 
REMARK    3  A    between atoms: C2_3  and  C3_4 
REMARK    4  A    between atoms: C3_4  and  C4_5 
REMARK    5  A    between atoms: C4_5  and  C5_6 
REMARK    6  A    between atoms: C6_7  and  C7_8 
REMARK    7  A    between atoms: C7_8  and  C8_9 
REMARK    8  A    between atoms: C8_9  and  C9_10 
REMARK       I    between atoms: C9_10  and  N2_12 
REMARK    9  A    between atoms: N2_12  and  S1_13 
REMARK   10  A    between atoms: S1_13  and  C10_16 
ROOT
HETATM    1  C9  UNL     1      23.337   4.013  50.922  1.00  0.00     0.231 C 
HETATM    2  O1  UNL     1      23.401   4.245  52.160  1.00  0.00    -0.273 OA
HETATM    3  N2  UNL     1      22.331   3.351  50.202  1.00  0.00    -0.250 N 
HETATM    4  H11 UNL     1      22.450   3.251  49.171  1.00  0.00     0.181 HD
ENDROOT
BRANCH   1   5
HETATM    5  C8  UNL     1      24.577   4.594  50.343  1.00  0.00     0.107 C 
BRANCH   5   6
HETATM    6  C7  UNL     1      25.270   3.474  49.567  1.00  0.00     0.038 C 
BRANCH   6   7
HETATM    7  C6  UNL     1      26.510   3.087  50.312  1.00  0.00    -0.004 C 
HETATM    8  C5  UNL     1      26.477   2.172  51.253  1.00  0.00     0.032 C 
BRANCH   8   9
HETATM    9  C4  UNL     1      26.441   0.948  51.701  1.00  0.00    -0.065 C 
BRANCH   9  10
HETATM   10  C3  UNL     1      26.617  -0.273  52.085  1.00  0.00    -0.093 C 
BRANCH  10  11
HETATM   11  C2  UNL     1      26.946  -1.400  52.681  1.00  0.00     0.110 C 
BRANCH  11  12
HETATM   12  C1  UNL     1      28.347  -1.690  53.102  1.00  0.00     0.285 C 
BRANCH  12  13
HETATM   13  N1  UNL     1      28.481  -3.148  53.133  1.00  0.00     0.079 N 
HETATM   14  H1  UNL     1      28.523  -3.519  52.166  1.00  0.00     0.312 HD
HETATM   15  H2  UNL     1      29.298  -3.459  53.692  1.00  0.00     0.312 HD
ENDBRANCH  12  13
ENDBRANCH  11  12
ENDBRANCH  10  11
ENDBRANCH   9  10
ENDBRANCH   8   9
ENDBRANCH   6   7
ENDBRANCH   5   6
ENDBRANCH   1   5
BRANCH   3  16
HETATM   16  S1  UNL     1      20.946   2.736  51.063  1.00  0.00     0.265 S 
HETATM   17  O2  UNL     1      20.230   3.856  51.760  1.00  0.00    -0.200 OA
HETATM   18  O3  UNL     1      19.969   2.100  50.119  1.00  0.00    -0.200 OA
BRANCH  16  19
HETATM   19  C10 UNL     1      21.436   1.537  52.232  1.00  0.00     0.080 A 
HETATM   20  C11 UNL     1      20.664   1.216  53.335  1.00  0.00     0.027 A 
HETATM   21  C12 UNL     1      21.001   0.279  54.288  1.00  0.00     0.020 A 
HETATM   22  C13 UNL     1      22.219  -0.363  54.076  1.00  0.00     0.011 A 
HETATM   23 BR1  UNL     1      22.759  -1.679  55.356  1.00  0.00    -0.051 Br
HETATM   24  C14 UNL     1      23.021  -0.075  52.990  1.00  0.00     0.020 A 
HETATM   25  C15 UNL     1      22.640   0.871  52.062  1.00  0.00     0.027 A 
ENDBRANCH  16  19
ENDBRANCH   3  16
TORSDOF 10
ENDMDL
MODEL 3
REMARK VINA RESULT:      -6.8      3.975      7.412
REMARK  10 active torsions:
REMARK  status: ('A' for Active; 'I' for Inactive)
REMARK    1  A    between atoms: N1_1  and  C1_2 
REMARK    2  A    between atoms: C1_2  and  C2_3 
REMARK    3  A    between atoms: C2_3  and  C3_4 
REMARK    4  A    between atoms: C3_4  and  C4_5 
REMARK    5  A    between atoms: C4_5  and  C5_6 
REMARK    6  A    between atoms: C6_7  and  C7_8 
REMARK    7  A    between atoms: C7_8  and  C8_9 
REMARK    8  A    between atoms: C8_9  and  C9_10 
REMARK       I    between atoms: C9_10  and  N2_12 
REMARK    9  A    between atoms: N2_12  and  S1_13 
REMARK   10  A    between atoms: S1_13  and  C10_16 
ROOT
HETATM    1  C9  UNL     1      24.260   3.732  51.810  1.00  0.00     0.231 C 
HETATM    2  O1  UNL     1      23.065   4.134  51.804  1.00  0.00    -0.273 OA
HETATM    3  N2  UNL     1      25.324   4.123  50.982  1.00  0.00    -0.250 N 
HETATM    4  H11 UNL     1      26.253   3.677  51.135  1.00  0.00     0.181 HD
ENDROOT
BRANCH   1   5
HETATM    5  C8  UNL     1      24.337   2.725  52.901  1.00  0.00     0.107 C 
BRANCH   5   6
HETATM    6  C7  UNL     1      23.300   1.648  52.583  1.00  0.00     0.038 C 
BRANCH   6   7
HETATM    7  C6  UNL     1      23.671   0.406  53.334  1.00  0.00    -0.004 C 
HETATM    8  C5  UNL     1      24.752  -0.273  53.026  1.00  0.00     0.032 C 
BRANCH   8   9
HETATM    9  C4  UNL     1      26.035  -0.502  53.026  1.00  0.00    -0.065 C 
BRANCH   9  10
HETATM   10  C3  UNL     1      27.301  -0.654  53.233  1.00  0.00    -0.093 C 
BRANCH  10  11
HETATM   11  C2  UNL     1      28.510  -0.891  53.699  1.00  0.00     0.110 C 
BRANCH  11  12
HETATM   12  C1  UNL     1      29.368  -1.981  53.152  1.00  0.00     0.285 C 
BRANCH  12  13
HETATM   13  N1  UNL     1      28.566  -3.206  53.197  1.00  0.00     0.079 N 
HETATM   14  H1  UNL     1      27.728  -3.058  53.788  1.00  0.00     0.312 HD
HETATM   15  H2  UNL     1      28.305  -3.544  52.251  1.00  0.00     0.312 HD
ENDBRANCH  12  13
ENDBRANCH  11  12
ENDBRANCH  10  11
ENDBRANCH   9  10
ENDBRANCH   8   9
ENDBRANCH   6   7
ENDBRANCH   5   6
ENDBRANCH   1   5
BRANCH   3  16
HETATM   16  S1  UNL     1      25.035   5.324  49.752  1.00  0.00     0.265 S 
HETATM   17  O2  UNL     1      24.113   4.779  48.701  1.00  0.00    -0.200 OA
HETATM   18  O3  UNL     1      24.379   6.539  50.336  1.00  0.00    -0.200 OA
BRANCH  16  19
HETATM   19  C10 UNL     1      26.539   5.816  49.014  1.00  0.00     0.080 A 
HETATM   20  C11 UNL     1      26.772   7.115  48.599  1.00  0.00     0.027 A 
HETATM   21  C12 UNL     1      27.938   7.558  48.012  1.00  0.00     0.020 A 
HETATM   22  C13 UNL     1      28.921   6.584  47.849  1.00  0.00     0.011 A 
HETATM   23 BR1  UNL     1      30.570   7.120  47.039  1.00  0.00    -0.051 Br
HETATM   24  C14 UNL     1      28.731   5.277  48.247  1.00  0.00     0.020 A 
HETATM   25  C15 UNL     1      27.546   4.881  48.831  1.00  0.00     0.027 A 
ENDBRANCH  16  19
ENDBRANCH   3  16
TORSDOF 10
ENDMDL
MODEL 4
REMARK VINA RESULT:      -6.7      3.819      5.645
REMARK  10 active torsions:
REMARK  status: ('A' for Active; 'I' for Inactive)
REMARK    1  A    between atoms: N1_1  and  C1_2 
REMARK    2  A    between atoms: C1_2  and  C2_3 
REMARK    3  A    between atoms: C2_3  and  C3_4 
REMARK    4  A    between atoms: C3_4  and  C4_5 
REMARK    5  A    between atoms: C4_5  and  C5_6 
REMARK    6  A    between atoms: C6_7  and  C7_8 
REMARK    7  A    between atoms: C7_8  and  C8_9 
REMARK    8  A    between atoms: C8_9  and  C9_10 
REMARK       I    between atoms: C9_10  and  N2_12 
REMARK    9  A    between atoms: N2_12  and  S1_13 
REMARK   10  A    between atoms: S1_13  and  C10_16 
ROOT
HETATM    1  C9  UNL     1      21.095   1.393  51.121  1.00  0.00     0.231 C 
HETATM    2  O1  UNL     1      21.044   2.433  51.832  1.00  0.00    -0.273 OA
HETATM    3  N2  UNL     1      21.589   0.122  51.454  1.00  0.00    -0.250 N 
HETATM    4  H11 UNL     1      21.550  -0.625  50.729  1.00  0.00     0.181 HD
ENDROOT
BRANCH   1   5
HETATM    5  C8  UNL     1      20.513   1.779  49.808  1.00  0.00     0.107 C 
BRANCH   5   6
HETATM    6  C7  UNL     1      21.343   1.079  48.733  1.00  0.00     0.038 C 
BRANCH   6   7
HETATM    7  C6  UNL     1      22.123   2.122  47.993  1.00  0.00    -0.004 C 
HETATM    8  C5  UNL     1      22.974   2.903  48.619  1.00  0.00     0.032 C 
BRANCH   8   9
HETATM    9  C4  UNL     1      24.114   3.182  49.185  1.00  0.00    -0.065 C 
BRANCH   9  10
HETATM   10  C3  UNL     1      25.299   3.545  49.550  1.00  0.00    -0.093 C 
BRANCH  10  11
HETATM   11  C2  UNL     1      26.590   3.723  49.736  1.00  0.00     0.110 C 
BRANCH  11  12
HETATM   12  C1  UNL     1      27.387   4.662  48.896  1.00  0.00     0.285 C 
BRANCH  12  13
HETATM   13  N1  UNL     1      27.091   6.012  49.382  1.00  0.00     0.079 N 
HETATM   14  H1  UNL     1      27.836   6.325  50.031  1.00  0.00     0.312 HD
HETATM   15  H2  UNL     1      26.955   6.690  48.609  1.00  0.00     0.312 HD
ENDBRANCH  12  13
ENDBRANCH  11  12
ENDBRANCH  10  11
ENDBRANCH   9  10
ENDBRANCH   8   9
ENDBRANCH   6   7
ENDBRANCH   5   6
ENDBRANCH   1   5
BRANCH   3  16
HETATM   16  S1  UNL     1      22.236  -0.137  53.052  1.00  0.00     0.265 S 
HETATM   17  O2  UNL     1      21.366   0.529  54.077  1.00  0.00    -0.200 OA
HETATM   18  O3  UNL     1      22.277  -1.599  53.381  1.00  0.00    -0.200 OA
BRANCH  16  19
HETATM   19  C10 UNL     1      23.860   0.495  53.163  1.00  0.00     0.080 A 
HETATM   20  C11 UNL     1      24.136   1.849  53.103  1.00  0.00     0.027 A 
HETATM   21  C12 UNL     1      25.395   2.402  53.186  1.00  0.00     0.020 A 
HETATM   22  C13 UNL     1      26.432   1.483  53.342  1.00  0.00     0.011 A 
HETATM   23 BR1  UNL     1      28.213   2.172  53.464  1.00  0.00    -0.051 Br
HETATM   24  C14 UNL     1      26.203   0.124  53.406  1.00  0.00     0.020 A 
HETATM   25  C15 UNL     1      24.923  -0.382  53.319  1.00  0.00     0.027 A 
ENDBRANCH  16  19
ENDBRANCH   3  16
TORSDOF 10
ENDMDL
MODEL 5
REMARK VINA RESULT:      -6.6      1.382      2.000
REMARK  10 active torsions:
REMARK  status: ('A' for Active; 'I' for Inactive)
REMARK    1  A    between atoms: N1_1  and  C1_2 
REMARK    2  A    between atoms: C1_2  and  C2_3 
REMARK    3  A    between atoms: C2_3  and  C3_4 
REMARK    4  A    between atoms: C3_4  and  C4_5 
REMARK    5  A    between atoms: C4_5  and  C5_6 
REMARK    6  A    between atoms: C6_7  and  C7_8 
REMARK    7  A    between atoms: C7_8  and  C8_9 
REMARK    8  A    between atoms: C8_9  and  C9_10 
REMARK       I    between atoms: C9_10  and  N2_12 
REMARK    9  A    between atoms: N2_12  and  S1_13 
REMARK   10  A    between atoms: S1_13  and  C10_16 
ROOT
HETATM    1  C9  UNL     1      26.323   3.644  49.912  1.00  0.00     0.231 C 
HETATM    2  O1  UNL     1      26.659   2.508  49.481  1.00  0.00    -0.273 OA
HETATM    3  N2  UNL     1      25.561   3.964  51.046  1.00  0.00    -0.250 N 
HETATM    4  H11 UNL     1      25.381   4.970  51.248  1.00  0.00     0.181 HD
ENDROOT
BRANCH   1   5
HETATM    5  C8  UNL     1      26.906   4.622  48.956  1.00  0.00     0.107 C 
BRANCH   5   6
HETATM    6  C7  UNL     1      25.983   5.840  48.952  1.00  0.00     0.038 C 
BRANCH   6   7
HETATM    7  C6  UNL     1      26.623   6.908  48.119  1.00  0.00    -0.004 C 
HETATM    8  C5  UNL     1      27.921   7.109  48.156  1.00  0.00     0.032 C 
BRANCH   8   9
HETATM    9  C4  UNL     1      29.159   6.842  47.852  1.00  0.00    -0.065 C 
BRANCH   9  10
HETATM   10  C3  UNL     1      30.396   6.483  47.749  1.00  0.00    -0.093 C 
BRANCH  10  11
HETATM   11  C2  UNL     1      31.617   6.015  47.902  1.00  0.00     0.110 C 
BRANCH  11  12
HETATM   12  C1  UNL     1      32.448   6.348  49.094  1.00  0.00     0.285 C 
BRANCH  12  13
HETATM   13  N1  UNL     1      31.761   5.778  50.255  1.00  0.00     0.079 N 
HETATM   14  H1  UNL     1      32.271   6.022  51.123  1.00  0.00     0.312 HD
HETATM   15  H2  UNL     1      30.766   6.068  50.308  1.00  0.00     0.312 HD
ENDBRANCH  12  13
ENDBRANCH  11  12
ENDBRANCH  10  11
ENDBRANCH   9  10
ENDBRANCH   8   9
ENDBRANCH   6   7
ENDBRANCH   5   6
ENDBRANCH   1   5
BRANCH   3  16
HETATM   16  S1  UNL     1      24.961   2.671  52.050  1.00  0.00     0.265 S 
HETATM   17  O2  UNL     1      24.310   3.230  53.281  1.00  0.00    -0.200 OA
HETATM   18  O3  UNL     1      23.925   1.867  51.322  1.00  0.00    -0.200 OA
BRANCH  16  19
HETATM   19  C10 UNL     1      26.260   1.600  52.509  1.00  0.00     0.080 A 
HETATM   20  C11 UNL     1      26.210   0.235  52.291  1.00  0.00     0.027 A 
HETATM   21  C12 UNL     1      27.204  -0.655  52.632  1.00  0.00     0.020 A 
HETATM   22  C13 UNL     1      28.322  -0.085  53.238  1.00  0.00     0.011 A 
HETATM   23 BR1  UNL     1      29.749  -1.256  53.742  1.00  0.00    -0.051 Br
HETATM   24  C14 UNL     1      28.415   1.271  53.475  1.00  0.00     0.020 A 
HETATM   25  C15 UNL     1      27.392   2.123  53.114  1.00  0.00     0.027 A 
ENDBRANCH  16  19
ENDBRANCH   3  16
TORSDOF 10
ENDMDL
MODEL 6
REMARK VINA RESULT:      -6.6      4.291      7.195
REMARK  10 active torsions:
REMARK  status: ('A' for Active; 'I' for Inactive)
REMARK    1  A    between atoms: N1_1  and  C1_2 
REMARK    2  A    between atoms: C1_2  and  C2_3 
REMARK    3  A    between atoms: C2_3  and  C3_4 
REMARK    4  A    between atoms: C3_4  and  C4_5 
REMARK    5  A    between atoms: C4_5  and  C5_6 
REMARK    6  A    between atoms: C6_7  and  C7_8 
REMARK    7  A    between atoms: C7_8  and  C8_9 
REMARK    8  A    between atoms: C8_9  and  C9_10 
REMARK       I    between atoms: C9_10  and  N2_12 
REMARK    9  A    between atoms: N2_12  and  S1_13 
REMARK   10  A    between atoms: S1_13  and  C10_16 
ROOT
HETATM    1  C9  UNL     1      23.193   3.805  51.839  1.00  0.00     0.231 C 
HETATM    2  O1  UNL     1      23.732   4.695  52.551  1.00  0.00    -0.273 OA
HETATM    3  N2  UNL     1      22.853   3.853  50.478  1.00  0.00    -0.250 N 
HETATM    4  H11 UNL     1      22.409   3.012  50.053  1.00  0.00     0.181 HD
ENDROOT
BRANCH   1   5
HETATM    5  C8  UNL     1      22.973   2.647  52.745  1.00  0.00     0.107 C 
BRANCH   5   6
HETATM    6  C7  UNL     1      23.614   1.433  52.074  1.00  0.00     0.038 C 
BRANCH   6   7
HETATM    7  C6  UNL     1      23.929   0.424  53.135  1.00  0.00    -0.004 C 
HETATM    8  C5  UNL     1      24.927  -0.418  52.995  1.00  0.00     0.032 C 
BRANCH   8   9
HETATM    9  C4  UNL     1      26.184  -0.762  53.012  1.00  0.00    -0.065 C 
BRANCH   9  10
HETATM   10  C3  UNL     1      27.469  -0.888  53.024  1.00  0.00    -0.093 C 
BRANCH  10  11
HETATM   11  C2  UNL     1      28.759  -0.904  53.292  1.00  0.00     0.110 C 
BRANCH  11  12
HETATM   12  C1  UNL     1      29.531  -2.176  53.381  1.00  0.00     0.285 C 
BRANCH  12  13
HETATM   13  N1  UNL     1      28.583  -3.260  53.110  1.00  0.00     0.079 N 
HETATM   14  H1  UNL     1      27.852  -2.934  52.451  1.00  0.00     0.312 HD
HETATM   15  H2  UNL     1      29.051  -4.117  52.759  1.00  0.00     0.312 HD
ENDBRANCH  12  13
ENDBRANCH  11  12
ENDBRANCH  10  11
ENDBRANCH   9  10
ENDBRANCH   8   9
ENDBRANCH   6   7
ENDBRANCH   5   6
ENDBRANCH   1   5
BRANCH   3  16
HETATM   16  S1  UNL     1      23.191   5.308  49.577  1.00  0.00     0.265 S 
HETATM   17  O2  UNL     1      22.374   5.339  48.319  1.00  0.00    -0.200 OA
HETATM   18  O3  UNL     1      22.830   6.525  50.374  1.00  0.00    -0.200 OA
BRANCH  16  19
HETATM   19  C10 UNL     1      24.887   5.399  49.177  1.00  0.00     0.080 A 
HETATM   20  C11 UNL     1      25.762   4.351  49.406  1.00  0.00     0.027 A 
HETATM   21  C12 UNL     1      27.107   4.368  49.110  1.00  0.00     0.020 A 
HETATM   22  C13 UNL     1      27.569   5.552  48.539  1.00  0.00     0.011 A 
HETATM   23 BR1  UNL     1      29.428   5.655  48.099  1.00  0.00    -0.051 Br
HETATM   24  C14 UNL     1      26.733   6.622  48.293  1.00  0.00     0.020 A 
HETATM   25  C15 UNL     1      25.391   6.557  48.607  1.00  0.00     0.027 A 
ENDBRANCH  16  19
ENDBRANCH   3  16
TORSDOF 10
ENDMDL
MODEL 7
REMARK VINA RESULT:      -6.5      3.557      4.365
REMARK  10 active torsions:
REMARK  status: ('A' for Active; 'I' for Inactive)
REMARK    1  A    between atoms: N1_1  and  C1_2 
REMARK    2  A    between atoms: C1_2  and  C2_3 
REMARK    3  A    between atoms: C2_3  and  C3_4 
REMARK    4  A    between atoms: C3_4  and  C4_5 
REMARK    5  A    between atoms: C4_5  and  C5_6 
REMARK    6  A    between atoms: C6_7  and  C7_8 
REMARK    7  A    between atoms: C7_8  and  C8_9 
REMARK    8  A    between atoms: C8_9  and  C9_10 
REMARK       I    between atoms: C9_10  and  N2_12 
REMARK    9  A    between atoms: N2_12  and  S1_13 
REMARK   10  A    between atoms: S1_13  and  C10_16 
ROOT
HETATM    1  C9  UNL     1      26.291   2.777  50.821  1.00  0.00     0.231 C 
HETATM    2  O1  UNL     1      27.380   2.741  51.455  1.00  0.00    -0.273 OA
HETATM    3  N2  UNL     1      25.048   2.229  51.174  1.00  0.00    -0.250 N 
HETATM    4  H11 UNL     1      24.249   2.360  50.518  1.00  0.00     0.181 HD
ENDROOT
BRANCH   1   5
HETATM    5  C8  UNL     1      26.579   3.538  49.576  1.00  0.00     0.107 C 
BRANCH   5   6
HETATM    6  C7  UNL     1      25.506   4.620  49.462  1.00  0.00     0.038 C 
BRANCH   6   7
HETATM    7  C6  UNL     1      26.032   5.708  48.576  1.00  0.00    -0.004 C 
HETATM    8  C5  UNL     1      27.303   6.039  48.593  1.00  0.00     0.032 C 
BRANCH   8   9
HETATM    9  C4  UNL     1      28.561   5.883  48.290  1.00  0.00    -0.065 C 
BRANCH   9  10
HETATM   10  C3  UNL     1      29.841   5.729  48.207  1.00  0.00    -0.093 C 
BRANCH  10  11
HETATM   11  C2  UNL     1      31.079   5.363  47.948  1.00  0.00     0.110 C 
BRANCH  11  12
HETATM   12  C1  UNL     1      32.224   5.786  48.804  1.00  0.00     0.285 C 
BRANCH  12  13
HETATM   13  N1  UNL     1      31.751   5.732  50.190  1.00  0.00     0.079 N 
HETATM   14  H1  UNL     1      31.198   6.580  50.408  1.00  0.00     0.312 HD
HETATM   15  H2  UNL     1      31.211   4.868  50.390  1.00  0.00     0.312 HD
ENDBRANCH  12  13
ENDBRANCH  11  12
ENDBRANCH  10  11
ENDBRANCH   9  10
ENDBRANCH   8   9
ENDBRANCH   6   7
ENDBRANCH   5   6
ENDBRANCH   1   5
BRANCH   3  16
HETATM   16  S1  UNL     1      24.908   1.366  52.683  1.00  0.00     0.265 S 
HETATM   17  O2  UNL     1      25.901   0.242  52.731  1.00  0.00    -0.200 OA
HETATM   18  O3  UNL     1      25.198   2.269  53.844  1.00  0.00    -0.200 OA
BRANCH  16  19
HETATM   19  C10 UNL     1      23.294   0.729  52.875  1.00  0.00     0.080 A 
HETATM   20  C11 UNL     1      23.049  -0.531  53.390  1.00  0.00     0.027 A 
HETATM   21  C12 UNL     1      21.799  -1.083  53.563  1.00  0.00     0.020 A 
HETATM   22  C13 UNL     1      20.737  -0.268  53.176  1.00  0.00     0.011 A 
HETATM   23 BR1  UNL     1      18.967  -0.963  53.386  1.00  0.00    -0.051 Br
HETATM   24  C14 UNL     1      20.935   0.996  52.658  1.00  0.00     0.020 A 
HETATM   25  C15 UNL     1      22.207   1.505  52.503  1.00  0.00     0.027 A 
ENDBRANCH  16  19
ENDBRANCH   3  16
TORSDOF 10
ENDMDL
MODEL 8
REMARK VINA RESULT:      -6.4      4.946      7.783
REMARK  10 active torsions:
REMARK  status: ('A' for Active; 'I' for Inactive)
REMARK    1  A    between atoms: N1_1  and  C1_2 
REMARK    2  A    between atoms: C1_2  and  C2_3 
REMARK    3  A    between atoms: C2_3  and  C3_4 
REMARK    4  A    between atoms: C3_4  and  C4_5 
REMARK    5  A    between atoms: C4_5  and  C5_6 
REMARK    6  A    between atoms: C6_7  and  C7_8 
REMARK    7  A    between atoms: C7_8  and  C8_9 
REMARK    8  A    between atoms: C8_9  and  C9_10 
REMARK       I    between atoms: C9_10  and  N2_12 
REMARK    9  A    between atoms: N2_12  and  S1_13 
REMARK   10  A    between atoms: S1_13  and  C10_16 
ROOT
HETATM    1  C9  UNL     1      20.901   1.042  52.614  1.00  0.00     0.231 C 
HETATM    2  O1  UNL     1      19.996   0.403  52.013  1.00  0.00    -0.273 OA
HETATM    3  N2  UNL     1      21.839   1.943  52.088  1.00  0.00    -0.250 N 
HETATM    4  H11 UNL     1      22.520   2.382  52.744  1.00  0.00     0.181 HD
ENDROOT
BRANCH   1   5
HETATM    5  C8  UNL     1      20.786   0.648  54.043  1.00  0.00     0.107 C 
BRANCH   5   6
HETATM    6  C7  UNL     1      21.128  -0.840  54.121  1.00  0.00     0.038 C 
BRANCH   6   7
HETATM    7  C6  UNL     1      22.445  -0.980  54.820  1.00  0.00    -0.004 C 
HETATM    8  C5  UNL     1      23.576  -0.823  54.170  1.00  0.00     0.032 C 
BRANCH   8   9
HETATM    9  C4  UNL     1      24.524  -0.122  53.614  1.00  0.00    -0.065 C 
BRANCH   9  10
HETATM   10  C3  UNL     1      25.584   0.390  53.083  1.00  0.00    -0.093 C 
BRANCH  10  11
HETATM   11  C2  UNL     1      26.619   0.723  52.340  1.00  0.00     0.110 C 
BRANCH  11  12
HETATM   12  C1  UNL     1      27.510   1.866  52.693  1.00  0.00     0.285 C 
BRANCH  12  13
HETATM   13  N1  UNL     1      26.905   2.524  53.854  1.00  0.00     0.079 N 
HETATM   14  H1  UNL     1      26.977   1.909  54.685  1.00  0.00     0.312 HD
HETATM   15  H2  UNL     1      27.319   3.457  54.039  1.00  0.00     0.312 HD
ENDBRANCH  12  13
ENDBRANCH  11  12
ENDBRANCH  10  11
ENDBRANCH   9  10
ENDBRANCH   8   9
ENDBRANCH   6   7
ENDBRANCH   5   6
ENDBRANCH   1   5
BRANCH   3  16
HETATM   16  S1  UNL     1      21.816   2.279  50.378  1.00  0.00     0.265 S 
HETATM   17  O2  UNL     1      21.841   0.997  49.598  1.00  0.00    -0.200 OA
HETATM   18  O3  UNL     1      20.566   3.012  49.994  1.00  0.00    -0.200 OA
BRANCH  16  19
HETATM   19  C10 UNL     1      23.186   3.263  49.929  1.00  0.00     0.080 A 
HETATM   20  C11 UNL     1      23.066   4.378  49.119  1.00  0.00     0.027 A 
HETATM   21  C12 UNL     1      24.111   5.190  48.735  1.00  0.00     0.020 A 
HETATM   22  C13 UNL     1      25.359   4.815  49.228  1.00  0.00     0.011 A 
HETATM   23 BR1  UNL     1      26.863   5.892  48.738  1.00  0.00    -0.051 Br
HETATM   24  C14 UNL     1      25.525   3.711  50.039  1.00  0.00     0.020 A 
HETATM   25  C15 UNL     1      24.448   2.929  50.397  1.00  0.00     0.027 A 
ENDBRANCH  16  19
ENDBRANCH   3  16
TORSDOF 10
ENDMDL
MODEL 9
REMARK VINA RESULT:      -6.4      4.548      8.142
REMARK  10 active torsions:
REMARK  status: ('A' for Active; 'I' for Inactive)
REMARK    1  A    between atoms: N1_1  and  C1_2 
REMARK    2  A    between atoms: C1_2  and  C2_3 
REMARK    3  A    between atoms: C2_3  and  C3_4 
REMARK    4  A    between atoms: C3_4  and  C4_5 
REMARK    5  A    between atoms: C4_5  and  C5_6 
REMARK    6  A    between atoms: C6_7  and  C7_8 
REMARK    7  A    between atoms: C7_8  and  C8_9 
REMARK    8  A    between atoms: C8_9  and  C9_10 
REMARK       I    between atoms: C9_10  and  N2_12 
REMARK    9  A    between atoms: N2_12  and  S1_13 
REMARK   10  A    between atoms: S1_13  and  C10_16 
ROOT
HETATM    1  C9  UNL     1      28.820   7.056  48.048  1.00  0.00     0.231 C 
HETATM    2  O1  UNL     1      28.957   7.344  46.828  1.00  0.00    -0.273 OA
HETATM    3  N2  UNL     1      29.740   7.207  49.097  1.00  0.00    -0.250 N 
HETATM    4  H11 UNL     1      29.449   6.910  50.052  1.00  0.00     0.181 HD
ENDROOT
BRANCH   1   5
HETATM    5  C8  UNL     1      27.446   6.502  48.175  1.00  0.00     0.107 C 
BRANCH   5   6
HETATM    6  C7  UNL     1      27.595   5.046  48.614  1.00  0.00     0.038 C 
BRANCH   6   7
HETATM    7  C6  UNL     1      26.341   4.643  49.327  1.00  0.00    -0.004 C 
HETATM    8  C5  UNL     1      26.166   3.410  49.745  1.00  0.00     0.032 C 
BRANCH   8   9
HETATM    9  C4  UNL     1      26.345   2.410  50.562  1.00  0.00    -0.065 C 
BRANCH   9  10
HETATM   10  C3  UNL     1      26.682   1.543  51.458  1.00  0.00    -0.093 C 
BRANCH  10  11
HETATM   11  C2  UNL     1      27.039   0.882  52.539  1.00  0.00     0.110 C 
BRANCH  11  12
HETATM   12  C1  UNL     1      26.930   1.479  53.901  1.00  0.00     0.285 C 
BRANCH  12  13
HETATM   13  N1  UNL     1      27.782   2.671  53.904  1.00  0.00     0.079 N 
HETATM   14  H1  UNL     1      27.439   3.352  53.202  1.00  0.00     0.312 HD
HETATM   15  H2  UNL     1      27.854   3.104  54.845  1.00  0.00     0.312 HD
ENDBRANCH  12  13
ENDBRANCH  11  12
ENDBRANCH  10  11
ENDBRANCH   9  10
ENDBRANCH   8   9
ENDBRANCH   6   7
ENDBRANCH   5   6
ENDBRANCH   1   5
BRANCH   3  16
HETATM   16  S1  UNL     1      31.311   7.879  48.748  1.00  0.00     0.265 S 
HETATM   17  O2  UNL     1      31.173   9.094  47.878  1.00  0.00    -0.200 OA
HETATM   18  O3  UNL     1      32.001   8.307  50.008  1.00  0.00    -0.200 OA
BRANCH  16  19
HETATM   19  C10 UNL     1      32.317   6.698  47.948  1.00  0.00     0.080 A 
HETATM   20  C11 UNL     1      32.350   5.369  48.331  1.00  0.00     0.027 A 
HETATM   21  C12 UNL     1      33.123   4.396  47.737  1.00  0.00     0.020 A 
HETATM   22  C13 UNL     1      33.910   4.837  46.675  1.00  0.00     0.011 A 
HETATM   23 BR1  UNL     1      35.014   3.544  45.797  1.00  0.00    -0.051 Br
HETATM   24  C14 UNL     1      33.910   6.153  46.260  1.00  0.00     0.020 A 
HETATM   25  C15 UNL     1      33.117   7.091  46.887  1.00  0.00     0.027 A 
ENDBRANCH  16  19
ENDBRANCH   3  16
TORSDOF 10
ENDMDL
