MODEL 1
REMARK VINA RESULT:      -8.2      0.000      0.000
REMARK  7 active torsions:
REMARK  status: ('A' for Active; 'I' for Inactive)
REMARK    1  A    between atoms: C4_5  and  C5_6 
REMARK    2  A    between atoms: C5_6  and  C6_7 
REMARK    3  A    between atoms: C6_7  and  C7_8 
REMARK    4  A    between atoms: C11_12  and  N1_13 
REMARK    5  A    between atoms: N1_13  and  C12_14 
REMARK    6  A    between atoms: C12_14  and  N2_15 
REMARK    7  A    between atoms: N2_15  and  C13_16 
ROOT
HETATM    1  C7  UNL     1      25.299   3.007  50.929  1.00  0.00     0.046 C 
HETATM    2  C8  UNL     1      24.977   3.396  49.684  1.00  0.00     0.032 C 
HETATM    3  C9  UNL     1      23.797   4.204  49.302  1.00  0.00     0.001 C 
HETATM    4  C10 UNL     1      22.639   4.455  49.941  1.00  0.00    -0.000 C 
HETATM    5  C11 UNL     1      22.418   3.866  51.255  1.00  0.00     0.125 C 
HETATM    6  C19 UNL     1      23.532   4.225  52.222  1.00  0.00     0.204 C 
HETATM    7  O1  UNL     1      24.592   3.280  52.116  1.00  0.00    -0.353 OA
ENDROOT
BRANCH   5   8
HETATM    8  N1  UNL     1      21.125   4.112  51.773  1.00  0.00    -0.397 N 
HETATM    9  H11 UNL     1      20.530   4.765  51.254  1.00  0.00     0.155 HD
BRANCH   8  10
HETATM   10  C12 UNL     1      20.476   3.066  52.479  1.00  0.00     0.238 C 
BRANCH  10  11
HETATM   11  N2  UNL     1      20.674   1.736  51.952  1.00  0.00    -0.374 N 
HETATM   12  H14 UNL     1      20.391   1.370  51.038  1.00  0.00     0.161 HD
BRANCH  11  13
HETATM   13  C13 UNL     1      21.357   0.829  52.845  1.00  0.00     0.029 A 
HETATM   14  C14 UNL     1      20.804   0.350  54.012  1.00  0.00     0.029 A 
HETATM   15  C15 UNL     1      21.473  -0.514  54.848  1.00  0.00     0.002 A 
HETATM   16  C16 UNL     1      22.742  -0.933  54.537  1.00  0.00     0.000 A 
HETATM   17  C17 UNL     1      23.342  -0.484  53.380  1.00  0.00     0.002 A 
HETATM   18  C18 UNL     1      22.651   0.381  52.558  1.00  0.00     0.029 A 
ENDBRANCH  11  13
ENDBRANCH  10  11
ENDBRANCH   8  10
ENDBRANCH   5   8
BRANCH   1  19
HETATM   19  C6  UNL     1      26.506   2.206  51.147  1.00  0.00     0.069 C 
BRANCH  19  20
HETATM   20  C5  UNL     1      26.839   2.033  52.592  1.00  0.00     0.045 C 
BRANCH  20  21
HETATM   21  C4  UNL     1      27.477   0.686  52.813  1.00  0.00    -0.058 A 
HETATM   22  C3  UNL     1      26.873  -0.520  52.483  1.00  0.00     0.010 A 
HETATM   23  C2  UNL     1      27.541  -1.696  52.725  1.00  0.00     0.043 A 
HETATM   24  C1  UNL     1      28.800  -1.743  53.287  1.00  0.00     0.116 A 
HETATM   25  F1  UNL     1      29.454  -2.904  53.523  1.00  0.00    -0.206 F 
HETATM   26  C21 UNL     1      29.434  -0.554  53.629  1.00  0.00     0.043 A 
HETATM   27  C20 UNL     1      28.748   0.600  53.378  1.00  0.00     0.010 A 
ENDBRANCH  20  21
ENDBRANCH  19  20
ENDBRANCH   1  19
TORSDOF 7
ENDMDL
MODEL 2
REMARK VINA RESULT:      -8.1      1.995      4.953
REMARK  7 active torsions:
REMARK  status: ('A' for Active; 'I' for Inactive)
REMARK    1  A    between atoms: C4_5  and  C5_6 
REMARK    2  A    between atoms: C5_6  and  C6_7 
REMARK    3  A    between atoms: C6_7  and  C7_8 
REMARK    4  A    between atoms: C11_12  and  N1_13 
REMARK    5  A    between atoms: N1_13  and  C12_14 
REMARK    6  A    between atoms: C12_14  and  N2_15 
REMARK    7  A    between atoms: N2_15  and  C13_16 
ROOT
HETATM    1  C7  UNL     1      23.826   0.046  53.031  1.00  0.00     0.046 C 
HETATM    2  C8  UNL     1      22.725  -0.098  53.787  1.00  0.00     0.032 C 
HETATM    3  C9  UNL     1      21.428   0.584  53.576  1.00  0.00     0.001 C 
HETATM    4  C10 UNL     1      21.100   1.688  52.878  1.00  0.00    -0.000 C 
HETATM    5  C11 UNL     1      22.148   2.411  52.170  1.00  0.00     0.125 C 
HETATM    6  C19 UNL     1      22.903   1.505  51.214  1.00  0.00     0.204 C 
HETATM    7  O1  UNL     1      23.977   0.865  51.895  1.00  0.00    -0.353 OA
ENDROOT
BRANCH   5   8
HETATM    8  N1  UNL     1      21.699   3.610  51.570  1.00  0.00    -0.397 N 
HETATM    9  H11 UNL     1      21.109   4.225  52.138  1.00  0.00     0.155 HD
BRANCH   8  10
HETATM   10  C12 UNL     1      22.532   4.227  50.600  1.00  0.00     0.238 C 
BRANCH  10  11
HETATM   11  N2  UNL     1      23.625   5.015  51.121  1.00  0.00    -0.374 N 
HETATM   12  H14 UNL     1      23.637   5.599  51.962  1.00  0.00     0.161 HD
BRANCH  11  13
HETATM   13  C13 UNL     1      24.838   4.955  50.340  1.00  0.00     0.029 A 
HETATM   14  C14 UNL     1      25.367   6.037  49.672  1.00  0.00     0.029 A 
HETATM   15  C15 UNL     1      26.525   5.958  48.934  1.00  0.00     0.002 A 
HETATM   16  C16 UNL     1      27.204   4.768  48.838  1.00  0.00     0.000 A 
HETATM   17  C17 UNL     1      26.717   3.654  49.487  1.00  0.00     0.002 A 
HETATM   18  C18 UNL     1      25.555   3.759  50.222  1.00  0.00     0.029 A 
ENDBRANCH  11  13
ENDBRANCH  10  11
ENDBRANCH   8  10
ENDBRANCH   5   8
BRANCH   1  19
HETATM   19  C6  UNL     1      25.039  -0.701  53.371  1.00  0.00     0.069 C 
BRANCH  19  20
HETATM   20  C5  UNL     1      26.160  -0.461  52.413  1.00  0.00     0.045 C 
BRANCH  20  21
HETATM   21  C4  UNL     1      27.219   0.389  53.067  1.00  0.00    -0.058 A 
HETATM   22  C3  UNL     1      27.474   1.710  52.721  1.00  0.00     0.010 A 
HETATM   23  C2  UNL     1      28.463   2.399  53.380  1.00  0.00     0.043 A 
HETATM   24  C1  UNL     1      29.229   1.839  54.382  1.00  0.00     0.116 A 
HETATM   25  F1  UNL     1      30.202   2.522  55.028  1.00  0.00    -0.206 F 
HETATM   26  C21 UNL     1      28.999   0.520  54.754  1.00  0.00     0.043 A 
HETATM   27  C20 UNL     1      28.011  -0.143  54.083  1.00  0.00     0.010 A 
ENDBRANCH  20  21
ENDBRANCH  19  20
ENDBRANCH   1  19
TORSDOF 7
ENDMDL
MODEL 3
REMARK VINA RESULT:      -7.9      3.666      6.473
REMARK  7 active torsions:
REMARK  status: ('A' for Active; 'I' for Inactive)
REMARK    1  A    between atoms: C4_5  and  C5_6 
REMARK    2  A    between atoms: C5_6  and  C6_7 
REMARK    3  A    between atoms: C6_7  and  C7_8 
REMARK    4  A    between atoms: C11_12  and  N1_13 
REMARK    5  A    between atoms: N1_13  and  C12_14 
REMARK    6  A    between atoms: C12_14  and  N2_15 
REMARK    7  A    between atoms: N2_15  and  C13_16 
ROOT
HETATM    1  C7  UNL     1      23.918   2.931  50.335  1.00  0.00     0.046 C 
HETATM    2  C8  UNL     1      22.902   2.195  49.854  1.00  0.00     0.032 C 
HETATM    3  C9  UNL     1      22.076   1.241  50.627  1.00  0.00     0.001 C 
HETATM    4  C10 UNL     1      22.288   0.621  51.803  1.00  0.00    -0.000 C 
HETATM    5  C11 UNL     1      23.531   0.874  52.518  1.00  0.00     0.125 C 
HETATM    6  C19 UNL     1      23.739   2.357  52.767  1.00  0.00     0.204 C 
HETATM    7  O1  UNL     1      24.404   2.949  51.656  1.00  0.00    -0.353 OA
ENDROOT
BRANCH   5   8
HETATM    8  N1  UNL     1      23.684   0.083  53.680  1.00  0.00    -0.397 N 
HETATM    9  H11 UNL     1      22.853  -0.405  54.027  1.00  0.00     0.155 HD
BRANCH   8  10
HETATM   10  C12 UNL     1      24.940  -0.537  53.908  1.00  0.00     0.238 C 
BRANCH  10  11
HETATM   11  N2  UNL     1      25.809  -0.638  52.758  1.00  0.00    -0.374 N 
HETATM   12  H14 UNL     1      25.546  -0.793  51.781  1.00  0.00     0.161 HD
BRANCH  11  13
HETATM   13  C13 UNL     1      27.216  -0.499  53.051  1.00  0.00     0.029 A 
HETATM   14  C14 UNL     1      28.094  -1.559  53.083  1.00  0.00     0.029 A 
HETATM   15  C15 UNL     1      29.432  -1.405  53.364  1.00  0.00     0.002 A 
HETATM   16  C16 UNL     1      29.943  -0.158  53.628  1.00  0.00     0.000 A 
HETATM   17  C17 UNL     1      29.107   0.937  53.609  1.00  0.00     0.002 A 
HETATM   18  C18 UNL     1      27.770   0.756  53.324  1.00  0.00     0.029 A 
ENDBRANCH  11  13
ENDBRANCH  10  11
ENDBRANCH   8  10
ENDBRANCH   5   8
BRANCH   1  19
HETATM   19  C6  UNL     1      24.644   3.835  49.439  1.00  0.00     0.069 C 
BRANCH  19  20
HETATM   20  C5  UNL     1      26.127   3.705  49.555  1.00  0.00     0.045 C 
BRANCH  20  21
HETATM   21  C4  UNL     1      26.796   4.902  48.931  1.00  0.00    -0.058 A 
HETATM   22  C3  UNL     1      28.139   4.941  48.578  1.00  0.00     0.010 A 
HETATM   23  C2  UNL     1      28.653   6.084  48.014  1.00  0.00     0.043 A 
HETATM   24  C1  UNL     1      27.894   7.211  47.775  1.00  0.00     0.116 A 
HETATM   25  F1  UNL     1      28.405   8.333  47.219  1.00  0.00    -0.206 F 
HETATM   26  C21 UNL     1      26.547   7.205  48.116  1.00  0.00     0.043 A 
HETATM   27  C20 UNL     1      26.061   6.058  48.676  1.00  0.00     0.010 A 
ENDBRANCH  20  21
ENDBRANCH  19  20
ENDBRANCH   1  19
TORSDOF 7
ENDMDL
MODEL 4
REMARK VINA RESULT:      -7.9      1.052      1.566
REMARK  7 active torsions:
REMARK  status: ('A' for Active; 'I' for Inactive)
REMARK    1  A    between atoms: C4_5  and  C5_6 
REMARK    2  A    between atoms: C5_6  and  C6_7 
REMARK    3  A    between atoms: C6_7  and  C7_8 
REMARK    4  A    between atoms: C11_12  and  N1_13 
REMARK    5  A    between atoms: N1_13  and  C12_14 
REMARK    6  A    between atoms: C12_14  and  N2_15 
REMARK    7  A    between atoms: N2_15  and  C13_16 
ROOT
HETATM    1  C7  UNL     1      25.110   2.651  52.407  1.00  0.00     0.046 C 
HETATM    2  C8  UNL     1      25.637   2.834  51.185  1.00  0.00     0.032 C 
HETATM    3  C9  UNL     1      24.901   3.264  49.975  1.00  0.00     0.001 C 
HETATM    4  C10 UNL     1      23.589   3.254  49.674  1.00  0.00    -0.000 C 
HETATM    5  C11 UNL     1      22.645   2.742  50.657  1.00  0.00     0.125 C 
HETATM    6  C19 UNL     1      22.777   3.464  51.986  1.00  0.00     0.204 C 
HETATM    7  O1  UNL     1      23.766   2.828  52.789  1.00  0.00    -0.353 OA
ENDROOT
BRANCH   5   8
HETATM    8  N1  UNL     1      21.314   2.680  50.182  1.00  0.00    -0.397 N 
HETATM    9  H11 UNL     1      21.151   2.959  49.210  1.00  0.00     0.155 HD
BRANCH   8  10
HETATM   10  C12 UNL     1      20.455   1.689  50.724  1.00  0.00     0.238 C 
BRANCH  10  11
HETATM   11  N2  UNL     1      21.041   0.382  50.907  1.00  0.00    -0.374 N 
HETATM   12  H14 UNL     1      21.244  -0.324  50.194  1.00  0.00     0.161 HD
BRANCH  11  13
HETATM   13  C13 UNL     1      21.370   0.055  52.275  1.00  0.00     0.029 A 
HETATM   14  C14 UNL     1      20.493   0.205  53.326  1.00  0.00     0.029 A 
HETATM   15  C15 UNL     1      20.828  -0.113  54.622  1.00  0.00     0.002 A 
HETATM   16  C16 UNL     1      22.078  -0.600  54.913  1.00  0.00     0.000 A 
HETATM   17  C17 UNL     1      22.994  -0.769  53.898  1.00  0.00     0.002 A 
HETATM   18  C18 UNL     1      22.635  -0.444  52.607  1.00  0.00     0.029 A 
ENDBRANCH  11  13
ENDBRANCH  10  11
ENDBRANCH   8  10
ENDBRANCH   5   8
BRANCH   1  19
HETATM   19  C6  UNL     1      25.972   2.219  53.510  1.00  0.00     0.069 C 
BRANCH  19  20
HETATM   20  C5  UNL     1      27.413   2.133  53.126  1.00  0.00     0.045 C 
BRANCH  20  21
HETATM   21  C4  UNL     1      27.869   0.698  53.172  1.00  0.00    -0.058 A 
HETATM   22  C3  UNL     1      29.124   0.299  53.613  1.00  0.00     0.010 A 
HETATM   23  C2  UNL     1      29.443  -1.038  53.615  1.00  0.00     0.043 A 
HETATM   24  C1  UNL     1      28.569  -2.019  53.197  1.00  0.00     0.116 A 
HETATM   25  F1  UNL     1      28.888  -3.334  53.202  1.00  0.00    -0.206 F 
HETATM   26  C21 UNL     1      27.304  -1.655  52.750  1.00  0.00     0.043 A 
HETATM   27  C20 UNL     1      27.013  -0.320  52.757  1.00  0.00     0.010 A 
ENDBRANCH  20  21
ENDBRANCH  19  20
ENDBRANCH   1  19
TORSDOF 7
ENDMDL
MODEL 5
REMARK VINA RESULT:      -7.8      2.509      5.299
REMARK  7 active torsions:
REMARK  status: ('A' for Active; 'I' for Inactive)
REMARK    1  A    between atoms: C4_5  and  C5_6 
REMARK    2  A    between atoms: C5_6  and  C6_7 
REMARK    3  A    between atoms: C6_7  and  C7_8 
REMARK    4  A    between atoms: C11_12  and  N1_13 
REMARK    5  A    between atoms: N1_13  and  C12_14 
REMARK    6  A    between atoms: C12_14  and  N2_15 
REMARK    7  A    between atoms: N2_15  and  C13_16 
ROOT
HETATM    1  C7  UNL     1      21.682   3.793  51.523  1.00  0.00     0.046 C 
HETATM    2  C8  UNL     1      21.735   5.121  51.722  1.00  0.00     0.032 C 
HETATM    3  C9  UNL     1      22.795   6.031  51.235  1.00  0.00     0.001 C 
HETATM    4  C10 UNL     1      24.054   5.798  50.817  1.00  0.00    -0.000 C 
HETATM    5  C11 UNL     1      24.550   4.429  50.806  1.00  0.00     0.125 C 
HETATM    6  C19 UNL     1      23.649   3.515  49.996  1.00  0.00     0.204 C 
HETATM    7  O1  UNL     1      22.610   2.999  50.822  1.00  0.00    -0.353 OA
ENDROOT
BRANCH   5   8
HETATM    8  N1  UNL     1      25.916   4.327  50.454  1.00  0.00    -0.397 N 
HETATM    9  H11 UNL     1      26.485   5.174  50.540  1.00  0.00     0.155 HD
BRANCH   8  10
HETATM   10  C12 UNL     1      26.569   3.084  50.657  1.00  0.00     0.238 C 
BRANCH  10  11
HETATM   11  N2  UNL     1      27.114   2.869  51.978  1.00  0.00    -0.374 N 
HETATM   12  H14 UNL     1      27.692   3.505  52.533  1.00  0.00     0.161 HD
BRANCH  11  13
HETATM   13  C13 UNL     1      26.787   1.590  52.564  1.00  0.00     0.029 A 
HETATM   14  C14 UNL     1      26.745   0.414  51.849  1.00  0.00     0.029 A 
HETATM   15  C15 UNL     1      26.431  -0.794  52.427  1.00  0.00     0.002 A 
HETATM   16  C16 UNL     1      26.143  -0.865  53.768  1.00  0.00     0.000 A 
HETATM   17  C17 UNL     1      26.171   0.283  54.530  1.00  0.00     0.002 A 
HETATM   18  C18 UNL     1      26.489   1.482  53.927  1.00  0.00     0.029 A 
ENDBRANCH  11  13
ENDBRANCH  10  11
ENDBRANCH   8  10
ENDBRANCH   5   8
BRANCH   1  19
HETATM   19  C6  UNL     1      20.562   3.024  52.071  1.00  0.00     0.069 C 
BRANCH  19  20
HETATM   20  C5  UNL     1      20.514   1.619  51.566  1.00  0.00     0.045 C 
BRANCH  20  21
HETATM   21  C4  UNL     1      21.159   0.694  52.566  1.00  0.00    -0.058 A 
HETATM   22  C3  UNL     1      22.191  -0.182  52.255  1.00  0.00     0.010 A 
HETATM   23  C2  UNL     1      22.711  -0.985  53.241  1.00  0.00     0.043 A 
HETATM   24  C1  UNL     1      22.255  -0.968  54.543  1.00  0.00     0.116 A 
HETATM   25  F1  UNL     1      22.771  -1.760  55.510  1.00  0.00    -0.206 F 
HETATM   26  C21 UNL     1      21.223  -0.102  54.888  1.00  0.00     0.043 A 
HETATM   27  C20 UNL     1      20.724   0.685  53.889  1.00  0.00     0.010 A 
ENDBRANCH  20  21
ENDBRANCH  19  20
ENDBRANCH   1  19
TORSDOF 7
ENDMDL
MODEL 6
REMARK VINA RESULT:      -7.6      4.049      5.839
REMARK  7 active torsions:
REMARK  status: ('A' for Active; 'I' for Inactive)
REMARK    1  A    between atoms: C4_5  and  C5_6 
REMARK    2  A    between atoms: C5_6  and  C6_7 
REMARK    3  A    between atoms: C6_7  and  C7_8 
REMARK    4  A    between atoms: C11_12  and  N1_13 
REMARK    5  A    between atoms: N1_13  and  C12_14 
REMARK    6  A    between atoms: C12_14  and  N2_15 
REMARK    7  A    between atoms: N2_15  and  C13_16 
ROOT
HETATM    1  C7  UNL     1      26.229   3.232  50.680  1.00  0.00     0.046 C 
HETATM    2  C8  UNL     1      25.014   3.625  51.098  1.00  0.00     0.032 C 
HETATM    3  C9  UNL     1      24.408   3.323  52.414  1.00  0.00     0.001 C 
HETATM    4  C10 UNL     1      24.689   2.384  53.336  1.00  0.00    -0.000 C 
HETATM    5  C11 UNL     1      25.774   1.446  53.078  1.00  0.00     0.125 C 
HETATM    6  C19 UNL     1      27.076   2.167  52.784  1.00  0.00     0.204 C 
HETATM    7  O1  UNL     1      27.168   2.462  51.395  1.00  0.00    -0.353 OA
ENDROOT
BRANCH   5   8
HETATM    8  N1  UNL     1      25.898   0.442  54.066  1.00  0.00    -0.397 N 
HETATM    9  H11 UNL     1      26.068   0.752  55.028  1.00  0.00     0.155 HD
BRANCH   8  10
HETATM   10  C12 UNL     1      25.169  -0.763  53.893  1.00  0.00     0.238 C 
BRANCH  10  11
HETATM   11  N2  UNL     1      24.004  -0.919  54.733  1.00  0.00    -0.374 N 
HETATM   12  H14 UNL     1      23.967  -1.231  55.707  1.00  0.00     0.161 HD
BRANCH  11  13
HETATM   13  C13 UNL     1      22.752  -0.587  54.095  1.00  0.00     0.029 A 
HETATM   14  C14 UNL     1      21.572  -0.409  54.782  1.00  0.00     0.029 A 
HETATM   15  C15 UNL     1      20.389  -0.092  54.154  1.00  0.00     0.002 A 
HETATM   16  C16 UNL     1      20.350   0.059  52.791  1.00  0.00     0.000 A 
HETATM   17  C17 UNL     1      21.504  -0.108  52.055  1.00  0.00     0.002 A 
HETATM   18  C18 UNL     1      22.676  -0.425  52.707  1.00  0.00     0.029 A 
ENDBRANCH  11  13
ENDBRANCH  10  11
ENDBRANCH   8  10
ENDBRANCH   5   8
BRANCH   1  19
HETATM   19  C6  UNL     1      26.691   3.611  49.342  1.00  0.00     0.069 C 
BRANCH  19  20
HETATM   20  C5  UNL     1      26.271   4.988  48.947  1.00  0.00     0.045 C 
BRANCH  20  21
HETATM   21  C4  UNL     1      27.483   5.813  48.599  1.00  0.00    -0.058 A 
HETATM   22  C3  UNL     1      27.487   7.201  48.553  1.00  0.00     0.010 A 
HETATM   23  C2  UNL     1      28.647   7.860  48.224  1.00  0.00     0.043 A 
HETATM   24  C1  UNL     1      29.827   7.205  47.934  1.00  0.00     0.116 A 
HETATM   25  F1  UNL     1      30.966   7.859  47.611  1.00  0.00    -0.206 F 
HETATM   26  C21 UNL     1      29.858   5.816  47.972  1.00  0.00     0.043 A 
HETATM   27  C20 UNL     1      28.691   5.186  48.301  1.00  0.00     0.010 A 
ENDBRANCH  20  21
ENDBRANCH  19  20
ENDBRANCH   1  19
TORSDOF 7
ENDMDL
MODEL 7
REMARK VINA RESULT:      -7.5      3.601      5.959
REMARK  7 active torsions:
REMARK  status: ('A' for Active; 'I' for Inactive)
REMARK    1  A    between atoms: C4_5  and  C5_6 
REMARK    2  A    between atoms: C5_6  and  C6_7 
REMARK    3  A    between atoms: C6_7  and  C7_8 
REMARK    4  A    between atoms: C11_12  and  N1_13 
REMARK    5  A    between atoms: N1_13  and  C12_14 
REMARK    6  A    between atoms: C12_14  and  N2_15 
REMARK    7  A    between atoms: N2_15  and  C13_16 
ROOT
HETATM    1  C7  UNL     1      25.966   1.688  51.749  1.00  0.00     0.046 C 
HETATM    2  C8  UNL     1      26.793   0.659  51.999  1.00  0.00     0.032 C 
HETATM    3  C9  UNL     1      26.408  -0.646  52.580  1.00  0.00     0.001 C 
HETATM    4  C10 UNL     1      25.327  -1.029  53.284  1.00  0.00    -0.000 C 
HETATM    5  C11 UNL     1      24.293  -0.046  53.577  1.00  0.00     0.125 C 
HETATM    6  C19 UNL     1      23.774   0.612  52.312  1.00  0.00     0.204 C 
HETATM    7  O1  UNL     1      24.578   1.740  51.984  1.00  0.00    -0.353 OA
ENDROOT
BRANCH   5   8
HETATM    8  N1  UNL     1      23.266  -0.540  54.415  1.00  0.00    -0.397 N 
HETATM    9  H11 UNL     1      23.107  -0.049  55.299  1.00  0.00     0.155 HD
BRANCH   8  10
HETATM   10  C12 UNL     1      22.141  -1.155  53.805  1.00  0.00     0.238 C 
BRANCH  10  11
HETATM   11  N2  UNL     1      20.853  -0.776  54.337  1.00  0.00    -0.374 N 
HETATM   12  H14 UNL     1      20.594  -0.626  55.317  1.00  0.00     0.161 HD
BRANCH  11  13
HETATM   13  C13 UNL     1      19.820  -0.595  53.345  1.00  0.00     0.029 A 
HETATM   14  C14 UNL     1      19.966   0.203  52.232  1.00  0.00     0.029 A 
HETATM   15  C15 UNL     1      18.969   0.362  51.297  1.00  0.00     0.002 A 
HETATM   16  C16 UNL     1      17.768  -0.287  51.451  1.00  0.00     0.000 A 
HETATM   17  C17 UNL     1      17.570  -1.098  52.548  1.00  0.00     0.002 A 
HETATM   18  C18 UNL     1      18.585  -1.241  53.470  1.00  0.00     0.029 A 
ENDBRANCH  11  13
ENDBRANCH  10  11
ENDBRANCH   8  10
ENDBRANCH   5   8
BRANCH   1  19
HETATM   19  C6  UNL     1      26.500   2.922  51.169  1.00  0.00     0.069 C 
BRANCH  19  20
HETATM   20  C5  UNL     1      26.402   2.959  49.679  1.00  0.00     0.045 C 
BRANCH  20  21
HETATM   21  C4  UNL     1      26.553   4.376  49.191  1.00  0.00    -0.058 A 
HETATM   22  C3  UNL     1      25.535   5.320  49.230  1.00  0.00     0.010 A 
HETATM   23  C2  UNL     1      25.775   6.589  48.759  1.00  0.00     0.043 A 
HETATM   24  C1  UNL     1      26.993   6.980  48.242  1.00  0.00     0.116 A 
HETATM   25  F1  UNL     1      27.225   8.230  47.780  1.00  0.00    -0.206 F 
HETATM   26  C21 UNL     1      28.034   6.059  48.189  1.00  0.00     0.043 A 
HETATM   27  C20 UNL     1      27.768   4.806  48.663  1.00  0.00     0.010 A 
ENDBRANCH  20  21
ENDBRANCH  19  20
ENDBRANCH   1  19
TORSDOF 7
ENDMDL
MODEL 8
REMARK VINA RESULT:      -7.5      2.646      5.516
REMARK  7 active torsions:
REMARK  status: ('A' for Active; 'I' for Inactive)
REMARK    1  A    between atoms: C4_5  and  C5_6 
REMARK    2  A    between atoms: C5_6  and  C6_7 
REMARK    3  A    between atoms: C6_7  and  C7_8 
REMARK    4  A    between atoms: C11_12  and  N1_13 
REMARK    5  A    between atoms: N1_13  and  C12_14 
REMARK    6  A    between atoms: C12_14  and  N2_15 
REMARK    7  A    between atoms: N2_15  and  C13_16 
ROOT
HETATM    1  C7  UNL     1      23.614   2.340  51.794  1.00  0.00     0.046 C 
HETATM    2  C8  UNL     1      23.860   3.257  52.744  1.00  0.00     0.032 C 
HETATM    3  C9  UNL     1      23.431   4.673  52.719  1.00  0.00     0.001 C 
HETATM    4  C10 UNL     1      23.034   5.471  51.710  1.00  0.00    -0.000 C 
HETATM    5  C11 UNL     1      22.987   4.927  50.359  1.00  0.00     0.125 C 
HETATM    6  C19 UNL     1      22.124   3.680  50.290  1.00  0.00     0.204 C 
HETATM    7  O1  UNL     1      22.907   2.530  50.591  1.00  0.00    -0.353 OA
ENDROOT
BRANCH   5   8
HETATM    8  N1  UNL     1      22.662   5.890  49.375  1.00  0.00    -0.397 N 
HETATM    9  H11 UNL     1      22.105   6.695  49.675  1.00  0.00     0.155 HD
BRANCH   8  10
HETATM   10  C12 UNL     1      23.580   6.096  48.312  1.00  0.00     0.238 C 
BRANCH  10  11
HETATM   11  N2  UNL     1      24.645   7.037  48.575  1.00  0.00    -0.374 N 
HETATM   12  H14 UNL     1      24.565   8.031  48.809  1.00  0.00     0.161 HD
BRANCH  11  13
HETATM   13  C13 UNL     1      25.975   6.480  48.492  1.00  0.00     0.029 A 
HETATM   14  C14 UNL     1      26.290   5.200  48.889  1.00  0.00     0.029 A 
HETATM   15  C15 UNL     1      27.564   4.690  48.801  1.00  0.00     0.002 A 
HETATM   16  C16 UNL     1      28.585   5.461  48.302  1.00  0.00     0.000 A 
HETATM   17  C17 UNL     1      28.323   6.750  47.890  1.00  0.00     0.002 A 
HETATM   18  C18 UNL     1      27.038   7.238  47.989  1.00  0.00     0.029 A 
ENDBRANCH  11  13
ENDBRANCH  10  11
ENDBRANCH   8  10
ENDBRANCH   5   8
BRANCH   1  19
HETATM   19  C6  UNL     1      24.109   0.971  51.964  1.00  0.00     0.069 C 
BRANCH  19  20
HETATM   20  C5  UNL     1      24.333   0.604  53.394  1.00  0.00     0.045 C 
BRANCH  20  21
HETATM   21  C4  UNL     1      25.774   0.218  53.604  1.00  0.00    -0.058 A 
HETATM   22  C3  UNL     1      26.514   0.573  54.724  1.00  0.00     0.010 A 
HETATM   23  C2  UNL     1      27.825   0.170  54.820  1.00  0.00     0.043 A 
HETATM   24  C1  UNL     1      28.453  -0.580  53.847  1.00  0.00     0.116 A 
HETATM   25  F1  UNL     1      29.743  -0.975  53.946  1.00  0.00    -0.206 F 
HETATM   26  C21 UNL     1      27.740  -0.953  52.713  1.00  0.00     0.043 A 
HETATM   27  C20 UNL     1      26.440  -0.539  52.642  1.00  0.00     0.010 A 
ENDBRANCH  20  21
ENDBRANCH  19  20
ENDBRANCH   1  19
TORSDOF 7
ENDMDL
MODEL 9
REMARK VINA RESULT:      -7.5      4.476      6.663
REMARK  7 active torsions:
REMARK  status: ('A' for Active; 'I' for Inactive)
REMARK    1  A    between atoms: C4_5  and  C5_6 
REMARK    2  A    between atoms: C5_6  and  C6_7 
REMARK    3  A    between atoms: C6_7  and  C7_8 
REMARK    4  A    between atoms: C11_12  and  N1_13 
REMARK    5  A    between atoms: N1_13  and  C12_14 
REMARK    6  A    between atoms: C12_14  and  N2_15 
REMARK    7  A    between atoms: N2_15  and  C13_16 
ROOT
HETATM    1  C7  UNL     1      26.354   3.922  49.843  1.00  0.00     0.046 C 
HETATM    2  C8  UNL     1      25.163   4.542  49.871  1.00  0.00     0.032 C 
HETATM    3  C9  UNL     1      24.031   4.211  50.765  1.00  0.00     0.001 C 
HETATM    4  C10 UNL     1      23.746   3.104  51.478  1.00  0.00    -0.000 C 
HETATM    5  C11 UNL     1      24.662   1.973  51.419  1.00  0.00     0.125 C 
HETATM    6  C19 UNL     1      26.074   2.379  51.797  1.00  0.00     0.204 C 
HETATM    7  O1  UNL     1      26.772   2.844  50.647  1.00  0.00    -0.353 OA
ENDROOT
BRANCH   5   8
HETATM    8  N1  UNL     1      24.198   0.835  52.118  1.00  0.00    -0.397 N 
HETATM    9  H11 UNL     1      23.860   0.047  51.558  1.00  0.00     0.155 HD
BRANCH   8  10
HETATM   10  C12 UNL     1      24.791   0.531  53.371  1.00  0.00     0.238 C 
BRANCH  10  11
HETATM   11  N2  UNL     1      25.432  -0.760  53.466  1.00  0.00    -0.374 N 
HETATM   12  H14 UNL     1      24.995  -1.685  53.427  1.00  0.00     0.161 HD
BRANCH  11  13
HETATM   13  C13 UNL     1      26.865  -0.710  53.637  1.00  0.00     0.029 A 
HETATM   14  C14 UNL     1      27.736  -1.571  53.007  1.00  0.00     0.029 A 
HETATM   15  C15 UNL     1      29.099  -1.506  53.184  1.00  0.00     0.002 A 
HETATM   16  C16 UNL     1      29.644  -0.557  54.014  1.00  0.00     0.000 A 
HETATM   17  C17 UNL     1      28.816   0.329  54.669  1.00  0.00     0.002 A 
HETATM   18  C18 UNL     1      27.454   0.243  54.475  1.00  0.00     0.029 A 
ENDBRANCH  11  13
ENDBRANCH  10  11
ENDBRANCH   8  10
ENDBRANCH   5   8
BRANCH   1  19
HETATM   19  C6  UNL     1      27.379   4.367  48.895  1.00  0.00     0.069 C 
BRANCH  19  20
HETATM   20  C5  UNL     1      27.244   5.807  48.522  1.00  0.00     0.045 C 
BRANCH  20  21
HETATM   21  C4  UNL     1      28.577   6.346  48.072  1.00  0.00    -0.058 A 
HETATM   22  C3  UNL     1      28.798   7.673  47.726  1.00  0.00     0.010 A 
HETATM   23  C2  UNL     1      30.054   8.065  47.329  1.00  0.00     0.043 A 
HETATM   24  C1  UNL     1      31.123   7.196  47.255  1.00  0.00     0.116 A 
HETATM   25  F1  UNL     1      32.358   7.587  46.864  1.00  0.00    -0.206 F 
HETATM   26  C21 UNL     1      30.937   5.861  47.596  1.00  0.00     0.043 A 
HETATM   27  C20 UNL     1      29.680   5.498  47.986  1.00  0.00     0.010 A 
ENDBRANCH  20  21
ENDBRANCH  19  20
ENDBRANCH   1  19
TORSDOF 7
ENDMDL
