MODEL 1
REMARK VINA RESULT:      -7.3      0.000      0.000
REMARK  9 active torsions:
REMARK  status: ('A' for Active; 'I' for Inactive)
REMARK    1  A    between atoms: N1_2  and  C2_3 
REMARK    2  A    between atoms: C4_6  and  C5_7 
REMARK    3  A    between atoms: C6_8  and  C7_9 
REMARK    4  A    between atoms: C8_10  and  C9_11 
REMARK    5  A    between atoms: C8_10  and  C11_14 
REMARK    6  A    between atoms: C9_11  and  O1_12 
REMARK    7  A    between atoms: C11_14  and  C12_15 
REMARK    8  A    between atoms: C15_18  and  O2_19 
REMARK    9  A    between atoms: C19_23  and  N3_24 
ROOT
HETATM    1  C5  UNL     1      25.989   3.099  50.357  1.00  0.00     0.017 C 
HETATM    2  C6  UNL     1      26.646   2.299  51.174  1.00  0.00     0.001 C 
ENDROOT
BRANCH   2   3
HETATM    3  C7  UNL     1      26.010   1.074  51.634  1.00  0.00     0.005 C 
HETATM    4  C8  UNL     1      25.850   0.750  52.901  1.00  0.00    -0.052 C 
BRANCH   4   5
HETATM    5  C9  UNL     1      26.241   1.481  54.122  1.00  0.00     0.201 C 
BRANCH   5   6
HETATM    6  O1  UNL     1      26.965   0.647  54.978  1.00  0.00    -0.392 OA
HETATM    7  C10 UNL     1      28.295   0.715  54.600  1.00  0.00     0.201 C 
ENDBRANCH   5   6
ENDBRANCH   4   5
BRANCH   4   8
HETATM    8  C11 UNL     1      25.205  -0.517  53.312  1.00  0.00     0.074 C 
BRANCH   8   9
HETATM    9  C12 UNL     1      23.727  -0.438  53.381  1.00  0.00    -0.054 A 
HETATM   10  C13 UNL     1      23.109  -0.989  54.484  1.00  0.00     0.010 A 
HETATM   11  C14 UNL     1      21.742  -0.980  54.663  1.00  0.00     0.037 A 
HETATM   12  C15 UNL     1      20.931  -0.399  53.712  1.00  0.00     0.068 A 
HETATM   13  C17 UNL     1      21.527   0.162  52.594  1.00  0.00     0.037 A 
HETATM   14  C18 UNL     1      22.908   0.143  52.431  1.00  0.00     0.010 A 
BRANCH  12  15
HETATM   15  O2  UNL     1      19.549  -0.280  53.692  1.00  0.00    -0.356 OA
HETATM   16  C16 UNL     1      18.918  -0.176  52.431  1.00  0.00     0.210 C 
ENDBRANCH  12  15
ENDBRANCH   8   9
ENDBRANCH   4   8
ENDBRANCH   2   3
BRANCH   1  17
HETATM   17  C4  UNL     1      26.342   4.354  49.742  1.00  0.00     0.028 A 
HETATM   18  C3  UNL     1      27.394   4.508  48.840  1.00  0.00     0.151 A 
HETATM   19  N2  UNL     1      27.663   5.707  48.309  1.00  0.00    -0.074 NA
HETATM   20  C2  UNL     1      26.966   6.818  48.591  1.00  0.00     0.723 A 
HETATM   21  N4  UNL     1      25.949   6.693  49.457  1.00  0.00    -0.045 NA
HETATM   22  C19 UNL     1      25.634   5.502  50.023  1.00  0.00     0.152 A 
BRANCH  20  23
HETATM   23  N1  UNL     1      27.271   8.079  48.014  1.00  0.00    -0.227 N 
HETATM   24  C1  UNL     1      28.459   8.817  48.373  1.00  0.00     0.165 C 
HETATM   25  H4  UNL     1      26.633   8.492  47.316  1.00  0.00     0.177 HD
ENDBRANCH  20  23
BRANCH  22  26
HETATM   26  N3  UNL     1      24.534   5.572  50.905  1.00  0.00    -0.383 N 
HETATM   27  H23 UNL     1      23.903   4.764  50.805  1.00  0.00     0.157 HD
HETATM   28  H24 UNL     1      24.621   6.448  51.468  1.00  0.00     0.157 HD
ENDBRANCH  22  26
ENDBRANCH   1  17
TORSDOF 9
ENDMDL
MODEL 2
REMARK VINA RESULT:      -7.3      4.243      9.479
REMARK  9 active torsions:
REMARK  status: ('A' for Active; 'I' for Inactive)
REMARK    1  A    between atoms: N1_2  and  C2_3 
REMARK    2  A    between atoms: C4_6  and  C5_7 
REMARK    3  A    between atoms: C6_8  and  C7_9 
REMARK    4  A    between atoms: C8_10  and  C9_11 
REMARK    5  A    between atoms: C8_10  and  C11_14 
REMARK    6  A    between atoms: C9_11  and  O1_12 
REMARK    7  A    between atoms: C11_14  and  C12_15 
REMARK    8  A    between atoms: C15_18  and  O2_19 
REMARK    9  A    between atoms: C19_23  and  N3_24 
ROOT
HETATM    1  C5  UNL     1      26.777   2.790  51.181  1.00  0.00     0.017 C 
HETATM    2  C6  UNL     1      26.098   3.168  50.115  1.00  0.00     0.001 C 
ENDROOT
BRANCH   2   3
HETATM    3  C7  UNL     1      26.672   4.163  49.222  1.00  0.00     0.005 C 
HETATM    4  C8  UNL     1      26.234   5.400  49.110  1.00  0.00    -0.052 C 
BRANCH   4   5
HETATM    5  C9  UNL     1      25.121   6.079  49.803  1.00  0.00     0.201 C 
BRANCH   5   6
HETATM    6  O1  UNL     1      25.577   7.239  50.437  1.00  0.00    -0.392 OA
HETATM    7  C10 UNL     1      24.503   8.106  50.541  1.00  0.00     0.201 C 
ENDBRANCH   5   6
ENDBRANCH   4   5
BRANCH   4   8
HETATM    8  C11 UNL     1      26.850   6.369  48.175  1.00  0.00     0.074 C 
BRANCH   8   9
HETATM    9  C12 UNL     1      28.314   6.514  48.347  1.00  0.00    -0.054 A 
HETATM   10  C13 UNL     1      28.796   7.756  48.700  1.00  0.00     0.010 A 
HETATM   11  C14 UNL     1      30.137   8.018  48.888  1.00  0.00     0.037 A 
HETATM   12  C15 UNL     1      31.060   7.008  48.721  1.00  0.00     0.068 A 
HETATM   13  C17 UNL     1      30.603   5.750  48.366  1.00  0.00     0.037 A 
HETATM   14  C18 UNL     1      29.246   5.506  48.181  1.00  0.00     0.010 A 
BRANCH  12  15
HETATM   15  O2  UNL     1      32.440   7.051  48.858  1.00  0.00    -0.356 OA
HETATM   16  C16 UNL     1      33.143   5.825  48.807  1.00  0.00     0.210 C 
ENDBRANCH  12  15
ENDBRANCH   8   9
ENDBRANCH   4   8
ENDBRANCH   2   3
BRANCH   1  17
HETATM   17  C4  UNL     1      26.482   1.846  52.230  1.00  0.00     0.028 A 
HETATM   18  C3  UNL     1      25.494   0.867  52.138  1.00  0.00     0.151 A 
HETATM   19  N2  UNL     1      25.278   0.024  53.156  1.00  0.00    -0.074 NA
HETATM   20  C2  UNL     1      25.970   0.053  54.305  1.00  0.00     0.723 A 
HETATM   21  N4  UNL     1      26.926   0.987  54.415  1.00  0.00    -0.045 NA
HETATM   22  C19 UNL     1      27.186   1.864  53.414  1.00  0.00     0.152 A 
BRANCH  20  23
HETATM   23  N1  UNL     1      25.720  -0.853  55.370  1.00  0.00    -0.227 N 
HETATM   24  C1  UNL     1      24.382  -1.258  55.732  1.00  0.00     0.165 C 
HETATM   25  H4  UNL     1      26.510  -1.241  55.910  1.00  0.00     0.177 HD
ENDBRANCH  20  23
BRANCH  22  26
HETATM   26  N3  UNL     1      28.226   2.769  53.717  1.00  0.00    -0.383 N 
HETATM   27  H23 UNL     1      29.037   2.653  53.092  1.00  0.00     0.157 HD
HETATM   28  H24 UNL     1      27.923   3.360  54.524  1.00  0.00     0.157 HD
ENDBRANCH  22  26
ENDBRANCH   1  17
TORSDOF 9
ENDMDL
MODEL 3
REMARK VINA RESULT:      -7.2      5.540      8.991
REMARK  9 active torsions:
REMARK  status: ('A' for Active; 'I' for Inactive)
REMARK    1  A    between atoms: N1_2  and  C2_3 
REMARK    2  A    between atoms: C4_6  and  C5_7 
REMARK    3  A    between atoms: C6_8  and  C7_9 
REMARK    4  A    between atoms: C8_10  and  C9_11 
REMARK    5  A    between atoms: C8_10  and  C11_14 
REMARK    6  A    between atoms: C9_11  and  O1_12 
REMARK    7  A    between atoms: C11_14  and  C12_15 
REMARK    8  A    between atoms: C15_18  and  O2_19 
REMARK    9  A    between atoms: C19_23  and  N3_24 
ROOT
HETATM    1  C5  UNL     1      20.526   0.259  52.039  1.00  0.00     0.017 C 
HETATM    2  C6  UNL     1      21.513   0.575  52.855  1.00  0.00     0.001 C 
ENDROOT
BRANCH   2   3
HETATM    3  C7  UNL     1      22.852   0.753  52.317  1.00  0.00     0.005 C 
HETATM    4  C8  UNL     1      23.392   1.922  52.037  1.00  0.00    -0.052 C 
BRANCH   4   5
HETATM    5  C9  UNL     1      22.833   3.281  52.177  1.00  0.00     0.201 C 
BRANCH   5   6
HETATM    6  O1  UNL     1      22.020   3.588  51.081  1.00  0.00    -0.392 OA
HETATM    7  C10 UNL     1      20.848   4.136  51.572  1.00  0.00     0.201 C 
ENDBRANCH   5   6
ENDBRANCH   4   5
BRANCH   4   8
HETATM    8  C11 UNL     1      24.758   2.043  51.480  1.00  0.00     0.074 C 
BRANCH   8   9
HETATM    9  C12 UNL     1      25.786   1.319  52.263  1.00  0.00    -0.054 A 
HETATM   10  C13 UNL     1      26.130   1.833  53.495  1.00  0.00     0.010 A 
HETATM   11  C14 UNL     1      27.074   1.252  54.316  1.00  0.00     0.037 A 
HETATM   12  C15 UNL     1      27.718   0.103  53.910  1.00  0.00     0.068 A 
HETATM   13  C17 UNL     1      27.391  -0.435  52.676  1.00  0.00     0.037 A 
HETATM   14  C18 UNL     1      26.436   0.167  51.862  1.00  0.00     0.010 A 
BRANCH  12  15
HETATM   15  O2  UNL     1      28.688  -0.638  54.571  1.00  0.00    -0.356 OA
HETATM   16  C16 UNL     1      29.786  -1.105  53.812  1.00  0.00     0.210 C 
ENDBRANCH  12  15
ENDBRANCH   8   9
ENDBRANCH   4   8
ENDBRANCH   2   3
BRANCH   1  17
HETATM   17  C4  UNL     1      19.122   0.021  52.265  1.00  0.00     0.028 A 
HETATM   18  C3  UNL     1      18.104   0.654  51.553  1.00  0.00     0.151 A 
HETATM   19  N2  UNL     1      16.820   0.382  51.820  1.00  0.00    -0.074 NA
HETATM   20  C2  UNL     1      16.425  -0.491  52.759  1.00  0.00     0.723 A 
HETATM   21  N4  UNL     1      17.388  -1.112  53.455  1.00  0.00    -0.045 NA
HETATM   22  C19 UNL     1      18.703  -0.873  53.225  1.00  0.00     0.152 A 
BRANCH  20  23
HETATM   23  N1  UNL     1      15.056  -0.762  53.022  1.00  0.00    -0.227 N 
HETATM   24  C1  UNL     1      14.100   0.293  53.264  1.00  0.00     0.165 C 
HETATM   25  H4  UNL     1      14.721  -1.738  53.044  1.00  0.00     0.177 HD
ENDBRANCH  20  23
BRANCH  22  26
HETATM   26  N3  UNL     1      19.564  -1.621  54.057  1.00  0.00    -0.383 N 
HETATM   27  H23 UNL     1      19.269  -2.606  54.136  1.00  0.00     0.157 HD
HETATM   28  H24 UNL     1      20.316  -0.986  54.407  1.00  0.00     0.157 HD
ENDBRANCH  22  26
ENDBRANCH   1  17
TORSDOF 9
ENDMDL
MODEL 4
REMARK VINA RESULT:      -7.0      2.353      4.524
REMARK  9 active torsions:
REMARK  status: ('A' for Active; 'I' for Inactive)
REMARK    1  A    between atoms: N1_2  and  C2_3 
REMARK    2  A    between atoms: C4_6  and  C5_7 
REMARK    3  A    between atoms: C6_8  and  C7_9 
REMARK    4  A    between atoms: C8_10  and  C9_11 
REMARK    5  A    between atoms: C8_10  and  C11_14 
REMARK    6  A    between atoms: C9_11  and  O1_12 
REMARK    7  A    between atoms: C11_14  and  C12_15 
REMARK    8  A    between atoms: C15_18  and  O2_19 
REMARK    9  A    between atoms: C19_23  and  N3_24 
ROOT
HETATM    1  C5  UNL     1      25.766   5.060  49.665  1.00  0.00     0.017 C 
HETATM    2  C6  UNL     1      24.669   4.403  49.346  1.00  0.00     0.001 C 
ENDROOT
BRANCH   2   3
HETATM    3  C7  UNL     1      24.468   3.058  49.864  1.00  0.00     0.005 C 
HETATM    4  C8  UNL     1      24.083   2.785  51.094  1.00  0.00    -0.052 C 
BRANCH   4   5
HETATM    5  C9  UNL     1      23.772   3.697  52.213  1.00  0.00     0.201 C 
BRANCH   5   6
HETATM    6  O1  UNL     1      22.388   3.836  52.357  1.00  0.00    -0.392 OA
HETATM    7  C10 UNL     1      22.048   5.101  51.911  1.00  0.00     0.201 C 
ENDBRANCH   5   6
ENDBRANCH   4   5
BRANCH   4   8
HETATM    8  C11 UNL     1      23.905   1.396  51.571  1.00  0.00     0.074 C 
BRANCH   8   9
HETATM    9  C12 UNL     1      25.071   0.869  52.319  1.00  0.00    -0.054 A 
HETATM   10  C13 UNL     1      24.831   0.276  53.540  1.00  0.00     0.010 A 
HETATM   11  C14 UNL     1      25.831  -0.250  54.331  1.00  0.00     0.037 A 
HETATM   12  C15 UNL     1      27.140  -0.195  53.903  1.00  0.00     0.068 A 
HETATM   13  C17 UNL     1      27.409   0.395  52.679  1.00  0.00     0.037 A 
HETATM   14  C18 UNL     1      26.386   0.921  51.896  1.00  0.00     0.010 A 
BRANCH  12  15
HETATM   15  O2  UNL     1      28.288  -0.658  54.532  1.00  0.00    -0.356 OA
HETATM   16  C16 UNL     1      29.399  -0.974  53.716  1.00  0.00     0.210 C 
ENDBRANCH  12  15
ENDBRANCH   8   9
ENDBRANCH   4   8
ENDBRANCH   2   3
BRANCH   1  17
HETATM   17  C4  UNL     1      26.241   6.376  49.318  1.00  0.00     0.028 A 
HETATM   18  C3  UNL     1      27.041   6.645  48.207  1.00  0.00     0.151 A 
HETATM   19  N2  UNL     1      27.444   7.895  47.949  1.00  0.00    -0.074 NA
HETATM   20  C2  UNL     1      27.123   8.952  48.709  1.00  0.00     0.723 A 
HETATM   21  N4  UNL     1      26.355   8.717  49.783  1.00  0.00    -0.045 NA
HETATM   22  C19 UNL     1      25.919   7.470  50.090  1.00  0.00     0.152 A 
BRANCH  20  23
HETATM   23  N1  UNL     1      27.564  10.269  48.412  1.00  0.00    -0.227 N 
HETATM   24  C1  UNL     1      26.643  11.376  48.297  1.00  0.00     0.165 C 
HETATM   25  H4  UNL     1      28.569  10.454  48.272  1.00  0.00     0.177 HD
ENDBRANCH  20  23
BRANCH  22  26
HETATM   26  N3  UNL     1      25.123   7.425  51.256  1.00  0.00    -0.383 N 
HETATM   27  H23 UNL     1      25.606   6.961  52.039  1.00  0.00     0.157 HD
HETATM   28  H24 UNL     1      24.208   7.884  51.046  1.00  0.00     0.157 HD
ENDBRANCH  22  26
ENDBRANCH   1  17
TORSDOF 9
ENDMDL
MODEL 5
REMARK VINA RESULT:      -7.0      3.638      5.486
REMARK  9 active torsions:
REMARK  status: ('A' for Active; 'I' for Inactive)
REMARK    1  A    between atoms: N1_2  and  C2_3 
REMARK    2  A    between atoms: C4_6  and  C5_7 
REMARK    3  A    between atoms: C6_8  and  C7_9 
REMARK    4  A    between atoms: C8_10  and  C9_11 
REMARK    5  A    between atoms: C8_10  and  C11_14 
REMARK    6  A    between atoms: C9_11  and  O1_12 
REMARK    7  A    between atoms: C11_14  and  C12_15 
REMARK    8  A    between atoms: C15_18  and  O2_19 
REMARK    9  A    between atoms: C19_23  and  N3_24 
ROOT
HETATM    1  C5  UNL     1      28.322   5.476  48.475  1.00  0.00     0.017 C 
HETATM    2  C6  UNL     1      27.033   5.416  48.746  1.00  0.00     0.001 C 
ENDROOT
BRANCH   2   3
HETATM    3  C7  UNL     1      26.467   4.172  49.243  1.00  0.00     0.005 C 
HETATM    4  C8  UNL     1      25.242   4.048  49.713  1.00  0.00    -0.052 C 
BRANCH   4   5
HETATM    5  C9  UNL     1      24.177   5.059  49.858  1.00  0.00     0.201 C 
BRANCH   5   6
HETATM    6  O1  UNL     1      24.220   5.632  51.132  1.00  0.00    -0.392 OA
HETATM    7  C10 UNL     1      24.429   6.991  50.971  1.00  0.00     0.201 C 
ENDBRANCH   5   6
ENDBRANCH   4   5
BRANCH   4   8
HETATM    8  C11 UNL     1      24.722   2.757  50.217  1.00  0.00     0.074 C 
BRANCH   8   9
HETATM    9  C12 UNL     1      25.379   2.295  51.462  1.00  0.00    -0.054 A 
HETATM   10  C13 UNL     1      26.421   1.401  51.340  1.00  0.00     0.010 A 
HETATM   11  C14 UNL     1      27.111   0.897  52.422  1.00  0.00     0.037 A 
HETATM   12  C15 UNL     1      26.764   1.289  53.697  1.00  0.00     0.068 A 
HETATM   13  C17 UNL     1      25.719   2.187  53.848  1.00  0.00     0.037 A 
HETATM   14  C18 UNL     1      25.035   2.684  52.743  1.00  0.00     0.010 A 
BRANCH  12  15
HETATM   15  O2  UNL     1      27.318   0.911  54.912  1.00  0.00    -0.356 OA
HETATM   16  C16 UNL     1      28.552   0.222  54.883  1.00  0.00     0.210 C 
ENDBRANCH  12  15
ENDBRANCH   8   9
ENDBRANCH   4   8
ENDBRANCH   2   3
BRANCH   1  17
HETATM   17  C4  UNL     1      29.158   6.541  47.980  1.00  0.00     0.028 A 
HETATM   18  C3  UNL     1      28.808   7.373  46.916  1.00  0.00     0.151 A 
HETATM   19  N2  UNL     1      29.637   8.342  46.512  1.00  0.00    -0.074 NA
HETATM   20  C2  UNL     1      30.830   8.584  47.077  1.00  0.00     0.723 A 
HETATM   21  N4  UNL     1      31.187   7.796  48.101  1.00  0.00    -0.045 NA
HETATM   22  C19 UNL     1      30.384   6.800  48.551  1.00  0.00     0.152 A 
BRANCH  20  23
HETATM   23  N1  UNL     1      31.691   9.620  46.628  1.00  0.00    -0.227 N 
HETATM   24  C1  UNL     1      31.360  11.016  46.794  1.00  0.00     0.165 C 
HETATM   25  H4  UNL     1      32.584   9.382  46.168  1.00  0.00     0.177 HD
ENDBRANCH  20  23
BRANCH  22  26
HETATM   26  N3  UNL     1      30.934   6.082  49.635  1.00  0.00    -0.383 N 
HETATM   27  H23 UNL     1      31.940   6.270  49.756  1.00  0.00     0.157 HD
HETATM   28  H24 UNL     1      30.173   5.515  50.073  1.00  0.00     0.157 HD
ENDBRANCH  22  26
ENDBRANCH   1  17
TORSDOF 9
ENDMDL
MODEL 6
REMARK VINA RESULT:      -6.9      3.119      5.723
REMARK  9 active torsions:
REMARK  status: ('A' for Active; 'I' for Inactive)
REMARK    1  A    between atoms: N1_2  and  C2_3 
REMARK    2  A    between atoms: C4_6  and  C5_7 
REMARK    3  A    between atoms: C6_8  and  C7_9 
REMARK    4  A    between atoms: C8_10  and  C9_11 
REMARK    5  A    between atoms: C8_10  and  C11_14 
REMARK    6  A    between atoms: C9_11  and  O1_12 
REMARK    7  A    between atoms: C11_14  and  C12_15 
REMARK    8  A    between atoms: C15_18  and  O2_19 
REMARK    9  A    between atoms: C19_23  and  N3_24 
ROOT
HETATM    1  C5  UNL     1      22.870   3.494  51.209  1.00  0.00     0.017 C 
HETATM    2  C6  UNL     1      22.454   2.616  52.101  1.00  0.00     0.001 C 
ENDROOT
BRANCH   2   3
HETATM    3  C7  UNL     1      23.192   1.375  52.277  1.00  0.00     0.005 C 
HETATM    4  C8  UNL     1      22.836   0.409  53.099  1.00  0.00    -0.052 C 
BRANCH   4   5
HETATM    5  C9  UNL     1      21.676   0.318  54.008  1.00  0.00     0.201 C 
BRANCH   5   6
HETATM    6  O1  UNL     1      20.793  -0.675  53.572  1.00  0.00    -0.392 OA
HETATM    7  C10 UNL     1      19.835  -0.064  52.783  1.00  0.00     0.201 C 
ENDBRANCH   5   6
ENDBRANCH   4   5
BRANCH   4   8
HETATM    8  C11 UNL     1      23.632  -0.830  53.246  1.00  0.00     0.074 C 
BRANCH   8   9
HETATM    9  C12 UNL     1      25.073  -0.586  53.493  1.00  0.00    -0.054 A 
HETATM   10  C13 UNL     1      25.431  -0.049  54.711  1.00  0.00     0.010 A 
HETATM   11  C14 UNL     1      26.737   0.225  55.059  1.00  0.00     0.037 A 
HETATM   12  C15 UNL     1      27.752  -0.041  54.165  1.00  0.00     0.068 A 
HETATM   13  C17 UNL     1      27.420  -0.581  52.933  1.00  0.00     0.037 A 
HETATM   14  C18 UNL     1      26.096  -0.850  52.601  1.00  0.00     0.010 A 
BRANCH  12  15
HETATM   15  O2  UNL     1      29.118   0.154  54.307  1.00  0.00    -0.356 OA
HETATM   16  C16 UNL     1      29.980  -0.666  53.543  1.00  0.00     0.210 C 
ENDBRANCH  12  15
ENDBRANCH   8   9
ENDBRANCH   4   8
ENDBRANCH   2   3
BRANCH   1  17
HETATM   17  C4  UNL     1      22.364   4.785  50.812  1.00  0.00     0.028 A 
HETATM   18  C3  UNL     1      21.267   4.962  49.970  1.00  0.00     0.151 A 
HETATM   19  N2  UNL     1      20.854   6.193  49.645  1.00  0.00    -0.074 NA
HETATM   20  C2  UNL     1      21.441   7.315  50.087  1.00  0.00     0.723 A 
HETATM   21  N4  UNL     1      22.499   7.168  50.899  1.00  0.00    -0.045 NA
HETATM   22  C19 UNL     1      22.957   5.944  51.260  1.00  0.00     0.152 A 
BRANCH  20  23
HETATM   23  N1  UNL     1      20.983   8.610  49.728  1.00  0.00    -0.227 N 
HETATM   24  C1  UNL     1      19.649   9.066  50.045  1.00  0.00     0.165 C 
HETATM   25  H4  UNL     1      21.611   9.256  49.224  1.00  0.00     0.177 HD
ENDBRANCH  20  23
BRANCH  22  26
HETATM   26  N3  UNL     1      24.077   5.994  52.118  1.00  0.00    -0.383 N 
HETATM   27  H23 UNL     1      23.854   5.661  53.068  1.00  0.00     0.157 HD
HETATM   28  H24 UNL     1      24.889   6.367  51.577  1.00  0.00     0.157 HD
ENDBRANCH  22  26
ENDBRANCH   1  17
TORSDOF 9
ENDMDL
MODEL 7
REMARK VINA RESULT:      -6.8      2.288      5.050
REMARK  9 active torsions:
REMARK  status: ('A' for Active; 'I' for Inactive)
REMARK    1  A    between atoms: N1_2  and  C2_3 
REMARK    2  A    between atoms: C4_6  and  C5_7 
REMARK    3  A    between atoms: C6_8  and  C7_9 
REMARK    4  A    between atoms: C8_10  and  C9_11 
REMARK    5  A    between atoms: C8_10  and  C11_14 
REMARK    6  A    between atoms: C9_11  and  O1_12 
REMARK    7  A    between atoms: C11_14  and  C12_15 
REMARK    8  A    between atoms: C15_18  and  O2_19 
REMARK    9  A    between atoms: C19_23  and  N3_24 
ROOT
HETATM    1  C5  UNL     1      24.175   3.163  49.985  1.00  0.00     0.017 C 
HETATM    2  C6  UNL     1      23.589   2.742  51.089  1.00  0.00     0.001 C 
ENDROOT
BRANCH   2   3
HETATM    3  C7  UNL     1      24.028   1.496  51.697  1.00  0.00     0.005 C 
HETATM    4  C8  UNL     1      23.300   0.777  52.527  1.00  0.00    -0.052 C 
BRANCH   4   5
HETATM    5  C9  UNL     1      21.935   1.015  53.039  1.00  0.00     0.201 C 
BRANCH   5   6
HETATM    6  O1  UNL     1      21.029   0.137  52.435  1.00  0.00    -0.392 OA
HETATM    7  C10 UNL     1      20.041  -0.144  53.362  1.00  0.00     0.201 C 
ENDBRANCH   5   6
ENDBRANCH   4   5
BRANCH   4   8
HETATM    8  C11 UNL     1      23.801  -0.480  53.126  1.00  0.00     0.074 C 
BRANCH   8   9
HETATM    9  C12 UNL     1      25.248  -0.451  53.448  1.00  0.00    -0.054 A 
HETATM   10  C13 UNL     1      25.632   0.197  54.602  1.00  0.00     0.010 A 
HETATM   11  C14 UNL     1      26.946   0.294  55.010  1.00  0.00     0.037 A 
HETATM   12  C15 UNL     1      27.941  -0.275  54.245  1.00  0.00     0.068 A 
HETATM   13  C17 UNL     1      27.583  -0.932  53.079  1.00  0.00     0.037 A 
HETATM   14  C18 UNL     1      26.251  -1.019  52.686  1.00  0.00     0.010 A 
BRANCH  12  15
HETATM   15  O2  UNL     1      29.312  -0.296  54.466  1.00  0.00    -0.356 OA
HETATM   16  C16 UNL     1      30.123  -0.917  53.488  1.00  0.00     0.210 C 
ENDBRANCH  12  15
ENDBRANCH   8   9
ENDBRANCH   4   8
ENDBRANCH   2   3
BRANCH   1  17
HETATM   17  C4  UNL     1      23.969   4.331  49.165  1.00  0.00     0.028 A 
HETATM   18  C3  UNL     1      22.940   4.451  48.231  1.00  0.00     0.151 A 
HETATM   19  N2  UNL     1      22.811   5.568  47.505  1.00  0.00    -0.074 NA
HETATM   20  C2  UNL     1      23.632   6.624  47.613  1.00  0.00     0.723 A 
HETATM   21  N4  UNL     1      24.628   6.530  48.505  1.00  0.00    -0.045 NA
HETATM   22  C19 UNL     1      24.803   5.422  49.267  1.00  0.00     0.152 A 
BRANCH  20  23
HETATM   23  N1  UNL     1      23.473   7.798  46.830  1.00  0.00    -0.227 N 
HETATM   24  C1  UNL     1      23.700   7.803  45.403  1.00  0.00     0.165 C 
HETATM   25  H4  UNL     1      23.188   8.682  47.281  1.00  0.00     0.177 HD
ENDBRANCH  20  23
BRANCH  22  26
HETATM   26  N3  UNL     1      25.904   5.513  50.146  1.00  0.00    -0.383 N 
HETATM   27  H23 UNL     1      25.745   4.996  51.023  1.00  0.00     0.157 HD
HETATM   28  H24 UNL     1      26.642   6.096  49.690  1.00  0.00     0.157 HD
ENDBRANCH  22  26
ENDBRANCH   1  17
TORSDOF 9
ENDMDL
MODEL 8
REMARK VINA RESULT:      -6.8      4.236      6.634
REMARK  9 active torsions:
REMARK  status: ('A' for Active; 'I' for Inactive)
REMARK    1  A    between atoms: N1_2  and  C2_3 
REMARK    2  A    between atoms: C4_6  and  C5_7 
REMARK    3  A    between atoms: C6_8  and  C7_9 
REMARK    4  A    between atoms: C8_10  and  C9_11 
REMARK    5  A    between atoms: C8_10  and  C11_14 
REMARK    6  A    between atoms: C9_11  and  O1_12 
REMARK    7  A    between atoms: C11_14  and  C12_15 
REMARK    8  A    between atoms: C15_18  and  O2_19 
REMARK    9  A    between atoms: C19_23  and  N3_24 
ROOT
HETATM    1  C5  UNL     1      23.569   0.642  53.237  1.00  0.00     0.017 C 
HETATM    2  C6  UNL     1      22.628  -0.204  52.865  1.00  0.00     0.001 C 
ENDROOT
BRANCH   2   3
HETATM    3  C7  UNL     1      21.281   0.289  52.626  1.00  0.00     0.005 C 
HETATM    4  C8  UNL     1      20.804   0.602  51.438  1.00  0.00    -0.052 C 
BRANCH   4   5
HETATM    5  C9  UNL     1      21.452   0.546  50.113  1.00  0.00     0.201 C 
BRANCH   5   6
HETATM    6  O1  UNL     1      21.588   1.833  49.583  1.00  0.00    -0.392 OA
HETATM    7  C10 UNL     1      22.856   2.284  49.903  1.00  0.00     0.201 C 
ENDBRANCH   5   6
ENDBRANCH   4   5
BRANCH   4   8
HETATM    8  C11 UNL     1      19.427   1.111  51.254  1.00  0.00     0.074 C 
BRANCH   8   9
HETATM    9  C12 UNL     1      18.376   0.129  51.610  1.00  0.00    -0.054 A 
HETATM   10  C13 UNL     1      17.300   0.006  50.756  1.00  0.00     0.010 A 
HETATM   11  C14 UNL     1      16.259  -0.870  50.978  1.00  0.00     0.037 A 
HETATM   12  C15 UNL     1      16.269  -1.674  52.098  1.00  0.00     0.068 A 
HETATM   13  C17 UNL     1      17.339  -1.571  52.973  1.00  0.00     0.037 A 
HETATM   14  C18 UNL     1      18.380  -0.680  52.731  1.00  0.00     0.010 A 
BRANCH  12  15
HETATM   15  O2  UNL     1      15.336  -2.614  52.511  1.00  0.00    -0.356 OA
HETATM   16  C16 UNL     1      14.410  -3.083  51.551  1.00  0.00     0.210 C 
ENDBRANCH  12  15
ENDBRANCH   8   9
ENDBRANCH   4   8
ENDBRANCH   2   3
BRANCH   1  17
HETATM   17  C4  UNL     1      24.966   0.462  53.542  1.00  0.00     0.028 A 
HETATM   18  C3  UNL     1      25.574  -0.785  53.691  1.00  0.00     0.151 A 
HETATM   19  N2  UNL     1      26.879  -0.874  53.975  1.00  0.00    -0.074 NA
HETATM   20  C2  UNL     1      27.679   0.191  54.134  1.00  0.00     0.723 A 
HETATM   21  N4  UNL     1      27.115   1.400  53.996  1.00  0.00    -0.045 NA
HETATM   22  C19 UNL     1      25.799   1.546  53.708  1.00  0.00     0.152 A 
BRANCH  20  23
HETATM   23  N1  UNL     1      29.061   0.070  54.435  1.00  0.00    -0.227 N 
HETATM   24  C1  UNL     1      29.937  -0.793  53.677  1.00  0.00     0.165 C 
HETATM   25  H4  UNL     1      29.466   0.608  55.218  1.00  0.00     0.177 HD
ENDBRANCH  20  23
BRANCH  22  26
HETATM   26  N3  UNL     1      25.393   2.894  53.602  1.00  0.00    -0.383 N 
HETATM   27  H23 UNL     1      26.167   3.512  53.316  1.00  0.00     0.157 HD
HETATM   28  H24 UNL     1      24.378   2.952  53.843  1.00  0.00     0.157 HD
ENDBRANCH  22  26
ENDBRANCH   1  17
TORSDOF 9
ENDMDL
MODEL 9
REMARK VINA RESULT:      -6.7      4.357      6.634
REMARK  9 active torsions:
REMARK  status: ('A' for Active; 'I' for Inactive)
REMARK    1  A    between atoms: N1_2  and  C2_3 
REMARK    2  A    between atoms: C4_6  and  C5_7 
REMARK    3  A    between atoms: C6_8  and  C7_9 
REMARK    4  A    between atoms: C8_10  and  C9_11 
REMARK    5  A    between atoms: C8_10  and  C11_14 
REMARK    6  A    between atoms: C9_11  and  O1_12 
REMARK    7  A    between atoms: C11_14  and  C12_15 
REMARK    8  A    between atoms: C15_18  and  O2_19 
REMARK    9  A    between atoms: C19_23  and  N3_24 
ROOT
HETATM    1  C5  UNL     1      23.354   0.636  52.360  1.00  0.00     0.017 C 
HETATM    2  C6  UNL     1      22.265  -0.096  52.491  1.00  0.00     0.001 C 
ENDROOT
BRANCH   2   3
HETATM    3  C7  UNL     1      21.126   0.159  51.624  1.00  0.00     0.005 C 
HETATM    4  C8  UNL     1      20.235   1.108  51.828  1.00  0.00    -0.052 C 
BRANCH   4   5
HETATM    5  C9  UNL     1      20.144   2.105  52.913  1.00  0.00     0.201 C 
BRANCH   5   6
HETATM    6  O1  UNL     1      20.003   3.391  52.382  1.00  0.00    -0.392 OA
HETATM    7  C10 UNL     1      21.273   3.887  52.149  1.00  0.00     0.201 C 
ENDBRANCH   5   6
ENDBRANCH   4   5
BRANCH   4   8
HETATM    8  C11 UNL     1      19.087   1.317  50.916  1.00  0.00     0.074 C 
BRANCH   8   9
HETATM    9  C12 UNL     1      17.789   0.881  51.484  1.00  0.00    -0.054 A 
HETATM   10  C13 UNL     1      17.696  -0.415  51.942  1.00  0.00     0.010 A 
HETATM   11  C14 UNL     1      16.543  -0.938  52.490  1.00  0.00     0.037 A 
HETATM   12  C15 UNL     1      15.418  -0.150  52.595  1.00  0.00     0.068 A 
HETATM   13  C17 UNL     1      15.485   1.157  52.141  1.00  0.00     0.037 A 
HETATM   14  C18 UNL     1      16.657   1.667  51.592  1.00  0.00     0.010 A 
BRANCH  12  15
HETATM   15  O2  UNL     1      14.168  -0.470  53.107  1.00  0.00    -0.356 OA
HETATM   16  C16 UNL     1      13.349   0.594  53.550  1.00  0.00     0.210 C 
ENDBRANCH  12  15
ENDBRANCH   8   9
ENDBRANCH   4   8
ENDBRANCH   2   3
BRANCH   1  17
HETATM   17  C4  UNL     1      24.618   0.624  53.054  1.00  0.00     0.028 A 
HETATM   18  C3  UNL     1      25.288  -0.541  53.426  1.00  0.00     0.151 A 
HETATM   19  N2  UNL     1      26.459  -0.473  54.070  1.00  0.00    -0.074 NA
HETATM   20  C2  UNL     1      27.062   0.680  54.398  1.00  0.00     0.723 A 
HETATM   21  N4  UNL     1      26.434   1.813  54.050  1.00  0.00    -0.045 NA
HETATM   22  C19 UNL     1      25.246   1.800  53.396  1.00  0.00     0.152 A 
BRANCH  20  23
HETATM   23  N1  UNL     1      28.305   0.725  55.082  1.00  0.00    -0.227 N 
HETATM   24  C1  UNL     1      29.454   1.411  54.536  1.00  0.00     0.165 C 
HETATM   25  H4  UNL     1      28.406   0.258  55.996  1.00  0.00     0.177 HD
ENDBRANCH  20  23
BRANCH  22  26
HETATM   26  N3  UNL     1      24.745   3.091  53.116  1.00  0.00    -0.383 N 
HETATM   27  H23 UNL     1      24.097   3.091  52.315  1.00  0.00     0.157 HD
HETATM   28  H24 UNL     1      25.158   3.760  53.805  1.00  0.00     0.157 HD
ENDBRANCH  22  26
ENDBRANCH   1  17
TORSDOF 9
ENDMDL
