MODEL 1
REMARK VINA RESULT:      -9.2      0.000      0.000
REMARK  3 active torsions:
REMARK  status: ('A' for Active; 'I' for Inactive)
REMARK    1  A    between atoms: C1_2  and  C2_5 
REMARK    2  A    between atoms: C6_9  and  N1_10 
REMARK    3  A    between atoms: N1_10  and  C7_11 
ROOT
HETATM    1  C7  UNL     1      28.046   8.158  48.180  1.00  0.00     0.144 A 
HETATM    2  N2  UNL     1      27.119   9.141  48.255  1.00  0.00    -0.223 NA
HETATM    3  C8  UNL     1      27.434  10.320  48.809  1.00  0.00     0.236 A 
HETATM    4  N3  UNL     1      28.678  10.493  49.281  1.00  0.00    -0.241 NA
HETATM    5  C9  UNL     1      29.622   9.527  49.220  1.00  0.00     0.073 A 
HETATM    6  C10 UNL     1      29.331   8.281  48.647  1.00  0.00     0.071 A 
HETATM    7  C11 UNL     1      30.464   7.583  48.711  1.00  0.00     0.095 A 
HETATM    8  O1  UNL     1      30.597   6.317  48.207  1.00  0.00    -0.349 OA
HETATM    9  C12 UNL     1      31.592   5.370  48.518  1.00  0.00     0.201 C 
HETATM   10  C13 UNL     1      31.757   4.339  47.428  1.00  0.00     0.197 C 
HETATM   11  O2  UNL     1      32.108   4.813  46.199  1.00  0.00    -0.363 OA
HETATM   12  C14 UNL     1      33.325   5.480  46.114  1.00  0.00     0.242 C 
HETATM   13  C15 UNL     1      34.466   4.530  45.820  1.00  0.00     0.221 C 
HETATM   14  O3  UNL     1      34.879   4.694  44.518  1.00  0.00    -0.385 OA
HETATM   15  C16 UNL     1      33.823   4.777  43.614  1.00  0.00     0.187 C 
HETATM   16  C17 UNL     1      33.106   6.116  43.838  1.00  0.00     0.145 C 
HETATM   17  N4  UNL     1      33.314   6.517  45.168  1.00  0.00    -0.384 N 
HETATM   18  C18 UNL     1      34.017   7.721  45.417  1.00  0.00     0.121 C 
HETATM   19  C19 UNL     1      34.095   8.095  46.863  1.00  0.00     0.046 C 
HETATM   20  C20 UNL     1      32.634   8.253  47.327  1.00  0.00     0.170 C 
HETATM   21  O4  UNL     1      32.670   8.324  48.673  1.00  0.00    -0.375 OA
HETATM   22  C21 UNL     1      31.550   8.368  49.406  1.00  0.00     0.204 A 
HETATM   23  C22 UNL     1      30.887   9.637  49.664  1.00  0.00     0.044 A 
ENDROOT
BRANCH   1  24
HETATM   24  N1  UNL     1      27.786   6.849  47.627  1.00  0.00    -0.340 N 
HETATM   25  H4  UNL     1      28.043   6.433  46.709  1.00  0.00     0.167 HD
BRANCH  24  26
HETATM   26  C6  UNL     1      27.053   6.010  48.509  1.00  0.00     0.034 A 
HETATM   27  C5  UNL     1      27.405   4.671  48.734  1.00  0.00     0.029 A 
HETATM   28  C4  UNL     1      26.744   3.822  49.589  1.00  0.00     0.003 A 
HETATM   29  C3  UNL     1      25.644   4.307  50.293  1.00  0.00     0.016 A 
HETATM   30  C2  UNL     1      25.236   5.603  50.127  1.00  0.00     0.050 A 
HETATM   31  C23 UNL     1      25.958   6.373  49.253  1.00  0.00     0.045 A 
BRANCH  30  32
HETATM   32  C1  UNL     1      24.067   6.113  50.890  1.00  0.00     0.417 C 
HETATM   33  F1  UNL     1      22.882   5.986  50.189  1.00  0.00    -0.166 F 
HETATM   34  F2  UNL     1      23.905   5.365  52.060  1.00  0.00    -0.166 F 
HETATM   35  F3  UNL     1      24.269   7.428  51.266  1.00  0.00    -0.166 F 
ENDBRANCH  30  32
ENDBRANCH  24  26
ENDBRANCH   1  24
TORSDOF 3
ENDMDL
MODEL 2
REMARK VINA RESULT:      -9.2      6.613     10.385
REMARK  3 active torsions:
REMARK  status: ('A' for Active; 'I' for Inactive)
REMARK    1  A    between atoms: C1_2  and  C2_5 
REMARK    2  A    between atoms: C6_9  and  N1_10 
REMARK    3  A    between atoms: N1_10  and  C7_11 
ROOT
HETATM    1  C7  UNL     1      25.385   4.693  49.409  1.00  0.00     0.144 A 
HETATM    2  N2  UNL     1      26.336   5.611  49.706  1.00  0.00    -0.223 NA
HETATM    3  C8  UNL     1      26.077   6.917  49.554  1.00  0.00     0.236 A 
HETATM    4  N3  UNL     1      24.867   7.282  49.106  1.00  0.00    -0.241 NA
HETATM    5  C9  UNL     1      23.901   6.386  48.801  1.00  0.00     0.073 A 
HETATM    6  C10 UNL     1      24.133   5.011  48.948  1.00  0.00     0.071 A 
HETATM    7  C11 UNL     1      22.991   4.415  48.604  1.00  0.00     0.095 A 
HETATM    8  O1  UNL     1      22.803   3.061  48.658  1.00  0.00    -0.349 OA
HETATM    9  C12 UNL     1      21.809   2.305  48.007  1.00  0.00     0.201 C 
HETATM   10  C13 UNL     1      21.560   0.982  48.690  1.00  0.00     0.197 C 
HETATM   11  O2  UNL     1      21.149   1.042  49.988  1.00  0.00    -0.363 OA
HETATM   12  C14 UNL     1      19.942   1.692  50.228  1.00  0.00     0.242 C 
HETATM   13  C15 UNL     1      18.767   0.742  50.140  1.00  0.00     0.221 C 
HETATM   14  O3  UNL     1      18.283   0.488  51.403  1.00  0.00    -0.385 OA
HETATM   15  C16 UNL     1      19.287   0.231  52.333  1.00  0.00     0.187 C 
HETATM   16  C17 UNL     1      20.043   1.542  52.595  1.00  0.00     0.145 C 
HETATM   17  N4  UNL     1      19.920   2.362  51.461  1.00  0.00    -0.384 N 
HETATM   18  C18 UNL     1      19.257   3.608  51.587  1.00  0.00     0.121 C 
HETATM   19  C19 UNL     1      19.271   4.435  50.342  1.00  0.00     0.046 C 
HETATM   20  C20 UNL     1      20.759   4.680  50.026  1.00  0.00     0.170 C 
HETATM   21  O4  UNL     1      20.803   5.187  48.777  1.00  0.00    -0.375 OA
HETATM   22  C21 UNL     1      21.963   5.426  48.153  1.00  0.00     0.204 A 
HETATM   23  C22 UNL     1      22.666   6.683  48.358  1.00  0.00     0.044 A 
ENDROOT
BRANCH   1  24
HETATM   24  N1  UNL     1      25.587   3.267  49.514  1.00  0.00    -0.340 N 
HETATM   25  H4  UNL     1      25.693   2.537  48.781  1.00  0.00     0.167 HD
BRANCH  24  26
HETATM   26  C6  UNL     1      25.645   2.812  50.860  1.00  0.00     0.034 A 
HETATM   27  C5  UNL     1      24.491   2.607  51.631  1.00  0.00     0.029 A 
HETATM   28  C4  UNL     1      24.488   2.151  52.927  1.00  0.00     0.003 A 
HETATM   29  C3  UNL     1      25.709   1.865  53.536  1.00  0.00     0.016 A 
HETATM   30  C2  UNL     1      26.880   2.040  52.850  1.00  0.00     0.050 A 
HETATM   31  C23 UNL     1      26.781   2.499  51.563  1.00  0.00     0.045 A 
BRANCH  30  32
HETATM   32  C1  UNL     1      28.175   1.723  53.506  1.00  0.00     0.417 C 
HETATM   33  F1  UNL     1      28.894   2.858  53.833  1.00  0.00    -0.166 F 
HETATM   34  F2  UNL     1      27.942   1.053  54.711  1.00  0.00    -0.166 F 
HETATM   35  F3  UNL     1      28.930   0.884  52.708  1.00  0.00    -0.166 F 
ENDBRANCH  30  32
ENDBRANCH  24  26
ENDBRANCH   1  24
TORSDOF 3
ENDMDL
MODEL 3
REMARK VINA RESULT:      -8.9      2.155      2.918
REMARK  3 active torsions:
REMARK  status: ('A' for Active; 'I' for Inactive)
REMARK    1  A    between atoms: C1_2  and  C2_5 
REMARK    2  A    between atoms: C6_9  and  N1_10 
REMARK    3  A    between atoms: N1_10  and  C7_11 
ROOT
HETATM    1  C7  UNL     1      27.099   7.420  47.881  1.00  0.00     0.144 A 
HETATM    2  N2  UNL     1      25.888   7.671  47.332  1.00  0.00    -0.223 NA
HETATM    3  C8  UNL     1      25.772   8.573  46.347  1.00  0.00     0.236 A 
HETATM    4  N3  UNL     1      26.876   9.211  45.930  1.00  0.00    -0.241 NA
HETATM    5  C9  UNL     1      28.097   8.980  46.463  1.00  0.00     0.073 A 
HETATM    6  C10 UNL     1      28.259   8.042  47.494  1.00  0.00     0.071 A 
HETATM    7  C11 UNL     1      29.563   8.028  47.764  1.00  0.00     0.095 A 
HETATM    8  O1  UNL     1      30.130   7.198  48.694  1.00  0.00    -0.349 OA
HETATM    9  C12 UNL     1      31.390   7.331  49.309  1.00  0.00     0.201 C 
HETATM   10  C13 UNL     1      31.907   6.015  49.838  1.00  0.00     0.197 C 
HETATM   11  O2  UNL     1      32.078   5.023  48.919  1.00  0.00    -0.363 OA
HETATM   12  C14 UNL     1      32.989   5.270  47.898  1.00  0.00     0.242 C 
HETATM   13  C15 UNL     1      34.389   4.843  48.279  1.00  0.00     0.221 C 
HETATM   14  O3  UNL     1      34.726   3.698  47.594  1.00  0.00    -0.385 OA
HETATM   15  C16 UNL     1      33.710   2.745  47.588  1.00  0.00     0.187 C 
HETATM   16  C17 UNL     1      32.573   3.265  46.697  1.00  0.00     0.145 C 
HETATM   17  N4  UNL     1      32.622   4.669  46.683  1.00  0.00    -0.384 N 
HETATM   18  C18 UNL     1      32.863   5.332  45.455  1.00  0.00     0.121 C 
HETATM   19  C19 UNL     1      32.799   6.823  45.542  1.00  0.00     0.046 C 
HETATM   20  C20 UNL     1      31.373   7.147  46.025  1.00  0.00     0.170 C 
HETATM   21  O4  UNL     1      31.375   8.452  46.367  1.00  0.00    -0.375 OA
HETATM   22  C21 UNL     1      30.307   9.037  46.922  1.00  0.00     0.204 A 
HETATM   23  C22 UNL     1      29.243   9.574  46.087  1.00  0.00     0.044 A 
ENDROOT
BRANCH   1  24
HETATM   24  N1  UNL     1      27.311   6.487  48.964  1.00  0.00    -0.340 N 
HETATM   25  H4  UNL     1      28.184   6.056  49.331  1.00  0.00     0.167 HD
BRANCH  24  26
HETATM   26  C6  UNL     1      26.107   6.114  49.620  1.00  0.00     0.034 A 
HETATM   27  C5  UNL     1      25.409   6.994  50.460  1.00  0.00     0.029 A 
HETATM   28  C4  UNL     1      24.232   6.692  51.102  1.00  0.00     0.003 A 
HETATM   29  C3  UNL     1      23.676   5.427  50.917  1.00  0.00     0.016 A 
HETATM   30  C2  UNL     1      24.298   4.512  50.113  1.00  0.00     0.050 A 
HETATM   31  C23 UNL     1      25.467   4.905  49.515  1.00  0.00     0.045 A 
BRANCH  30  32
HETATM   32  C1  UNL     1      23.691   3.170  49.914  1.00  0.00     0.417 C 
HETATM   33  F1  UNL     1      24.261   2.207  50.727  1.00  0.00    -0.166 F 
HETATM   34  F2  UNL     1      22.336   3.209  50.255  1.00  0.00    -0.166 F 
HETATM   35  F3  UNL     1      23.772   2.792  48.587  1.00  0.00    -0.166 F 
ENDBRANCH  30  32
ENDBRANCH  24  26
ENDBRANCH   1  24
TORSDOF 3
ENDMDL
MODEL 4
REMARK VINA RESULT:      -8.9      2.227      3.090
REMARK  3 active torsions:
REMARK  status: ('A' for Active; 'I' for Inactive)
REMARK    1  A    between atoms: C1_2  and  C2_5 
REMARK    2  A    between atoms: C6_9  and  N1_10 
REMARK    3  A    between atoms: N1_10  and  C7_11 
ROOT
HETATM    1  C7  UNL     1      29.261   9.603  47.214  1.00  0.00     0.144 A 
HETATM    2  N2  UNL     1      28.158  10.244  46.761  1.00  0.00    -0.223 NA
HETATM    3  C8  UNL     1      28.181  10.859  45.571  1.00  0.00     0.236 A 
HETATM    4  N3  UNL     1      29.314  10.821  44.853  1.00  0.00    -0.241 NA
HETATM    5  C9  UNL     1      30.429  10.189  45.283  1.00  0.00     0.073 A 
HETATM    6  C10 UNL     1      30.443   9.533  46.522  1.00  0.00     0.071 A 
HETATM    7  C11 UNL     1      31.657   8.993  46.629  1.00  0.00     0.095 A 
HETATM    8  O1  UNL     1      32.049   8.225  47.692  1.00  0.00    -0.349 OA
HETATM    9  C12 UNL     1      33.363   7.909  48.085  1.00  0.00     0.201 C 
HETATM   10  C13 UNL     1      33.422   6.655  48.922  1.00  0.00     0.197 C 
HETATM   11  O2  UNL     1      32.957   5.516  48.334  1.00  0.00    -0.363 OA
HETATM   12  C14 UNL     1      33.618   5.094  47.186  1.00  0.00     0.242 C 
HETATM   13  C15 UNL     1      34.778   4.178  47.511  1.00  0.00     0.221 C 
HETATM   14  O3  UNL     1      34.455   2.885  47.170  1.00  0.00    -0.385 OA
HETATM   15  C16 UNL     1      33.173   2.516  47.573  1.00  0.00     0.187 C 
HETATM   16  C17 UNL     1      32.162   3.282  46.707  1.00  0.00     0.145 C 
HETATM   17  N4  UNL     1      32.764   4.471  46.262  1.00  0.00    -0.384 N 
HETATM   18  C18 UNL     1      32.949   4.664  44.872  1.00  0.00     0.121 C 
HETATM   19  C19 UNL     1      33.509   6.002  44.510  1.00  0.00     0.046 C 
HETATM   20  C20 UNL     1      32.491   7.032  45.037  1.00  0.00     0.170 C 
HETATM   21  O4  UNL     1      33.097   8.235  44.965  1.00  0.00    -0.375 OA
HETATM   22  C21 UNL     1      32.517   9.345  45.438  1.00  0.00     0.204 A 
HETATM   23  C22 UNL     1      31.592  10.104  44.612  1.00  0.00     0.044 A 
ENDROOT
BRANCH   1  24
HETATM   24  N1  UNL     1      29.334   8.939  48.495  1.00  0.00    -0.340 N 
HETATM   25  H4  UNL     1      29.739   9.250  49.402  1.00  0.00     0.167 HD
BRANCH  24  26
HETATM   26  C6  UNL     1      28.746   7.646  48.485  1.00  0.00     0.034 A 
HETATM   27  C5  UNL     1      29.500   6.482  48.279  1.00  0.00     0.029 A 
HETATM   28  C4  UNL     1      28.987   5.207  48.279  1.00  0.00     0.003 A 
HETATM   29  C3  UNL     1      27.621   5.038  48.498  1.00  0.00     0.016 A 
HETATM   30  C2  UNL     1      26.816   6.125  48.706  1.00  0.00     0.050 A 
HETATM   31  C23 UNL     1      27.419   7.356  48.688  1.00  0.00     0.045 A 
BRANCH  30  32
HETATM   32  C1  UNL     1      25.362   5.933  48.949  1.00  0.00     0.417 C 
HETATM   33  F1  UNL     1      24.998   4.600  48.949  1.00  0.00    -0.166 F 
HETATM   34  F2  UNL     1      25.026   6.425  50.214  1.00  0.00    -0.166 F 
HETATM   35  F3  UNL     1      24.618   6.638  48.021  1.00  0.00    -0.166 F 
ENDBRANCH  30  32
ENDBRANCH  24  26
ENDBRANCH   1  24
TORSDOF 3
ENDMDL
MODEL 5
REMARK VINA RESULT:      -8.9      8.108     12.386
REMARK  3 active torsions:
REMARK  status: ('A' for Active; 'I' for Inactive)
REMARK    1  A    between atoms: C1_2  and  C2_5 
REMARK    2  A    between atoms: C6_9  and  N1_10 
REMARK    3  A    between atoms: N1_10  and  C7_11 
ROOT
HETATM    1  C7  UNL     1      23.273   3.448  51.233  1.00  0.00     0.144 A 
HETATM    2  N2  UNL     1      24.377   4.230  51.178  1.00  0.00    -0.223 NA
HETATM    3  C8  UNL     1      24.837   4.658  49.994  1.00  0.00     0.236 A 
HETATM    4  N3  UNL     1      24.181   4.293  48.882  1.00  0.00    -0.241 NA
HETATM    5  C9  UNL     1      23.077   3.512  48.910  1.00  0.00     0.073 A 
HETATM    6  C10 UNL     1      22.565   3.045  50.129  1.00  0.00     0.071 A 
HETATM    7  C11 UNL     1      21.475   2.347  49.815  1.00  0.00     0.095 A 
HETATM    8  O1  UNL     1      20.662   1.761  50.748  1.00  0.00    -0.349 OA
HETATM    9  C12 UNL     1      19.721   0.734  50.544  1.00  0.00     0.201 C 
HETATM   10  C13 UNL     1      18.659   0.712  51.617  1.00  0.00     0.197 C 
HETATM   11  O2  UNL     1      17.909   1.843  51.744  1.00  0.00    -0.363 OA
HETATM   12  C14 UNL     1      17.154   2.217  50.636  1.00  0.00     0.242 C 
HETATM   13  C15 UNL     1      15.781   1.580  50.652  1.00  0.00     0.221 C 
HETATM   14  O3  UNL     1      14.836   2.529  50.964  1.00  0.00    -0.385 OA
HETATM   15  C16 UNL     1      15.210   3.347  52.028  1.00  0.00     0.187 C 
HETATM   16  C17 UNL     1      16.354   4.255  51.552  1.00  0.00     0.145 C 
HETATM   17  N4  UNL     1      17.031   3.609  50.505  1.00  0.00    -0.384 N 
HETATM   18  C18 UNL     1      17.040   4.211  49.223  1.00  0.00     0.121 C 
HETATM   19  C19 UNL     1      17.869   3.485  48.213  1.00  0.00     0.046 C 
HETATM   20  C20 UNL     1      19.301   3.479  48.782  1.00  0.00     0.170 C 
HETATM   21  O4  UNL     1      20.004   2.608  48.030  1.00  0.00    -0.375 OA
HETATM   22  C21 UNL     1      21.273   2.291  48.320  1.00  0.00     0.204 A 
HETATM   23  C22 UNL     1      22.368   3.118  47.837  1.00  0.00     0.044 A 
ENDROOT
BRANCH   1  24
HETATM   24  N1  UNL     1      22.725   2.918  52.460  1.00  0.00    -0.340 N 
HETATM   25  H4  UNL     1      21.998   3.295  53.101  1.00  0.00     0.167 HD
BRANCH  24  26
HETATM   26  C6  UNL     1      23.294   1.669  52.828  1.00  0.00     0.034 A 
HETATM   27  C5  UNL     1      22.542   0.655  53.439  1.00  0.00     0.029 A 
HETATM   28  C4  UNL     1      23.036  -0.577  53.798  1.00  0.00     0.003 A 
HETATM   29  C3  UNL     1      24.378  -0.857  53.543  1.00  0.00     0.016 A 
HETATM   30  C2  UNL     1      25.178   0.081  52.951  1.00  0.00     0.050 A 
HETATM   31  C23 UNL     1      24.596   1.280  52.630  1.00  0.00     0.045 A 
BRANCH  30  32
HETATM   32  C1  UNL     1      26.605  -0.232  52.675  1.00  0.00     0.417 C 
HETATM   33  F1  UNL     1      27.336  -0.426  53.832  1.00  0.00    -0.166 F 
HETATM   34  F2  UNL     1      26.695  -1.428  51.956  1.00  0.00    -0.166 F 
HETATM   35  F3  UNL     1      27.178   0.759  51.900  1.00  0.00    -0.166 F 
ENDBRANCH  30  32
ENDBRANCH  24  26
ENDBRANCH   1  24
TORSDOF 3
ENDMDL
MODEL 6
REMARK VINA RESULT:      -8.8      8.198     12.430
REMARK  3 active torsions:
REMARK  status: ('A' for Active; 'I' for Inactive)
REMARK    1  A    between atoms: C1_2  and  C2_5 
REMARK    2  A    between atoms: C6_9  and  N1_10 
REMARK    3  A    between atoms: N1_10  and  C7_11 
ROOT
HETATM    1  C7  UNL     1      23.286   3.609  51.088  1.00  0.00     0.144 A 
HETATM    2  N2  UNL     1      24.367   4.418  50.984  1.00  0.00    -0.223 NA
HETATM    3  C8  UNL     1      24.807   4.797  49.777  1.00  0.00     0.236 A 
HETATM    4  N3  UNL     1      24.153   4.359  48.691  1.00  0.00    -0.241 NA
HETATM    5  C9  UNL     1      23.072   3.550  48.767  1.00  0.00     0.073 A 
HETATM    6  C10 UNL     1      22.582   3.132  50.013  1.00  0.00     0.071 A 
HETATM    7  C11 UNL     1      21.509   2.389  49.744  1.00  0.00     0.095 A 
HETATM    8  O1  UNL     1      20.719   1.829  50.713  1.00  0.00    -0.349 OA
HETATM    9  C12 UNL     1      19.806   0.767  50.569  1.00  0.00     0.201 C 
HETATM   10  C13 UNL     1      18.753   0.771  51.651  1.00  0.00     0.197 C 
HETATM   11  O2  UNL     1      17.972   1.886  51.726  1.00  0.00    -0.363 OA
HETATM   12  C14 UNL     1      17.200   2.182  50.608  1.00  0.00     0.242 C 
HETATM   13  C15 UNL     1      15.845   1.510  50.668  1.00  0.00     0.221 C 
HETATM   14  O3  UNL     1      14.876   2.447  50.939  1.00  0.00    -0.385 OA
HETATM   15  C16 UNL     1      15.235   3.328  51.957  1.00  0.00     0.187 C 
HETATM   16  C17 UNL     1      16.350   4.242  51.426  1.00  0.00     0.145 C 
HETATM   17  N4  UNL     1      17.037   3.562  50.407  1.00  0.00    -0.384 N 
HETATM   18  C18 UNL     1      17.020   4.098  49.096  1.00  0.00     0.121 C 
HETATM   19  C19 UNL     1      17.862   3.344  48.117  1.00  0.00     0.046 C 
HETATM   20  C20 UNL     1      19.297   3.407  48.674  1.00  0.00     0.170 C 
HETATM   21  O4  UNL     1      20.019   2.518  47.961  1.00  0.00    -0.375 OA
HETATM   22  C21 UNL     1      21.298   2.252  48.255  1.00  0.00     0.204 A 
HETATM   23  C22 UNL     1      22.366   3.082  47.722  1.00  0.00     0.044 A 
ENDROOT
BRANCH   1  24
HETATM   24  N1  UNL     1      22.762   3.128  52.346  1.00  0.00    -0.340 N 
HETATM   25  H4  UNL     1      22.074   3.548  53.003  1.00  0.00     0.167 HD
BRANCH  24  26
HETATM   26  C6  UNL     1      23.294   1.865  52.721  1.00  0.00     0.034 A 
HETATM   27  C5  UNL     1      24.606   1.481  52.406  1.00  0.00     0.029 A 
HETATM   28  C4  UNL     1      25.176   0.282  52.761  1.00  0.00     0.003 A 
HETATM   29  C3  UNL     1      24.413  -0.631  53.487  1.00  0.00     0.016 A 
HETATM   30  C2  UNL     1      23.123  -0.331  53.832  1.00  0.00     0.050 A 
HETATM   31  C23 UNL     1      22.642   0.889  53.433  1.00  0.00     0.045 A 
BRANCH  30  32
HETATM   32  C1  UNL     1      22.321  -1.307  54.615  1.00  0.00     0.417 C 
HETATM   33  F1  UNL     1      23.046  -1.882  55.643  1.00  0.00    -0.166 F 
HETATM   34  F2  UNL     1      21.243  -0.654  55.221  1.00  0.00    -0.166 F 
HETATM   35  F3  UNL     1      21.799  -2.282  53.786  1.00  0.00    -0.166 F 
ENDBRANCH  30  32
ENDBRANCH  24  26
ENDBRANCH   1  24
TORSDOF 3
ENDMDL
MODEL 7
REMARK VINA RESULT:      -8.8      5.321      8.752
REMARK  3 active torsions:
REMARK  status: ('A' for Active; 'I' for Inactive)
REMARK    1  A    between atoms: C1_2  and  C2_5 
REMARK    2  A    between atoms: C6_9  and  N1_10 
REMARK    3  A    between atoms: N1_10  and  C7_11 
ROOT
HETATM    1  C7  UNL     1      22.612   2.579  50.073  1.00  0.00     0.144 A 
HETATM    2  N2  UNL     1      22.257   1.328  49.698  1.00  0.00    -0.223 NA
HETATM    3  C8  UNL     1      21.391   1.151  48.690  1.00  0.00     0.236 A 
HETATM    4  N3  UNL     1      20.895   2.235  48.075  1.00  0.00    -0.241 NA
HETATM    5  C9  UNL     1      21.233   3.495  48.431  1.00  0.00     0.073 A 
HETATM    6  C10 UNL     1      22.136   3.721  49.480  1.00  0.00     0.071 A 
HETATM    7  C11 UNL     1      22.279   5.044  49.552  1.00  0.00     0.095 A 
HETATM    8  O1  UNL     1      23.123   5.663  50.434  1.00  0.00    -0.349 OA
HETATM    9  C12 UNL     1      23.100   7.010  50.843  1.00  0.00     0.201 C 
HETATM   10  C13 UNL     1      24.439   7.469  51.366  1.00  0.00     0.197 C 
HETATM   11  O2  UNL     1      25.484   7.395  50.493  1.00  0.00    -0.363 OA
HETATM   12  C14 UNL     1      25.380   8.156  49.333  1.00  0.00     0.242 C 
HETATM   13  C15 UNL     1      25.939   9.550  49.525  1.00  0.00     0.221 C 
HETATM   14  O3  UNL     1      27.142   9.660  48.867  1.00  0.00    -0.385 OA
HETATM   15  C16 UNL     1      27.980   8.566  49.070  1.00  0.00     0.187 C 
HETATM   16  C17 UNL     1      27.380   7.361  48.331  1.00  0.00     0.145 C 
HETATM   17  N4  UNL     1      25.991   7.547  48.225  1.00  0.00    -0.384 N 
HETATM   18  C18 UNL     1      25.413   7.659  46.937  1.00  0.00     0.121 C 
HETATM   19  C19 UNL     1      23.921   7.758  46.945  1.00  0.00     0.046 C 
HETATM   20  C20 UNL     1      23.424   6.463  47.616  1.00  0.00     0.170 C 
HETATM   21  O4  UNL     1      22.114   6.649  47.875  1.00  0.00    -0.375 OA
HETATM   22  C21 UNL     1      21.393   5.743  48.548  1.00  0.00     0.204 A 
HETATM   23  C22 UNL     1      20.782   4.622  47.852  1.00  0.00     0.044 A 
ENDROOT
BRANCH   1  24
HETATM   24  N1  UNL     1      23.514   2.864  51.165  1.00  0.00    -0.340 N 
HETATM   25  H4  UNL     1      23.980   3.748  51.452  1.00  0.00     0.167 HD
BRANCH  24  26
HETATM   26  C6  UNL     1      23.794   1.723  51.966  1.00  0.00     0.034 A 
HETATM   27  C5  UNL     1      25.064   1.129  52.004  1.00  0.00     0.029 A 
HETATM   28  C4  UNL     1      25.393   0.039  52.774  1.00  0.00     0.003 A 
HETATM   29  C3  UNL     1      24.410  -0.530  53.581  1.00  0.00     0.016 A 
HETATM   30  C2  UNL     1      23.145  -0.009  53.598  1.00  0.00     0.050 A 
HETATM   31  C23 UNL     1      22.912   1.079  52.797  1.00  0.00     0.045 A 
BRANCH  30  32
HETATM   32  C1  UNL     1      22.106  -0.617  54.470  1.00  0.00     0.417 C 
HETATM   33  F1  UNL     1      21.495  -1.708  53.881  1.00  0.00    -0.166 F 
HETATM   34  F2  UNL     1      22.696  -1.093  55.645  1.00  0.00    -0.166 F 
HETATM   35  F3  UNL     1      21.165   0.328  54.835  1.00  0.00    -0.166 F 
ENDBRANCH  30  32
ENDBRANCH  24  26
ENDBRANCH   1  24
TORSDOF 3
ENDMDL
MODEL 8
REMARK VINA RESULT:      -8.4      6.120      8.992
REMARK  3 active torsions:
REMARK  status: ('A' for Active; 'I' for Inactive)
REMARK    1  A    between atoms: C1_2  and  C2_5 
REMARK    2  A    between atoms: C6_9  and  N1_10 
REMARK    3  A    between atoms: N1_10  and  C7_11 
ROOT
HETATM    1  C7  UNL     1      24.129   2.876  52.621  1.00  0.00     0.144 A 
HETATM    2  N2  UNL     1      24.660   2.409  53.776  1.00  0.00    -0.223 NA
HETATM    3  C8  UNL     1      25.956   2.074  53.830  1.00  0.00     0.236 A 
HETATM    4  N3  UNL     1      26.700   2.211  52.722  1.00  0.00    -0.241 NA
HETATM    5  C9  UNL     1      26.194   2.674  51.557  1.00  0.00     0.073 A 
HETATM    6  C10 UNL     1      24.842   3.036  51.461  1.00  0.00     0.071 A 
HETATM    7  C11 UNL     1      24.676   3.476  50.214  1.00  0.00     0.095 A 
HETATM    8  O1  UNL     1      23.489   3.966  49.740  1.00  0.00    -0.349 OA
HETATM    9  C12 UNL     1      23.098   4.119  48.397  1.00  0.00     0.201 C 
HETATM   10  C13 UNL     1      22.009   5.152  48.234  1.00  0.00     0.197 C 
HETATM   11  O2  UNL     1      22.310   6.415  48.649  1.00  0.00    -0.363 OA
HETATM   12  C14 UNL     1      23.367   7.046  48.002  1.00  0.00     0.242 C 
HETATM   13  C15 UNL     1      22.903   7.806  46.779  1.00  0.00     0.221 C 
HETATM   14  O3  UNL     1      22.935   9.158  47.034  1.00  0.00    -0.385 OA
HETATM   15  C16 UNL     1      22.402   9.494  48.276  1.00  0.00     0.187 C 
HETATM   16  C17 UNL     1      23.367   8.993  49.361  1.00  0.00     0.145 C 
HETATM   17  N4  UNL     1      24.090   7.903  48.848  1.00  0.00    -0.384 N 
HETATM   18  C18 UNL     1      25.496   8.014  48.722  1.00  0.00     0.121 C 
HETATM   19  C19 UNL     1      26.168   6.763  48.256  1.00  0.00     0.046 C 
HETATM   20  C20 UNL     1      25.835   5.695  49.316  1.00  0.00     0.170 C 
HETATM   21  O4  UNL     1      26.198   4.509  48.788  1.00  0.00    -0.375 OA
HETATM   22  C21 UNL     1      25.953   3.353  49.417  1.00  0.00     0.204 A 
HETATM   23  C22 UNL     1      26.883   2.845  50.415  1.00  0.00     0.044 A 
ENDROOT
BRANCH   1  24
HETATM   24  N1  UNL     1      22.738   3.233  52.465  1.00  0.00    -0.340 N 
HETATM   25  H4  UNL     1      22.269   4.162  52.459  1.00  0.00     0.167 HD
BRANCH  24  26
HETATM   26  C6  UNL     1      21.891   2.105  52.291  1.00  0.00     0.034 A 
HETATM   27  C5  UNL     1      21.062   1.958  51.169  1.00  0.00     0.029 A 
HETATM   28  C4  UNL     1      20.240   0.880  50.941  1.00  0.00     0.003 A 
HETATM   29  C3  UNL     1      20.214  -0.150  51.880  1.00  0.00     0.016 A 
HETATM   30  C2  UNL     1      20.993  -0.079  53.002  1.00  0.00     0.050 A 
HETATM   31  C23 UNL     1      21.780   1.034  53.142  1.00  0.00     0.045 A 
BRANCH  30  32
HETATM   32  C1  UNL     1      20.966  -1.188  53.992  1.00  0.00     0.417 C 
HETATM   33  F1  UNL     1      19.757  -1.859  54.000  1.00  0.00    -0.166 F 
HETATM   34  F2  UNL     1      21.934  -2.141  53.659  1.00  0.00    -0.166 F 
HETATM   35  F3  UNL     1      21.268  -0.718  55.256  1.00  0.00    -0.166 F 
ENDBRANCH  30  32
ENDBRANCH  24  26
ENDBRANCH   1  24
TORSDOF 3
ENDMDL
MODEL 9
REMARK VINA RESULT:      -8.3      8.209     11.745
REMARK  3 active torsions:
REMARK  status: ('A' for Active; 'I' for Inactive)
REMARK    1  A    between atoms: C1_2  and  C2_5 
REMARK    2  A    between atoms: C6_9  and  N1_10 
REMARK    3  A    between atoms: N1_10  and  C7_11 
ROOT
HETATM    1  C7  UNL     1      18.957   0.048  51.623  1.00  0.00     0.144 A 
HETATM    2  N2  UNL     1      18.141  -0.623  52.470  1.00  0.00    -0.223 NA
HETATM    3  C8  UNL     1      18.649  -1.223  53.555  1.00  0.00     0.236 A 
HETATM    4  N3  UNL     1      19.970  -1.140  53.773  1.00  0.00    -0.241 NA
HETATM    5  C9  UNL     1      20.806  -0.478  52.943  1.00  0.00     0.073 A 
HETATM    6  C10 UNL     1      20.312   0.164  51.797  1.00  0.00     0.071 A 
HETATM    7  C11 UNL     1      21.369   0.741  51.226  1.00  0.00     0.095 A 
HETATM    8  O1  UNL     1      21.287   1.509  50.095  1.00  0.00    -0.349 OA
HETATM    9  C12 UNL     1      22.332   1.863  49.221  1.00  0.00     0.201 C 
HETATM   10  C13 UNL     1      22.016   3.108  48.430  1.00  0.00     0.197 C 
HETATM   11  O2  UNL     1      21.779   4.238  49.154  1.00  0.00    -0.363 OA
HETATM   12  C14 UNL     1      22.821   4.694  49.954  1.00  0.00     0.242 C 
HETATM   13  C15 UNL     1      23.730   5.643  49.203  1.00  0.00     0.221 C 
HETATM   14  O3  UNL     1      23.522   6.929  49.645  1.00  0.00    -0.385 OA
HETATM   15  C16 UNL     1      22.173   7.252  49.776  1.00  0.00     0.187 C 
HETATM   16  C17 UNL     1      21.607   6.464  50.967  1.00  0.00     0.145 C 
HETATM   17  N4  UNL     1      22.375   5.301  51.139  1.00  0.00    -0.384 N 
HETATM   18  C18 UNL     1      23.095   5.130  52.346  1.00  0.00     0.121 C 
HETATM   19  C19 UNL     1      23.798   3.815  52.457  1.00  0.00     0.046 C 
HETATM   20  C20 UNL     1      22.691   2.747  52.369  1.00  0.00     0.170 C 
HETATM   21  O4  UNL     1      23.317   1.565  52.196  1.00  0.00    -0.375 OA
HETATM   22  C21 UNL     1      22.637   0.431  51.985  1.00  0.00     0.204 A 
HETATM   23  C22 UNL     1      22.135  -0.348  53.106  1.00  0.00     0.044 A 
ENDROOT
BRANCH   1  24
HETATM   24  N1  UNL     1      18.501   0.698  50.416  1.00  0.00    -0.340 N 
HETATM   25  H4  UNL     1      18.561   0.406  49.420  1.00  0.00     0.167 HD
BRANCH  24  26
HETATM   26  C6  UNL     1      17.868   1.947  50.663  1.00  0.00     0.034 A 
HETATM   27  C5  UNL     1      18.275   3.130  50.031  1.00  0.00     0.029 A 
HETATM   28  C4  UNL     1      17.687   4.358  50.218  1.00  0.00     0.003 A 
HETATM   29  C3  UNL     1      16.607   4.455  51.093  1.00  0.00     0.016 A 
HETATM   30  C2  UNL     1      16.151   3.345  51.750  1.00  0.00     0.050 A 
HETATM   31  C23 UNL     1      16.802   2.164  51.499  1.00  0.00     0.045 A 
BRANCH  30  32
HETATM   32  C1  UNL     1      14.993   3.456  52.674  1.00  0.00     0.417 C 
HETATM   33  F1  UNL     1      13.846   3.888  52.034  1.00  0.00    -0.166 F 
HETATM   34  F2  UNL     1      14.688   2.199  53.204  1.00  0.00    -0.166 F 
HETATM   35  F3  UNL     1      15.297   4.288  53.736  1.00  0.00    -0.166 F 
ENDBRANCH  30  32
ENDBRANCH  24  26
ENDBRANCH   1  24
TORSDOF 3
ENDMDL
