MODEL 1
REMARK VINA RESULT:      -8.5      0.000      0.000
REMARK  5 active torsions:
REMARK  status: ('A' for Active; 'I' for Inactive)
REMARK    1  A    between atoms: C4_6  and  C5_7 
REMARK       I    between atoms: C5_7  and  N2_9 
REMARK    2  A    between atoms: N2_9  and  C6_10 
REMARK    3  A    between atoms: C7_11  and  C8_12 
REMARK    4  A    between atoms: C12_17  and  N4_18 
REMARK    5  A    between atoms: N4_18  and  C13_19 
ROOT
HETATM    1  C8  UNL     1      25.373   3.825  50.632  1.00  0.00    -0.015 A 
HETATM    2  C9  UNL     1      24.653   4.924  50.510  1.00  0.00     0.012 A 
HETATM    3  C10 UNL     1      23.690   5.305  51.533  1.00  0.00     0.017 A 
HETATM    4  C11 UNL     1      23.510   4.563  52.612  1.00  0.00     0.085 A 
HETATM    5  N3  UNL     1      24.306   3.391  52.702  1.00  0.00    -0.374 N 
HETATM    6  C12 UNL     1      25.291   2.879  51.773  1.00  0.00     0.215 A 
HETATM    7  H15 UNL     1      24.108   2.855  53.600  1.00  0.00     0.161 HD
ENDROOT
BRANCH   1   8
HETATM    8  C7  UNL     1      26.321   3.489  49.584  1.00  0.00     0.028 C 
HETATM    9  C6  UNL     1      27.198   4.258  48.967  1.00  0.00     0.092 C 
BRANCH   9  10
HETATM   10  N2  UNL     1      27.638   5.608  48.972  1.00  0.00    -0.333 N 
HETATM   11  C5  UNL     1      26.946   6.734  48.393  1.00  0.00     0.281 C 
HETATM   12  O2  UNL     1      25.827   6.730  47.774  1.00  0.00    -0.268 OA
HETATM   13  H9  UNL     1      28.553   5.935  49.407  1.00  0.00     0.168 HD
BRANCH  11  14
HETATM   14  C4  UNL     1      27.441   8.114  48.428  1.00  0.00     0.452 C 
HETATM   15  N1  UNL     1      27.400   8.752  49.711  1.00  0.00     0.124 N 
HETATM   16  C1  UNL     1      26.215   9.539  49.953  1.00  0.00     0.314 C 
HETATM   17  C2  UNL     1      28.608   9.529  49.784  1.00  0.00     0.302 C 
HETATM   18  C3  UNL     1      29.554   8.660  48.947  1.00  0.00     0.201 C 
HETATM   19  O1  UNL     1      28.761   8.076  47.992  1.00  0.00    -0.348 OA
ENDBRANCH  11  14
ENDBRANCH   9  10
ENDBRANCH   1   8
BRANCH   6  20
HETATM   20  N4  UNL     1      26.557   2.760  52.465  1.00  0.00    -0.365 N 
HETATM   21  H17 UNL     1      26.973   3.686  52.771  1.00  0.00     0.162 HD
BRANCH  20  22
HETATM   22  C13 UNL     1      27.389   1.649  52.837  1.00  0.00     0.031 A 
HETATM   23  C14 UNL     1      28.630   1.794  53.446  1.00  0.00     0.032 A 
HETATM   24  C15 UNL     1      29.306   0.629  53.722  1.00  0.00     0.046 A 
HETATM   25  C16 UNL     1      28.845  -0.637  53.439  1.00  0.00     0.138 A 
HETATM   26  F1  UNL     1      29.611  -1.705  53.764  1.00  0.00    -0.204 F 
HETATM   27  C17 UNL     1      27.611  -0.751  52.834  1.00  0.00     0.074 A 
HETATM   28 CL1  UNL     1      27.087  -2.391  52.504  1.00  0.00    -0.081 Cl
HETATM   29  C18 UNL     1      26.900   0.394  52.540  1.00  0.00     0.056 A 
ENDBRANCH  20  22
ENDBRANCH   6  20
TORSDOF 5
ENDMDL
MODEL 2
REMARK VINA RESULT:      -8.5      4.422      6.447
REMARK  5 active torsions:
REMARK  status: ('A' for Active; 'I' for Inactive)
REMARK    1  A    between atoms: C4_6  and  C5_7 
REMARK       I    between atoms: C5_7  and  N2_9 
REMARK    2  A    between atoms: N2_9  and  C6_10 
REMARK    3  A    between atoms: C7_11  and  C8_12 
REMARK    4  A    between atoms: C12_17  and  N4_18 
REMARK    5  A    between atoms: N4_18  and  C13_19 
ROOT
HETATM    1  C8  UNL     1      23.754   3.900  50.237  1.00  0.00    -0.015 A 
HETATM    2  C9  UNL     1      23.849   4.923  51.063  1.00  0.00     0.012 A 
HETATM    3  C10 UNL     1      22.675   5.446  51.745  1.00  0.00     0.017 A 
HETATM    4  C11 UNL     1      21.481   4.912  51.557  1.00  0.00     0.085 A 
HETATM    5  N3  UNL     1      21.425   3.811  50.661  1.00  0.00    -0.374 N 
HETATM    6  C12 UNL     1      22.494   3.188  49.909  1.00  0.00     0.215 A 
HETATM    7  H15 UNL     1      20.434   3.434  50.571  1.00  0.00     0.161 HD
ENDROOT
BRANCH   1   8
HETATM    8  C7  UNL     1      24.956   3.413  49.582  1.00  0.00     0.028 C 
HETATM    9  C6  UNL     1      26.101   3.021  50.110  1.00  0.00     0.092 C 
BRANCH   9  10
HETATM   10  N2  UNL     1      26.703   2.876  51.387  1.00  0.00    -0.333 N 
HETATM   11  C5  UNL     1      26.980   1.631  52.064  1.00  0.00     0.281 C 
HETATM   12  O2  UNL     1      26.738   0.446  51.651  1.00  0.00    -0.268 OA
HETATM   13  H9  UNL     1      27.010   3.692  51.998  1.00  0.00     0.168 HD
BRANCH  11  14
HETATM   14  C4  UNL     1      27.608   1.533  53.385  1.00  0.00     0.452 C 
HETATM   15  N1  UNL     1      27.392   0.298  54.081  1.00  0.00     0.124 N 
HETATM   16  C1  UNL     1      26.276   0.311  54.996  1.00  0.00     0.314 C 
HETATM   17  C2  UNL     1      28.641   0.009  54.732  1.00  0.00     0.302 C 
HETATM   18  C3  UNL     1      29.629   0.625  53.733  1.00  0.00     0.201 C 
HETATM   19  O1  UNL     1      28.975   1.702  53.193  1.00  0.00    -0.348 OA
ENDBRANCH  11  14
ENDBRANCH   9  10
ENDBRANCH   1   8
BRANCH   6  20
HETATM   20  N4  UNL     1      22.554   1.788  50.273  1.00  0.00    -0.365 N 
HETATM   21  H17 UNL     1      22.829   1.144  49.477  1.00  0.00     0.162 HD
BRANCH  20  22
HETATM   22  C13 UNL     1      22.321   1.064  51.492  1.00  0.00     0.031 A 
HETATM   23  C14 UNL     1      23.310   0.819  52.437  1.00  0.00     0.032 A 
HETATM   24  C15 UNL     1      22.924   0.097  53.541  1.00  0.00     0.046 A 
HETATM   25  C16 UNL     1      21.654  -0.386  53.763  1.00  0.00     0.138 A 
HETATM   26  F1  UNL     1      21.403  -1.085  54.895  1.00  0.00    -0.204 F 
HETATM   27  C17 UNL     1      20.692  -0.129  52.808  1.00  0.00     0.074 A 
HETATM   28 CL1  UNL     1      19.100  -0.773  53.157  1.00  0.00    -0.081 Cl
HETATM   29  C18 UNL     1      21.039   0.592  51.684  1.00  0.00     0.056 A 
ENDBRANCH  20  22
ENDBRANCH   6  20
TORSDOF 5
ENDMDL
MODEL 3
REMARK VINA RESULT:      -8.5      3.668      6.483
REMARK  5 active torsions:
REMARK  status: ('A' for Active; 'I' for Inactive)
REMARK    1  A    between atoms: C4_6  and  C5_7 
REMARK       I    between atoms: C5_7  and  N2_9 
REMARK    2  A    between atoms: N2_9  and  C6_10 
REMARK    3  A    between atoms: C7_11  and  C8_12 
REMARK    4  A    between atoms: C12_17  and  N4_18 
REMARK    5  A    between atoms: N4_18  and  C13_19 
ROOT
HETATM    1  C8  UNL     1      24.869   5.291  50.051  1.00  0.00    -0.015 A 
HETATM    2  C9  UNL     1      25.595   6.387  49.944  1.00  0.00     0.012 A 
HETATM    3  C10 UNL     1      25.098   7.664  50.432  1.00  0.00     0.017 A 
HETATM    4  C11 UNL     1      23.907   7.764  50.997  1.00  0.00     0.085 A 
HETATM    5  N3  UNL     1      23.160   6.559  51.092  1.00  0.00    -0.374 N 
HETATM    6  C12 UNL     1      23.512   5.227  50.650  1.00  0.00     0.215 A 
HETATM    7  H15 UNL     1      22.221   6.722  51.564  1.00  0.00     0.161 HD
ENDROOT
BRANCH   1   8
HETATM    8  C7  UNL     1      25.410   4.040  49.549  1.00  0.00     0.028 C 
HETATM    9  C6  UNL     1      26.185   3.158  50.151  1.00  0.00     0.092 C 
BRANCH   9  10
HETATM   10  N2  UNL     1      26.819   2.962  51.407  1.00  0.00    -0.333 N 
HETATM   11  C5  UNL     1      26.966   1.707  52.103  1.00  0.00     0.281 C 
HETATM   12  O2  UNL     1      26.558   0.554  51.730  1.00  0.00    -0.268 OA
HETATM   13  H9  UNL     1      27.253   3.745  51.983  1.00  0.00     0.168 HD
BRANCH  11  14
HETATM   14  C4  UNL     1      27.633   1.556  53.400  1.00  0.00     0.452 C 
HETATM   15  N1  UNL     1      27.409   0.307  54.068  1.00  0.00     0.124 N 
HETATM   16  C1  UNL     1      26.323   0.321  55.019  1.00  0.00     0.314 C 
HETATM   17  C2  UNL     1      28.671  -0.030  54.669  1.00  0.00     0.302 C 
HETATM   18  C3  UNL     1      29.640   0.590  53.657  1.00  0.00     0.201 C 
HETATM   19  O1  UNL     1      28.997   1.698  53.167  1.00  0.00    -0.348 OA
ENDBRANCH  11  14
ENDBRANCH   9  10
ENDBRANCH   1   8
BRANCH   6  20
HETATM   20  N4  UNL     1      23.470   4.338  51.792  1.00  0.00    -0.365 N 
HETATM   21  H17 UNL     1      24.227   4.520  52.512  1.00  0.00     0.162 HD
BRANCH  20  22
HETATM   22  C13 UNL     1      22.617   3.247  52.176  1.00  0.00     0.031 A 
HETATM   23  C14 UNL     1      21.232   3.344  52.233  1.00  0.00     0.032 A 
HETATM   24  C15 UNL     1      20.564   2.210  52.634  1.00  0.00     0.046 A 
HETATM   25  C16 UNL     1      21.166   1.020  52.974  1.00  0.00     0.138 A 
HETATM   26  F1  UNL     1      20.392  -0.025  53.354  1.00  0.00    -0.204 F 
HETATM   27  C17 UNL     1      22.542   0.952  52.909  1.00  0.00     0.074 A 
HETATM   28 CL1  UNL     1      23.238  -0.593  53.355  1.00  0.00    -0.081 Cl
HETATM   29  C18 UNL     1      23.249   2.069  52.511  1.00  0.00     0.056 A 
ENDBRANCH  20  22
ENDBRANCH   6  20
TORSDOF 5
ENDMDL
MODEL 4
REMARK VINA RESULT:      -8.2      4.640      6.566
REMARK  5 active torsions:
REMARK  status: ('A' for Active; 'I' for Inactive)
REMARK    1  A    between atoms: C4_6  and  C5_7 
REMARK       I    between atoms: C5_7  and  N2_9 
REMARK    2  A    between atoms: N2_9  and  C6_10 
REMARK    3  A    between atoms: C7_11  and  C8_12 
REMARK    4  A    between atoms: C12_17  and  N4_18 
REMARK    5  A    between atoms: N4_18  and  C13_19 
ROOT
HETATM    1  C8  UNL     1      26.303   1.563  53.823  1.00  0.00    -0.015 A 
HETATM    2  C9  UNL     1      27.503   1.921  53.408  1.00  0.00     0.012 A 
HETATM    3  C10 UNL     1      28.598   0.965  53.371  1.00  0.00     0.017 A 
HETATM    4  C11 UNL     1      28.424  -0.289  53.752  1.00  0.00     0.085 A 
HETATM    5  N3  UNL     1      27.117  -0.631  54.190  1.00  0.00    -0.374 N 
HETATM    6  C12 UNL     1      25.938   0.202  54.290  1.00  0.00     0.215 A 
HETATM    7  H15 UNL     1      27.058  -1.656  54.470  1.00  0.00     0.161 HD
ENDROOT
BRANCH   1   8
HETATM    8  C7  UNL     1      25.242   2.555  53.840  1.00  0.00     0.028 C 
HETATM    9  C6  UNL     1      24.555   3.067  52.836  1.00  0.00     0.092 C 
BRANCH   9  10
HETATM   10  N2  UNL     1      24.474   2.962  51.423  1.00  0.00    -0.333 N 
HETATM   11  C5  UNL     1      23.327   3.279  50.606  1.00  0.00     0.281 C 
HETATM   12  O2  UNL     1      22.186   3.704  50.995  1.00  0.00    -0.268 OA
HETATM   13  H9  UNL     1      25.270   2.619  50.804  1.00  0.00     0.168 HD
BRANCH  11  14
HETATM   14  C4  UNL     1      23.294   3.155  49.146  1.00  0.00     0.452 C 
HETATM   15  N1  UNL     1      22.023   2.800  48.585  1.00  0.00     0.124 N 
HETATM   16  C1  UNL     1      21.839   1.386  48.362  1.00  0.00     0.314 C 
HETATM   17  C2  UNL     1      21.915   3.573  47.377  1.00  0.00     0.302 C 
HETATM   18  C3  UNL     1      22.702   4.827  47.773  1.00  0.00     0.201 C 
HETATM   19  O1  UNL     1      23.678   4.389  48.631  1.00  0.00    -0.348 OA
ENDBRANCH  11  14
ENDBRANCH   9  10
ENDBRANCH   1   8
BRANCH   6  20
HETATM   20  N4  UNL     1      24.892  -0.384  53.479  1.00  0.00    -0.365 N 
HETATM   21  H17 UNL     1      25.235  -0.807  52.569  1.00  0.00     0.162 HD
BRANCH  20  22
HETATM   22  C13 UNL     1      23.470  -0.521  53.631  1.00  0.00     0.031 A 
HETATM   23  C14 UNL     1      22.875  -1.127  54.731  1.00  0.00     0.032 A 
HETATM   24  C15 UNL     1      21.501  -1.190  54.715  1.00  0.00     0.046 A 
HETATM   25  C16 UNL     1      20.702  -0.705  53.704  1.00  0.00     0.138 A 
HETATM   26  F1  UNL     1      19.357  -0.831  53.810  1.00  0.00    -0.204 F 
HETATM   27  C17 UNL     1      21.319  -0.109  52.625  1.00  0.00     0.074 A 
HETATM   28 CL1  UNL     1      20.240   0.485  51.378  1.00  0.00    -0.081 Cl
HETATM   29  C18 UNL     1      22.696  -0.026  52.603  1.00  0.00     0.056 A 
ENDBRANCH  20  22
ENDBRANCH   6  20
TORSDOF 5
ENDMDL
MODEL 5
REMARK VINA RESULT:      -8.2      4.501      7.560
REMARK  5 active torsions:
REMARK  status: ('A' for Active; 'I' for Inactive)
REMARK    1  A    between atoms: C4_6  and  C5_7 
REMARK       I    between atoms: C5_7  and  N2_9 
REMARK    2  A    between atoms: N2_9  and  C6_10 
REMARK    3  A    between atoms: C7_11  and  C8_12 
REMARK    4  A    between atoms: C12_17  and  N4_18 
REMARK    5  A    between atoms: N4_18  and  C13_19 
ROOT
HETATM    1  C8  UNL     1      22.714   2.433  51.569  1.00  0.00    -0.015 A 
HETATM    2  C9  UNL     1      21.969   1.418  51.964  1.00  0.00     0.012 A 
HETATM    3  C10 UNL     1      21.174   0.659  51.011  1.00  0.00     0.017 A 
HETATM    4  C11 UNL     1      21.175   0.962  49.725  1.00  0.00     0.085 A 
HETATM    5  N3  UNL     1      21.992   2.061  49.344  1.00  0.00    -0.374 N 
HETATM    6  C12 UNL     1      22.825   2.910  50.168  1.00  0.00     0.215 A 
HETATM    7  H15 UNL     1      21.944   2.235  48.296  1.00  0.00     0.161 HD
ENDROOT
BRANCH   1   8
HETATM    8  C7  UNL     1      23.490   3.159  52.560  1.00  0.00     0.028 C 
HETATM    9  C6  UNL     1      24.484   2.740  53.320  1.00  0.00     0.092 C 
BRANCH   9  10
HETATM   10  N2  UNL     1      25.229   1.556  53.561  1.00  0.00    -0.333 N 
HETATM   11  C5  UNL     1      26.603   1.484  53.998  1.00  0.00     0.281 C 
HETATM   12  O2  UNL     1      27.396   2.456  54.242  1.00  0.00    -0.268 OA
HETATM   13  H9  UNL     1      24.843   0.572  53.432  1.00  0.00     0.168 HD
BRANCH  11  14
HETATM   14  C4  UNL     1      27.329   0.233  54.236  1.00  0.00     0.452 C 
HETATM   15  N1  UNL     1      27.686  -0.507  53.062  1.00  0.00     0.124 N 
HETATM   16  C1  UNL     1      26.741  -1.532  52.686  1.00  0.00     0.314 C 
HETATM   17  C2  UNL     1      28.998  -1.032  53.331  1.00  0.00     0.302 C 
HETATM   18  C3  UNL     1      29.566   0.076  54.227  1.00  0.00     0.201 C 
HETATM   19  O1  UNL     1      28.491   0.569  54.922  1.00  0.00    -0.348 OA
ENDBRANCH  11  14
ENDBRANCH   9  10
ENDBRANCH   1   8
BRANCH   6  20
HETATM   20  N4  UNL     1      24.185   2.832  49.679  1.00  0.00    -0.365 N 
HETATM   21  H17 UNL     1      24.542   1.843  49.545  1.00  0.00     0.162 HD
BRANCH  20  22
HETATM   22  C13 UNL     1      25.177   3.812  49.329  1.00  0.00     0.031 A 
HETATM   23  C14 UNL     1      26.542   3.555  49.342  1.00  0.00     0.032 A 
HETATM   24  C15 UNL     1      27.357   4.607  48.994  1.00  0.00     0.046 A 
HETATM   25  C16 UNL     1      26.917   5.863  48.646  1.00  0.00     0.138 A 
HETATM   26  F1  UNL     1      27.826   6.814  48.323  1.00  0.00    -0.204 F 
HETATM   27  C17 UNL     1      25.557   6.091  48.642  1.00  0.00     0.074 A 
HETATM   28 CL1  UNL     1      25.069   7.712  48.188  1.00  0.00    -0.081 Cl
HETATM   29  C18 UNL     1      24.704   5.061  48.985  1.00  0.00     0.056 A 
ENDBRANCH  20  22
ENDBRANCH   6  20
TORSDOF 5
ENDMDL
MODEL 6
REMARK VINA RESULT:      -8.2      3.511      5.038
REMARK  5 active torsions:
REMARK  status: ('A' for Active; 'I' for Inactive)
REMARK    1  A    between atoms: C4_6  and  C5_7 
REMARK       I    between atoms: C5_7  and  N2_9 
REMARK    2  A    between atoms: N2_9  and  C6_10 
REMARK    3  A    between atoms: C7_11  and  C8_12 
REMARK    4  A    between atoms: C12_17  and  N4_18 
REMARK    5  A    between atoms: N4_18  and  C13_19 
ROOT
HETATM    1  C8  UNL     1      21.766   0.335  52.230  1.00  0.00    -0.015 A 
HETATM    2  C9  UNL     1      20.668   0.650  52.889  1.00  0.00     0.012 A 
HETATM    3  C10 UNL     1      20.540   0.367  54.310  1.00  0.00     0.017 A 
HETATM    4  C11 UNL     1      21.519  -0.214  54.982  1.00  0.00     0.085 A 
HETATM    5  N3  UNL     1      22.683  -0.535  54.233  1.00  0.00    -0.374 N 
HETATM    6  C12 UNL     1      22.954  -0.325  52.827  1.00  0.00     0.215 A 
HETATM    7  H15 UNL     1      23.425  -0.990  54.846  1.00  0.00     0.161 HD
ENDROOT
BRANCH   1   8
HETATM    8  C7  UNL     1      21.844   0.640  50.812  1.00  0.00     0.028 C 
HETATM    9  C6  UNL     1      21.949   1.809  50.209  1.00  0.00     0.092 C 
BRANCH   9  10
HETATM   10  N2  UNL     1      22.031   3.187  50.539  1.00  0.00    -0.333 N 
HETATM   11  C5  UNL     1      23.175   3.865  51.100  1.00  0.00     0.281 C 
HETATM   12  O2  UNL     1      24.310   3.362  51.402  1.00  0.00    -0.268 OA
HETATM   13  H9  UNL     1      21.231   3.878  50.414  1.00  0.00     0.168 HD
BRANCH  11  14
HETATM   14  C4  UNL     1      23.211   5.295  51.422  1.00  0.00     0.452 C 
HETATM   15  N1  UNL     1      23.678   6.153  50.373  1.00  0.00     0.124 N 
HETATM   16  C1  UNL     1      25.088   6.459  50.431  1.00  0.00     0.314 C 
HETATM   17  C2  UNL     1      22.851   7.326  50.448  1.00  0.00     0.302 C 
HETATM   18  C3  UNL     1      21.538   6.714  50.953  1.00  0.00     0.201 C 
HETATM   19  O1  UNL     1      21.911   5.663  51.752  1.00  0.00    -0.348 OA
ENDBRANCH  11  14
ENDBRANCH   9  10
ENDBRANCH   1   8
BRANCH   6  20
HETATM   20  N4  UNL     1      24.142   0.493  52.706  1.00  0.00    -0.365 N 
HETATM   21  H17 UNL     1      23.950   1.499  52.433  1.00  0.00     0.162 HD
BRANCH  20  22
HETATM   22  C13 UNL     1      25.547   0.241  52.873  1.00  0.00     0.031 A 
HETATM   23  C14 UNL     1      26.110  -1.027  52.802  1.00  0.00     0.032 A 
HETATM   24  C15 UNL     1      27.469  -1.095  53.001  1.00  0.00     0.046 A 
HETATM   25  C16 UNL     1      28.283  -0.016  53.260  1.00  0.00     0.138 A 
HETATM   26  F1  UNL     1      29.611  -0.219  53.437  1.00  0.00    -0.204 F 
HETATM   27  C17 UNL     1      27.698   1.231  53.326  1.00  0.00     0.074 A 
HETATM   28 CL1  UNL     1      28.794   2.558  53.659  1.00  0.00    -0.081 Cl
HETATM   29  C18 UNL     1      26.336   1.343  53.132  1.00  0.00     0.056 A 
ENDBRANCH  20  22
ENDBRANCH   6  20
TORSDOF 5
ENDMDL
MODEL 7
REMARK VINA RESULT:      -8.2      4.297      7.084
REMARK  5 active torsions:
REMARK  status: ('A' for Active; 'I' for Inactive)
REMARK    1  A    between atoms: C4_6  and  C5_7 
REMARK       I    between atoms: C5_7  and  N2_9 
REMARK    2  A    between atoms: N2_9  and  C6_10 
REMARK    3  A    between atoms: C7_11  and  C8_12 
REMARK    4  A    between atoms: C12_17  and  N4_18 
REMARK    5  A    between atoms: N4_18  and  C13_19 
ROOT
HETATM    1  C8  UNL     1      22.157   2.298  50.707  1.00  0.00    -0.015 A 
HETATM    2  C9  UNL     1      22.011   1.287  49.873  1.00  0.00     0.012 A 
HETATM    3  C10 UNL     1      21.807   1.513  48.450  1.00  0.00     0.017 A 
HETATM    4  C11 UNL     1      21.763   2.736  47.952  1.00  0.00     0.085 A 
HETATM    5  N3  UNL     1      21.926   3.795  48.885  1.00  0.00    -0.374 N 
HETATM    6  C12 UNL     1      22.128   3.730  50.317  1.00  0.00     0.215 A 
HETATM    7  H15 UNL     1      21.887   4.744  48.406  1.00  0.00     0.161 HD
ENDROOT
BRANCH   1   8
HETATM    8  C7  UNL     1      22.360   2.020  52.118  1.00  0.00     0.028 C 
HETATM    9  C6  UNL     1      23.430   1.558  52.738  1.00  0.00     0.092 C 
BRANCH   9  10
HETATM   10  N2  UNL     1      24.754   1.146  52.437  1.00  0.00    -0.333 N 
HETATM   11  C5  UNL     1      25.949   1.517  53.156  1.00  0.00     0.281 C 
HETATM   12  O2  UNL     1      26.040   2.276  54.180  1.00  0.00    -0.268 OA
HETATM   13  H9  UNL     1      25.010   0.511  51.621  1.00  0.00     0.168 HD
BRANCH  11  14
HETATM   14  C4  UNL     1      27.298   1.061  52.806  1.00  0.00     0.452 C 
HETATM   15  N1  UNL     1      28.274   1.162  53.852  1.00  0.00     0.124 N 
HETATM   16  C1  UNL     1      29.055   2.375  53.830  1.00  0.00     0.314 C 
HETATM   17  C2  UNL     1      29.082  -0.022  53.728  1.00  0.00     0.302 C 
HETATM   18  C3  UNL     1      28.044  -1.017  53.197  1.00  0.00     0.201 C 
HETATM   19  O1  UNL     1      27.184  -0.273  52.430  1.00  0.00    -0.348 OA
ENDBRANCH  11  14
ENDBRANCH   9  10
ENDBRANCH   1   8
BRANCH   6  20
HETATM   20  N4  UNL     1      23.370   4.401  50.636  1.00  0.00    -0.365 N 
HETATM   21  H17 UNL     1      23.327   5.001  51.510  1.00  0.00     0.162 HD
BRANCH  20  22
HETATM   22  C13 UNL     1      24.669   4.438  50.024  1.00  0.00     0.031 A 
HETATM   23  C14 UNL     1      25.534   3.350  49.999  1.00  0.00     0.032 A 
HETATM   24  C15 UNL     1      26.747   3.557  49.385  1.00  0.00     0.046 A 
HETATM   25  C16 UNL     1      27.148   4.743  48.812  1.00  0.00     0.138 A 
HETATM   26  F1  UNL     1      28.373   4.816  48.238  1.00  0.00    -0.204 F 
HETATM   27  C17 UNL     1      26.271   5.806  48.852  1.00  0.00     0.074 A 
HETATM   28 CL1  UNL     1      26.848   7.282  48.103  1.00  0.00    -0.081 Cl
HETATM   29  C18 UNL     1      25.043   5.639  49.459  1.00  0.00     0.056 A 
ENDBRANCH  20  22
ENDBRANCH   6  20
TORSDOF 5
ENDMDL
MODEL 8
REMARK VINA RESULT:      -8.0      1.716      2.410
REMARK  5 active torsions:
REMARK  status: ('A' for Active; 'I' for Inactive)
REMARK    1  A    between atoms: C4_6  and  C5_7 
REMARK       I    between atoms: C5_7  and  N2_9 
REMARK    2  A    between atoms: N2_9  and  C6_10 
REMARK    3  A    between atoms: C7_11  and  C8_12 
REMARK    4  A    between atoms: C12_17  and  N4_18 
REMARK    5  A    between atoms: N4_18  and  C13_19 
ROOT
HETATM    1  C8  UNL     1      25.831   4.853  49.810  1.00  0.00    -0.015 A 
HETATM    2  C9  UNL     1      25.445   6.113  49.758  1.00  0.00     0.012 A 
HETATM    3  C10 UNL     1      24.422   6.621  50.659  1.00  0.00     0.017 A 
HETATM    4  C11 UNL     1      23.851   5.836  51.557  1.00  0.00     0.085 A 
HETATM    5  N3  UNL     1      24.298   4.488  51.579  1.00  0.00    -0.374 N 
HETATM    6  C12 UNL     1      25.291   3.839  50.750  1.00  0.00     0.215 A 
HETATM    7  H15 UNL     1      23.798   3.926  52.332  1.00  0.00     0.161 HD
ENDROOT
BRANCH   1   8
HETATM    8  C7  UNL     1      26.857   4.395  48.889  1.00  0.00     0.028 C 
HETATM    9  C6  UNL     1      28.020   4.941  48.588  1.00  0.00     0.092 C 
BRANCH   9  10
HETATM   10  N2  UNL     1      28.794   6.080  48.930  1.00  0.00    -0.333 N 
HETATM   11  C5  UNL     1      28.688   7.394  48.342  1.00  0.00     0.281 C 
HETATM   12  O2  UNL     1      27.892   7.774  47.417  1.00  0.00    -0.268 OA
HETATM   13  H9  UNL     1      29.561   6.080  49.669  1.00  0.00     0.168 HD
BRANCH  11  14
HETATM   14  C4  UNL     1      29.511   8.542  48.733  1.00  0.00     0.452 C 
HETATM   15  N1  UNL     1      30.914   8.415  48.467  1.00  0.00     0.124 N 
HETATM   16  C1  UNL     1      31.694   7.919  49.577  1.00  0.00     0.314 C 
HETATM   17  C2  UNL     1      31.336   9.719  48.030  1.00  0.00     0.302 C 
HETATM   18  C3  UNL     1      30.059  10.209  47.336  1.00  0.00     0.201 C 
HETATM   19  O1  UNL     1      29.024   9.641  48.034  1.00  0.00    -0.348 OA
ENDBRANCH  11  14
ENDBRANCH   9  10
ENDBRANCH   1   8
BRANCH   6  20
HETATM   20  N4  UNL     1      26.322   3.297  51.608  1.00  0.00    -0.365 N 
HETATM   21  H17 UNL     1      26.948   4.029  52.051  1.00  0.00     0.162 HD
BRANCH  20  22
HETATM   22  C13 UNL     1      26.695   1.966  52.002  1.00  0.00     0.031 A 
HETATM   23  C14 UNL     1      25.931   0.841  51.713  1.00  0.00     0.032 A 
HETATM   24  C15 UNL     1      26.423  -0.357  52.175  1.00  0.00     0.046 A 
HETATM   25  C16 UNL     1      27.591  -0.508  52.887  1.00  0.00     0.138 A 
HETATM   26  F1  UNL     1      27.965  -1.747  53.285  1.00  0.00    -0.204 F 
HETATM   27  C17 UNL     1      28.329   0.625  53.160  1.00  0.00     0.074 A 
HETATM   28 CL1  UNL     1      29.803   0.358  54.070  1.00  0.00    -0.081 Cl
HETATM   29  C18 UNL     1      27.870   1.848  52.714  1.00  0.00     0.056 A 
ENDBRANCH  20  22
ENDBRANCH   6  20
TORSDOF 5
ENDMDL
MODEL 9
REMARK VINA RESULT:      -8.0      3.895      5.486
REMARK  5 active torsions:
REMARK  status: ('A' for Active; 'I' for Inactive)
REMARK    1  A    between atoms: C4_6  and  C5_7 
REMARK       I    between atoms: C5_7  and  N2_9 
REMARK    2  A    between atoms: N2_9  and  C6_10 
REMARK    3  A    between atoms: C7_11  and  C8_12 
REMARK    4  A    between atoms: C12_17  and  N4_18 
REMARK    5  A    between atoms: N4_18  and  C13_19 
ROOT
HETATM    1  C8  UNL     1      26.232   1.625  53.866  1.00  0.00    -0.015 A 
HETATM    2  C9  UNL     1      27.387   2.062  53.402  1.00  0.00     0.012 A 
HETATM    3  C10 UNL     1      28.580   1.233  53.464  1.00  0.00     0.017 A 
HETATM    4  C11 UNL     1      28.543   0.019  53.985  1.00  0.00     0.085 A 
HETATM    5  N3  UNL     1      27.279  -0.412  54.471  1.00  0.00    -0.374 N 
HETATM    6  C12 UNL     1      26.016   0.294  54.487  1.00  0.00     0.215 A 
HETATM    7  H15 UNL     1      27.331  -1.398  54.866  1.00  0.00     0.161 HD
ENDROOT
BRANCH   1   8
HETATM    8  C7  UNL     1      25.069   2.491  53.781  1.00  0.00     0.028 C 
HETATM    9  C6  UNL     1      24.656   3.247  52.780  1.00  0.00     0.092 C 
BRANCH   9  10
HETATM   10  N2  UNL     1      25.042   3.585  51.457  1.00  0.00    -0.333 N 
HETATM   11  C5  UNL     1      24.604   4.738  50.707  1.00  0.00     0.281 C 
HETATM   12  O2  UNL     1      23.799   5.655  51.085  1.00  0.00    -0.268 OA
HETATM   13  H9  UNL     1      25.704   3.001  50.862  1.00  0.00     0.168 HD
BRANCH  11  14
HETATM   14  C4  UNL     1      25.035   5.045  49.340  1.00  0.00     0.452 C 
HETATM   15  N1  UNL     1      24.479   6.238  48.770  1.00  0.00     0.124 N 
HETATM   16  C1  UNL     1      23.290   6.028  47.978  1.00  0.00     0.314 C 
HETATM   17  C2  UNL     1      25.551   6.832  48.018  1.00  0.00     0.302 C 
HETATM   18  C3  UNL     1      26.758   6.396  48.856  1.00  0.00     0.201 C 
HETATM   19  O1  UNL     1      26.419   5.173  49.375  1.00  0.00    -0.348 OA
ENDBRANCH  11  14
ENDBRANCH   9  10
ENDBRANCH   1   8
BRANCH   6  20
HETATM   20  N4  UNL     1      25.043  -0.490  53.756  1.00  0.00    -0.365 N 
HETATM   21  H17 UNL     1      25.464  -1.132  53.025  1.00  0.00     0.162 HD
BRANCH  20  22
HETATM   22  C13 UNL     1      23.611  -0.594  53.799  1.00  0.00     0.031 A 
HETATM   23  C14 UNL     1      22.915  -1.123  54.879  1.00  0.00     0.032 A 
HETATM   24  C15 UNL     1      21.546  -1.164  54.753  1.00  0.00     0.046 A 
HETATM   25  C16 UNL     1      20.842  -0.726  53.654  1.00  0.00     0.138 A 
HETATM   26  F1  UNL     1      19.491  -0.823  53.656  1.00  0.00    -0.204 F 
HETATM   27  C17 UNL     1      21.558  -0.205  52.597  1.00  0.00     0.074 A 
HETATM   28 CL1  UNL     1      20.597   0.332  51.233  1.00  0.00    -0.081 Cl
HETATM   29  C18 UNL     1      22.934  -0.147  52.683  1.00  0.00     0.056 A 
ENDBRANCH  20  22
ENDBRANCH   6  20
TORSDOF 5
ENDMDL
