MODEL 1
REMARK VINA RESULT:      -8.6      0.000      0.000
REMARK  4 active torsions:
REMARK  status: ('A' for Active; 'I' for Inactive)
REMARK    1  A    between atoms: O1_1  and  C1_2 
REMARK    2  A    between atoms: C3_5  and  N1_6 
REMARK    3  A    between atoms: C4_8  and  C5_9 
REMARK    4  A    between atoms: C12_17  and  C13_18 
ROOT
HETATM    1  N1  UNL     1      24.042   1.493  51.577  1.00  0.00    -0.236 N 
HETATM    2  N2  UNL     1      25.301   0.902  51.539  1.00  0.00    -0.173 NA
HETATM    3  C4  UNL     1      25.838   0.940  52.735  1.00  0.00     0.067 C 
HETATM    4  C11 UNL     1      24.938   1.589  53.700  1.00  0.00     0.094 C 
HETATM    5  C12 UNL     1      23.625   1.646  52.953  1.00  0.00     0.151 C 
ENDROOT
BRANCH   1   6
HETATM    6  C3  UNL     1      23.212   1.915  50.505  1.00  0.00     0.192 A 
HETATM    7  S1  UNL     1      23.668   3.619  49.798  1.00  0.00    -0.058 SA
HETATM    8  C2  UNL     1      22.320   3.607  48.525  1.00  0.00     0.111 A 
HETATM    9  C1  UNL     1      21.746   2.265  48.875  1.00  0.00     0.171 A 
HETATM   10  N3  UNL     1      22.213   1.483  49.843  1.00  0.00    -0.198 NA
BRANCH   9  11
HETATM   11  O1  UNL     1      20.646   1.660  48.234  1.00  0.00    -0.344 OA
HETATM   12  H1  UNL     1      20.706   0.702  47.869  1.00  0.00     0.219 HD
ENDBRANCH   9  11
ENDBRANCH   1   6
BRANCH   5  13
HETATM   13  C13 UNL     1      22.706   0.558  53.380  1.00  0.00    -0.033 A 
HETATM   14  C14 UNL     1      23.023  -0.724  53.784  1.00  0.00     0.009 A 
HETATM   15  C15 UNL     1      22.014  -1.595  54.144  1.00  0.00     0.001 A 
HETATM   16  C16 UNL     1      20.683  -1.234  54.118  1.00  0.00     0.000 A 
HETATM   17  C17 UNL     1      20.379   0.062  53.709  1.00  0.00     0.001 A 
HETATM   18  C18 UNL     1      21.376   0.943  53.346  1.00  0.00     0.009 A 
ENDBRANCH   5  13
BRANCH   3  19
HETATM   19  C5  UNL     1      27.156   0.413  53.073  1.00  0.00    -0.010 A 
HETATM   20  C6  UNL     1      28.175   1.217  53.544  1.00  0.00     0.016 A 
HETATM   21  C7  UNL     1      29.402   0.679  53.851  1.00  0.00     0.043 A 
HETATM   22  C8  UNL     1      29.673  -0.668  53.708  1.00  0.00     0.116 A 
HETATM   23  F1  UNL     1      30.893  -1.171  54.018  1.00  0.00    -0.206 F 
HETATM   24  C9  UNL     1      28.674  -1.513  53.235  1.00  0.00     0.043 A 
HETATM   25  C10 UNL     1      27.450  -0.947  52.935  1.00  0.00     0.016 A 
ENDBRANCH   3  19
TORSDOF 4
ENDMDL
MODEL 2
REMARK VINA RESULT:      -8.4      4.114      7.131
REMARK  4 active torsions:
REMARK  status: ('A' for Active; 'I' for Inactive)
REMARK    1  A    between atoms: O1_1  and  C1_2 
REMARK    2  A    between atoms: C3_5  and  N1_6 
REMARK    3  A    between atoms: C4_8  and  C5_9 
REMARK    4  A    between atoms: C12_17  and  C13_18 
ROOT
HETATM    1  N1  UNL     1      25.579   1.447  53.426  1.00  0.00    -0.236 N 
HETATM    2  N2  UNL     1      24.605   0.452  53.436  1.00  0.00    -0.173 NA
HETATM    3  C4  UNL     1      23.417   1.005  53.405  1.00  0.00     0.067 C 
HETATM    4  C11 UNL     1      23.513   2.472  53.371  1.00  0.00     0.094 C 
HETATM    5  C12 UNL     1      24.973   2.707  53.057  1.00  0.00     0.151 C 
ENDROOT
BRANCH   1   6
HETATM    6  C3  UNL     1      26.967   1.353  53.711  1.00  0.00     0.192 A 
HETATM    7  S1  UNL     1      27.746  -0.310  53.224  1.00  0.00    -0.058 SA
HETATM    8  C2  UNL     1      29.443   0.155  53.807  1.00  0.00     0.111 A 
HETATM    9  C1  UNL     1      29.104   1.538  54.283  1.00  0.00     0.171 A 
HETATM   10  N3  UNL     1      27.889   2.073  54.215  1.00  0.00    -0.198 NA
BRANCH   9  11
HETATM   11  O1  UNL     1      30.016   2.445  54.860  1.00  0.00    -0.344 OA
HETATM   12  H1  UNL     1      30.224   2.419  55.864  1.00  0.00     0.219 HD
ENDBRANCH   9  11
ENDBRANCH   1   6
BRANCH   5  13
HETATM   13  C13 UNL     1      25.179   3.024  51.619  1.00  0.00    -0.033 A 
HETATM   14  C14 UNL     1      26.334   2.902  50.871  1.00  0.00     0.009 A 
HETATM   15  C15 UNL     1      26.322   3.251  49.536  1.00  0.00     0.001 A 
HETATM   16  C16 UNL     1      25.189   3.723  48.905  1.00  0.00     0.000 A 
HETATM   17  C17 UNL     1      24.033   3.840  49.673  1.00  0.00     0.001 A 
HETATM   18  C18 UNL     1      24.030   3.495  51.008  1.00  0.00     0.009 A 
ENDBRANCH   5  13
BRANCH   3  19
HETATM   19  C5  UNL     1      22.157   0.269  53.405  1.00  0.00    -0.010 A 
HETATM   20  C6  UNL     1      21.951  -0.844  54.197  1.00  0.00     0.016 A 
HETATM   21  C7  UNL     1      20.749  -1.509  54.167  1.00  0.00     0.043 A 
HETATM   22  C8  UNL     1      19.703  -1.105  53.360  1.00  0.00     0.116 A 
HETATM   23  F1  UNL     1      18.528  -1.780  53.350  1.00  0.00    -0.206 F 
HETATM   24  C9  UNL     1      19.869   0.011  52.545  1.00  0.00     0.043 A 
HETATM   25  C10 UNL     1      21.087   0.661  52.595  1.00  0.00     0.016 A 
ENDBRANCH   3  19
TORSDOF 4
ENDMDL
MODEL 3
REMARK VINA RESULT:      -8.3      1.611      1.800
REMARK  4 active torsions:
REMARK  status: ('A' for Active; 'I' for Inactive)
REMARK    1  A    between atoms: O1_1  and  C1_2 
REMARK    2  A    between atoms: C3_5  and  N1_6 
REMARK    3  A    between atoms: C4_8  and  C5_9 
REMARK    4  A    between atoms: C12_17  and  C13_18 
ROOT
HETATM    1  N1  UNL     1      24.835   2.903  51.217  1.00  0.00    -0.236 N 
HETATM    2  N2  UNL     1      25.978   2.109  51.246  1.00  0.00    -0.173 NA
HETATM    3  C4  UNL     1      26.253   1.784  52.486  1.00  0.00     0.067 C 
HETATM    4  C11 UNL     1      25.272   2.363  53.417  1.00  0.00     0.094 C 
HETATM    5  C12 UNL     1      24.166   2.827  52.497  1.00  0.00     0.151 C 
ENDROOT
BRANCH   1   6
HETATM    6  C3  UNL     1      24.316   3.697  50.160  1.00  0.00     0.192 A 
HETATM    7  S1  UNL     1      25.110   5.418  50.024  1.00  0.00    -0.058 SA
HETATM    8  C2  UNL     1      24.084   5.929  48.568  1.00  0.00     0.111 A 
HETATM    9  C1  UNL     1      23.296   4.659  48.440  1.00  0.00     0.171 A 
HETATM   10  N3  UNL     1      23.444   3.605  49.236  1.00  0.00    -0.198 NA
BRANCH   9  11
HETATM   11  O1  UNL     1      22.301   4.413  47.471  1.00  0.00    -0.344 OA
HETATM   12  H1  UNL     1      21.985   3.458  47.267  1.00  0.00     0.219 HD
ENDBRANCH   9  11
ENDBRANCH   1   6
BRANCH   5  13
HETATM   13  C13 UNL     1      23.033   1.864  52.475  1.00  0.00    -0.033 A 
HETATM   14  C14 UNL     1      23.076   0.486  52.567  1.00  0.00     0.009 A 
HETATM   15  C15 UNL     1      21.901  -0.237  52.526  1.00  0.00     0.001 A 
HETATM   16  C16 UNL     1      20.666   0.365  52.396  1.00  0.00     0.000 A 
HETATM   17  C17 UNL     1      20.640   1.755  52.304  1.00  0.00     0.001 A 
HETATM   18  C18 UNL     1      21.805   2.491  52.344  1.00  0.00     0.009 A 
ENDBRANCH   5  13
BRANCH   3  19
HETATM   19  C5  UNL     1      27.382   0.958  52.900  1.00  0.00    -0.010 A 
HETATM   20  C6  UNL     1      28.542   1.498  53.421  1.00  0.00     0.016 A 
HETATM   21  C7  UNL     1      29.582   0.684  53.799  1.00  0.00     0.043 A 
HETATM   22  C8  UNL     1      29.524  -0.691  53.679  1.00  0.00     0.116 A 
HETATM   23  F1  UNL     1      30.565  -1.470  54.059  1.00  0.00    -0.206 F 
HETATM   24  C9  UNL     1      28.373  -1.276  53.157  1.00  0.00     0.043 A 
HETATM   25  C10 UNL     1      27.342  -0.435  52.786  1.00  0.00     0.016 A 
ENDBRANCH   3  19
TORSDOF 4
ENDMDL
MODEL 4
REMARK VINA RESULT:      -8.0      4.218      7.096
REMARK  4 active torsions:
REMARK  status: ('A' for Active; 'I' for Inactive)
REMARK    1  A    between atoms: O1_1  and  C1_2 
REMARK    2  A    between atoms: C3_5  and  N1_6 
REMARK    3  A    between atoms: C4_8  and  C5_9 
REMARK    4  A    between atoms: C12_17  and  C13_18 
ROOT
HETATM    1  N1  UNL     1      21.819   2.738  51.507  1.00  0.00    -0.236 N 
HETATM    2  N2  UNL     1      20.630   2.243  52.036  1.00  0.00    -0.173 NA
HETATM    3  C4  UNL     1      20.426   1.028  51.589  1.00  0.00     0.067 C 
HETATM    4  C11 UNL     1      21.509   0.603  50.690  1.00  0.00     0.094 C 
HETATM    5  C12 UNL     1      22.574   1.650  50.925  1.00  0.00     0.151 C 
ENDROOT
BRANCH   1   6
HETATM    6  C3  UNL     1      22.312   4.070  51.488  1.00  0.00     0.192 A 
HETATM    7  S1  UNL     1      21.268   5.266  50.444  1.00  0.00    -0.058 SA
HETATM    8  C2  UNL     1      22.347   6.732  50.793  1.00  0.00     0.111 A 
HETATM    9  C1  UNL     1      23.341   6.028  51.670  1.00  0.00     0.171 A 
HETATM   10  N3  UNL     1      23.281   4.736  51.978  1.00  0.00    -0.198 NA
BRANCH   9  11
HETATM   11  O1  UNL     1      24.459   6.633  52.279  1.00  0.00    -0.344 OA
HETATM   12  H1  UNL     1      24.515   6.737  53.299  1.00  0.00     0.219 HD
ENDBRANCH   9  11
ENDBRANCH   1   6
BRANCH   5  13
HETATM   13  C13 UNL     1      23.633   1.156  51.844  1.00  0.00    -0.033 A 
HETATM   14  C14 UNL     1      23.495   0.361  52.966  1.00  0.00     0.009 A 
HETATM   15  C15 UNL     1      24.613   0.007  53.693  1.00  0.00     0.001 A 
HETATM   16  C16 UNL     1      25.883   0.418  53.343  1.00  0.00     0.000 A 
HETATM   17  C17 UNL     1      26.007   1.218  52.209  1.00  0.00     0.001 A 
HETATM   18  C18 UNL     1      24.898   1.580  51.473  1.00  0.00     0.009 A 
ENDBRANCH   5  13
BRANCH   3  19
HETATM   19  C5  UNL     1      19.276   0.197  51.932  1.00  0.00    -0.010 A 
HETATM   20  C6  UNL     1      19.253  -0.604  53.057  1.00  0.00     0.016 A 
HETATM   21  C7  UNL     1      18.149  -1.371  53.343  1.00  0.00     0.043 A 
HETATM   22  C8  UNL     1      17.028  -1.380  52.537  1.00  0.00     0.116 A 
HETATM   23  F1  UNL     1      15.953  -2.147  52.844  1.00  0.00    -0.206 F 
HETATM   24  C9  UNL     1      17.010  -0.587  51.393  1.00  0.00     0.043 A 
HETATM   25  C10 UNL     1      18.132   0.175  51.129  1.00  0.00     0.016 A 
ENDBRANCH   3  19
TORSDOF 4
ENDMDL
MODEL 5
REMARK VINA RESULT:      -7.9      4.176      7.409
REMARK  4 active torsions:
REMARK  status: ('A' for Active; 'I' for Inactive)
REMARK    1  A    between atoms: O1_1  and  C1_2 
REMARK    2  A    between atoms: C3_5  and  N1_6 
REMARK    3  A    between atoms: C4_8  and  C5_9 
REMARK    4  A    between atoms: C12_17  and  C13_18 
ROOT
HETATM    1  N1  UNL     1      24.694  -0.039  52.959  1.00  0.00    -0.236 N 
HETATM    2  N2  UNL     1      23.467  -0.649  52.710  1.00  0.00    -0.173 NA
HETATM    3  C4  UNL     1      22.501   0.211  52.923  1.00  0.00     0.067 C 
HETATM    4  C11 UNL     1      23.034   1.514  53.348  1.00  0.00     0.094 C 
HETATM    5  C12 UNL     1      24.509   1.392  53.042  1.00  0.00     0.151 C 
ENDROOT
BRANCH   1   6
HETATM    6  C3  UNL     1      25.976  -0.627  53.120  1.00  0.00     0.192 A 
HETATM    7  S1  UNL     1      27.214   0.462  54.063  1.00  0.00    -0.058 SA
HETATM    8  C2  UNL     1      28.595  -0.769  53.953  1.00  0.00     0.111 A 
HETATM    9  C1  UNL     1      27.845  -1.824  53.195  1.00  0.00     0.171 A 
HETATM   10  N3  UNL     1      26.577  -1.708  52.813  1.00  0.00    -0.198 NA
BRANCH   9  11
HETATM   11  O1  UNL     1      28.375  -3.065  52.787  1.00  0.00    -0.344 OA
HETATM   12  H1  UNL     1      27.798  -3.913  52.786  1.00  0.00     0.219 HD
ENDBRANCH   9  11
ENDBRANCH   1   6
BRANCH   5  13
HETATM   13  C13 UNL     1      24.861   2.073  51.768  1.00  0.00    -0.033 A 
HETATM   14  C14 UNL     1      24.035   2.390  50.707  1.00  0.00     0.009 A 
HETATM   15  C15 UNL     1      24.559   3.029  49.601  1.00  0.00     0.001 A 
HETATM   16  C16 UNL     1      25.893   3.371  49.508  1.00  0.00     0.000 A 
HETATM   17  C17 UNL     1      26.713   3.044  50.586  1.00  0.00     0.001 A 
HETATM   18  C18 UNL     1      26.204   2.406  51.697  1.00  0.00     0.009 A 
ENDBRANCH   5  13
BRANCH   3  19
HETATM   19  C5  UNL     1      21.080  -0.078  52.762  1.00  0.00    -0.010 A 
HETATM   20  C6  UNL     1      20.362  -0.800  53.696  1.00  0.00     0.016 A 
HETATM   21  C7  UNL     1      19.024  -1.049  53.506  1.00  0.00     0.043 A 
HETATM   22  C8  UNL     1      18.341  -0.600  52.393  1.00  0.00     0.116 A 
HETATM   23  F1  UNL     1      17.021  -0.861  52.232  1.00  0.00    -0.206 F 
HETATM   24  C9  UNL     1      19.027   0.131  51.427  1.00  0.00     0.043 A 
HETATM   25  C10 UNL     1      20.371   0.368  51.643  1.00  0.00     0.016 A 
ENDBRANCH   3  19
TORSDOF 4
ENDMDL
MODEL 6
REMARK VINA RESULT:      -7.7      4.152      7.554
REMARK  4 active torsions:
REMARK  status: ('A' for Active; 'I' for Inactive)
REMARK    1  A    between atoms: O1_1  and  C1_2 
REMARK    2  A    between atoms: C3_5  and  N1_6 
REMARK    3  A    between atoms: C4_8  and  C5_9 
REMARK    4  A    between atoms: C12_17  and  C13_18 
ROOT
HETATM    1  N1  UNL     1      23.338   1.598  52.827  1.00  0.00    -0.236 N 
HETATM    2  N2  UNL     1      22.395   0.580  52.707  1.00  0.00    -0.173 NA
HETATM    3  C4  UNL     1      21.196   1.104  52.620  1.00  0.00     0.067 C 
HETATM    4  C11 UNL     1      21.252   2.572  52.680  1.00  0.00     0.094 C 
HETATM    5  C12 UNL     1      22.723   2.862  52.489  1.00  0.00     0.151 C 
ENDROOT
BRANCH   1   6
HETATM    6  C3  UNL     1      24.703   1.521  53.209  1.00  0.00     0.192 A 
HETATM    7  S1  UNL     1      25.359  -0.253  53.383  1.00  0.00    -0.058 SA
HETATM    8  C2  UNL     1      27.069   0.277  53.865  1.00  0.00     0.111 A 
HETATM    9  C1  UNL     1      26.828   1.757  53.805  1.00  0.00     0.171 A 
HETATM   10  N3  UNL     1      25.664   2.312  53.483  1.00  0.00    -0.198 NA
BRANCH   9  11
HETATM   11  O1  UNL     1      27.792   2.749  54.081  1.00  0.00    -0.344 OA
HETATM   12  H1  UNL     1      28.287   2.771  54.979  1.00  0.00     0.219 HD
ENDBRANCH   9  11
ENDBRANCH   1   6
BRANCH   5  13
HETATM   13  C13 UNL     1      23.024   3.270  51.092  1.00  0.00    -0.033 A 
HETATM   14  C14 UNL     1      22.726   2.602  49.920  1.00  0.00     0.009 A 
HETATM   15  C15 UNL     1      23.095   3.152  48.708  1.00  0.00     0.001 A 
HETATM   16  C16 UNL     1      23.756   4.359  48.615  1.00  0.00     0.000 A 
HETATM   17  C17 UNL     1      24.050   5.020  49.806  1.00  0.00     0.001 A 
HETATM   18  C18 UNL     1      23.688   4.483  51.023  1.00  0.00     0.009 A 
ENDBRANCH   5  13
BRANCH   3  19
HETATM   19  C5  UNL     1      19.962   0.338  52.484  1.00  0.00    -0.010 A 
HETATM   20  C6  UNL     1      19.559  -0.590  53.426  1.00  0.00     0.016 A 
HETATM   21  C7  UNL     1      18.389  -1.290  53.258  1.00  0.00     0.043 A 
HETATM   22  C8  UNL     1      17.570  -1.106  52.161  1.00  0.00     0.116 A 
HETATM   23  F1  UNL     1      16.421  -1.811  52.022  1.00  0.00    -0.206 F 
HETATM   24  C9  UNL     1      17.939  -0.182  51.188  1.00  0.00     0.043 A 
HETATM   25  C10 UNL     1      19.120   0.509  51.381  1.00  0.00     0.016 A 
ENDBRANCH   3  19
TORSDOF 4
ENDMDL
MODEL 7
REMARK VINA RESULT:      -7.7      3.649      5.102
REMARK  4 active torsions:
REMARK  status: ('A' for Active; 'I' for Inactive)
REMARK    1  A    between atoms: O1_1  and  C1_2 
REMARK    2  A    between atoms: C3_5  and  N1_6 
REMARK    3  A    between atoms: C4_8  and  C5_9 
REMARK    4  A    between atoms: C12_17  and  C13_18 
ROOT
HETATM    1  N1  UNL     1      22.372   3.019  50.923  1.00  0.00    -0.236 N 
HETATM    2  N2  UNL     1      23.269   3.415  49.935  1.00  0.00    -0.173 NA
HETATM    3  C4  UNL     1      24.264   4.067  50.485  1.00  0.00     0.067 C 
HETATM    4  C11 UNL     1      24.098   4.160  51.943  1.00  0.00     0.094 C 
HETATM    5  C12 UNL     1      22.992   3.168  52.221  1.00  0.00     0.151 C 
ENDROOT
BRANCH   1   6
HETATM    6  C3  UNL     1      21.043   2.534  50.792  1.00  0.00     0.192 A 
HETATM    7  S1  UNL     1      19.872   3.100  52.176  1.00  0.00    -0.058 SA
HETATM    8  C2  UNL     1      18.402   2.204  51.490  1.00  0.00     0.111 A 
HETATM    9  C1  UNL     1      19.086   1.614  50.292  1.00  0.00     0.171 A 
HETATM   10  N3  UNL     1      20.368   1.803  49.996  1.00  0.00    -0.198 NA
BRANCH   9  11
HETATM   11  O1  UNL     1      18.470   0.790  49.328  1.00  0.00    -0.344 OA
HETATM   12  H1  UNL     1      17.784   0.077  49.601  1.00  0.00     0.219 HD
ENDBRANCH   9  11
ENDBRANCH   1   6
BRANCH   5  13
HETATM   13  C13 UNL     1      23.529   1.878  52.730  1.00  0.00    -0.033 A 
HETATM   14  C14 UNL     1      22.888   0.658  52.822  1.00  0.00     0.009 A 
HETATM   15  C15 UNL     1      23.565  -0.433  53.328  1.00  0.00     0.001 A 
HETATM   16  C16 UNL     1      24.876  -0.357  53.753  1.00  0.00     0.000 A 
HETATM   17  C17 UNL     1      25.509   0.881  53.655  1.00  0.00     0.001 A 
HETATM   18  C18 UNL     1      24.845   1.979  53.151  1.00  0.00     0.009 A 
ENDBRANCH   5  13
BRANCH   3  19
HETATM   19  C5  UNL     1      25.395   4.631  49.755  1.00  0.00    -0.010 A 
HETATM   20  C6  UNL     1      26.540   3.906  49.489  1.00  0.00     0.016 A 
HETATM   21  C7  UNL     1      27.581   4.476  48.797  1.00  0.00     0.043 A 
HETATM   22  C8  UNL     1      27.538   5.779  48.340  1.00  0.00     0.116 A 
HETATM   23  F1  UNL     1      28.580   6.315  47.661  1.00  0.00    -0.206 F 
HETATM   24  C9  UNL     1      26.402   6.545  48.588  1.00  0.00     0.043 A 
HETATM   25  C10 UNL     1      25.370   5.948  49.285  1.00  0.00     0.016 A 
ENDBRANCH   3  19
TORSDOF 4
ENDMDL
MODEL 8
REMARK VINA RESULT:      -7.7      3.088      4.241
REMARK  4 active torsions:
REMARK  status: ('A' for Active; 'I' for Inactive)
REMARK    1  A    between atoms: O1_1  and  C1_2 
REMARK    2  A    between atoms: C3_5  and  N1_6 
REMARK    3  A    between atoms: C4_8  and  C5_9 
REMARK    4  A    between atoms: C12_17  and  C13_18 
ROOT
HETATM    1  N1  UNL     1      25.356   4.055  50.614  1.00  0.00    -0.236 N 
HETATM    2  N2  UNL     1      26.394   3.155  50.845  1.00  0.00    -0.173 NA
HETATM    3  C4  UNL     1      26.038   2.310  51.782  1.00  0.00     0.067 C 
HETATM    4  C11 UNL     1      24.679   2.595  52.266  1.00  0.00     0.094 C 
HETATM    5  C12 UNL     1      24.146   3.559  51.232  1.00  0.00     0.151 C 
ENDROOT
BRANCH   1   6
HETATM    6  C3  UNL     1      25.370   5.283  49.902  1.00  0.00     0.192 A 
HETATM    7  S1  UNL     1      24.453   6.697  50.780  1.00  0.00    -0.058 SA
HETATM    8  C2  UNL     1      24.804   7.938  49.448  1.00  0.00     0.111 A 
HETATM    9  C1  UNL     1      25.582   7.026  48.544  1.00  0.00     0.171 A 
HETATM   10  N3  UNL     1      25.829   5.748  48.808  1.00  0.00    -0.198 NA
BRANCH   9  11
HETATM   11  O1  UNL     1      26.148   7.398  47.308  1.00  0.00    -0.344 OA
HETATM   12  H1  UNL     1      26.108   6.770  46.497  1.00  0.00     0.219 HD
ENDBRANCH   9  11
ENDBRANCH   1   6
BRANCH   5  13
HETATM   13  C13 UNL     1      23.261   2.876  50.252  1.00  0.00    -0.033 A 
HETATM   14  C14 UNL     1      22.555   1.700  50.407  1.00  0.00     0.009 A 
HETATM   15  C15 UNL     1      21.781   1.225  49.368  1.00  0.00     0.001 A 
HETATM   16  C16 UNL     1      21.680   1.886  48.161  1.00  0.00     0.000 A 
HETATM   17  C17 UNL     1      22.398   3.071  48.019  1.00  0.00     0.001 A 
HETATM   18  C18 UNL     1      23.175   3.557  49.049  1.00  0.00     0.009 A 
ENDBRANCH   5  13
BRANCH   3  19
HETATM   19  C5  UNL     1      26.874   1.225  52.285  1.00  0.00    -0.010 A 
HETATM   20  C6  UNL     1      26.571  -0.105  52.066  1.00  0.00     0.016 A 
HETATM   21  C7  UNL     1      27.386  -1.095  52.558  1.00  0.00     0.043 A 
HETATM   22  C8  UNL     1      28.529  -0.819  53.282  1.00  0.00     0.116 A 
HETATM   23  F1  UNL     1      29.314  -1.816  53.756  1.00  0.00    -0.206 F 
HETATM   24  C9  UNL     1      28.870   0.509  53.526  1.00  0.00     0.043 A 
HETATM   25  C10 UNL     1      28.034   1.485  53.020  1.00  0.00     0.016 A 
ENDBRANCH   3  19
TORSDOF 4
ENDMDL
MODEL 9
REMARK VINA RESULT:      -7.6      3.649      5.849
REMARK  4 active torsions:
REMARK  status: ('A' for Active; 'I' for Inactive)
REMARK    1  A    between atoms: O1_1  and  C1_2 
REMARK    2  A    between atoms: C3_5  and  N1_6 
REMARK    3  A    between atoms: C4_8  and  C5_9 
REMARK    4  A    between atoms: C12_17  and  C13_18 
ROOT
HETATM    1  N1  UNL     1      22.667   1.937  52.082  1.00  0.00    -0.236 N 
HETATM    2  N2  UNL     1      22.934   2.702  50.949  1.00  0.00    -0.173 NA
HETATM    3  C4  UNL     1      23.917   3.531  51.204  1.00  0.00     0.067 C 
HETATM    4  C11 UNL     1      24.398   3.376  52.585  1.00  0.00     0.094 C 
HETATM    5  C12 UNL     1      23.755   2.081  53.024  1.00  0.00     0.151 C 
ENDROOT
BRANCH   1   6
HETATM    6  C3  UNL     1      21.547   1.113  52.370  1.00  0.00     0.192 A 
HETATM    7  S1  UNL     1      20.130   1.267  51.113  1.00  0.00    -0.058 SA
HETATM    8  C2  UNL     1      19.044   0.039  51.977  1.00  0.00     0.111 A 
HETATM    9  C1  UNL     1      19.983  -0.280  53.104  1.00  0.00     0.171 A 
HETATM   10  N3  UNL     1      21.185   0.267  53.251  1.00  0.00    -0.198 NA
BRANCH   9  11
HETATM   11  O1  UNL     1      19.721  -1.192  54.147  1.00  0.00    -0.344 OA
HETATM   12  H1  UNL     1      19.046  -1.955  54.026  1.00  0.00     0.219 HD
ENDBRANCH   9  11
ENDBRANCH   1   6
BRANCH   5  13
HETATM   13  C13 UNL     1      24.709   0.943  52.949  1.00  0.00    -0.033 A 
HETATM   14  C14 UNL     1      24.661  -0.263  53.622  1.00  0.00     0.009 A 
HETATM   15  C15 UNL     1      25.652  -1.200  53.414  1.00  0.00     0.001 A 
HETATM   16  C16 UNL     1      26.705  -0.983  52.549  1.00  0.00     0.000 A 
HETATM   17  C17 UNL     1      26.740   0.237  51.878  1.00  0.00     0.001 A 
HETATM   18  C18 UNL     1      25.757   1.183  52.076  1.00  0.00     0.009 A 
ENDBRANCH   5  13
BRANCH   3  19
HETATM   19  C5  UNL     1      24.467   4.488  50.250  1.00  0.00    -0.010 A 
HETATM   20  C6  UNL     1      25.806   4.508  49.911  1.00  0.00     0.016 A 
HETATM   21  C7  UNL     1      26.283   5.426  49.007  1.00  0.00     0.043 A 
HETATM   22  C8  UNL     1      25.464   6.359  48.402  1.00  0.00     0.116 A 
HETATM   23  F1  UNL     1      25.962   7.254  47.514  1.00  0.00    -0.206 F 
HETATM   24  C9  UNL     1      24.108   6.375  48.716  1.00  0.00     0.043 A 
HETATM   25  C10 UNL     1      23.654   5.440  49.627  1.00  0.00     0.016 A 
ENDBRANCH   3  19
TORSDOF 4
ENDMDL
