MODEL 1
REMARK VINA RESULT:      -8.0      0.000      0.000
REMARK  9 active torsions:
REMARK  status: ('A' for Active; 'I' for Inactive)
REMARK    1  A    between atoms: C2_2  and  C3_3 
REMARK    2  A    between atoms: C3_3  and  O1_4 
REMARK    3  A    between atoms: O1_4  and  C4_5 
REMARK    4  A    between atoms: C7_10  and  N3_11 
REMARK    5  A    between atoms: N3_11  and  C8_12 
REMARK    6  A    between atoms: N4_22  and  C17_23 
REMARK    7  A    between atoms: C17_23  and  C18_24 
REMARK    8  A    between atoms: C18_24  and  C19_25 
REMARK    9  A    between atoms: C19_25  and  N5_26 
ROOT
HETATM    1  C4  UNL     1      22.672   1.064  51.699  1.00  0.00     0.277 C 
HETATM    2  C5  UNL     1      22.912   1.993  50.555  1.00  0.00     0.098 A 
HETATM    3  N1  UNL     1      22.272   1.642  49.437  1.00  0.00    -0.241 NA
HETATM    4  C6  UNL     1      22.281   2.408  48.350  1.00  0.00     0.235 A 
HETATM    5  N2  UNL     1      22.957   3.558  48.403  1.00  0.00    -0.224 NA
HETATM    6  C7  UNL     1      23.635   4.011  49.465  1.00  0.00     0.141 A 
HETATM    7  C14 UNL     1      23.597   3.180  50.561  1.00  0.00     0.040 A 
HETATM    8  C15 UNL     1      24.406   3.438  51.739  1.00  0.00     0.034 C 
HETATM    9  C16 UNL     1      24.440   2.514  52.695  1.00  0.00     0.089 C 
HETATM   10  N4  UNL     1      23.748   1.237  52.688  1.00  0.00    -0.359 N 
ENDROOT
BRANCH   6  11
HETATM   11  N3  UNL     1      24.343   5.211  49.529  1.00  0.00    -0.340 N 
HETATM   12  H10 UNL     1      23.932   6.065  49.950  1.00  0.00     0.167 HD
BRANCH  11  13
HETATM   13  C8  UNL     1      25.648   5.499  49.070  1.00  0.00     0.035 A 
HETATM   14  C9  UNL     1      26.699   4.585  49.033  1.00  0.00     0.029 A 
HETATM   15  C10 UNL     1      27.961   4.868  48.589  1.00  0.00     0.004 A 
HETATM   16  C11 UNL     1      28.272   6.130  48.134  1.00  0.00     0.019 A 
HETATM   17  C12 UNL     1      27.273   7.077  48.146  1.00  0.00     0.013 A 
HETATM   18 BR1  UNL     1      27.752   8.804  47.508  1.00  0.00    -0.051 Br
HETATM   19  C13 UNL     1      26.032   6.736  48.602  1.00  0.00     0.048 A 
ENDBRANCH  11  13
ENDBRANCH   6  11
BRANCH   1  20
HETATM   20  O1  UNL     1      21.548   1.604  52.357  1.00  0.00    -0.361 OA
BRANCH  20  21
HETATM   21  C3  UNL     1      20.576   0.742  52.720  1.00  0.00     0.170 C 
BRANCH  21  22
HETATM   22  C2  UNL     1      20.606   0.265  54.153  1.00  0.00     0.022 C 
HETATM   23  C1  UNL     1      20.953  -1.224  54.170  1.00  0.00     0.007 C 
ENDBRANCH  21  22
ENDBRANCH  20  21
ENDBRANCH   1  20
BRANCH  10  24
HETATM   24  C17 UNL     1      24.224   0.271  53.648  1.00  0.00     0.127 C 
BRANCH  24  25
HETATM   25  C18 UNL     1      25.464  -0.468  53.317  1.00  0.00     0.050 C 
BRANCH  25  26
HETATM   26  C19 UNL     1      26.485  -0.013  54.392  1.00  0.00     0.277 C 
BRANCH  26  27
HETATM   27  N5  UNL     1      27.799   0.085  53.840  1.00  0.00     0.113 N 
HETATM   28  C20 UNL     1      27.781   1.132  52.831  1.00  0.00     0.301 C 
HETATM   29  C21 UNL     1      28.408   2.290  53.582  1.00  0.00     0.200 C 
HETATM   30  O2  UNL     1      29.396   1.623  54.337  1.00  0.00    -0.361 OA
HETATM   31  C22 UNL     1      28.714   0.516  54.856  1.00  0.00     0.440 C 
ENDBRANCH  26  27
ENDBRANCH  25  26
ENDBRANCH  24  25
ENDBRANCH  10  24
TORSDOF 9
ENDMDL
MODEL 2
REMARK VINA RESULT:      -7.3      3.753      7.742
REMARK  9 active torsions:
REMARK  status: ('A' for Active; 'I' for Inactive)
REMARK    1  A    between atoms: C2_2  and  C3_3 
REMARK    2  A    between atoms: C3_3  and  O1_4 
REMARK    3  A    between atoms: O1_4  and  C4_5 
REMARK    4  A    between atoms: C7_10  and  N3_11 
REMARK    5  A    between atoms: N3_11  and  C8_12 
REMARK    6  A    between atoms: N4_22  and  C17_23 
REMARK    7  A    between atoms: C17_23  and  C18_24 
REMARK    8  A    between atoms: C18_24  and  C19_25 
REMARK    9  A    between atoms: C19_25  and  N5_26 
ROOT
HETATM    1  C4  UNL     1      25.685   6.377  49.267  1.00  0.00     0.277 C 
HETATM    2  C5  UNL     1      25.110   5.425  50.263  1.00  0.00     0.098 A 
HETATM    3  N1  UNL     1      24.197   5.976  51.066  1.00  0.00    -0.241 NA
HETATM    4  C6  UNL     1      23.501   5.257  51.941  1.00  0.00     0.235 A 
HETATM    5  N2  UNL     1      23.739   3.944  51.999  1.00  0.00    -0.224 NA
HETATM    6  C7  UNL     1      24.629   3.284  51.247  1.00  0.00     0.141 A 
HETATM    7  C14 UNL     1      25.324   4.074  50.361  1.00  0.00     0.040 A 
HETATM    8  C15 UNL     1      26.435   3.551  49.585  1.00  0.00     0.034 C 
HETATM    9  C16 UNL     1      27.161   4.405  48.869  1.00  0.00     0.089 C 
HETATM   10  N4  UNL     1      26.968   5.842  48.782  1.00  0.00    -0.359 N 
ENDROOT
BRANCH   6  11
HETATM   11  N3  UNL     1      24.883   1.913  51.300  1.00  0.00    -0.340 N 
HETATM   12  H10 UNL     1      24.626   1.279  50.521  1.00  0.00     0.167 HD
BRANCH  11  13
HETATM   13  C8  UNL     1      25.483   1.160  52.335  1.00  0.00     0.035 A 
HETATM   14  C9  UNL     1      24.786   0.422  53.290  1.00  0.00     0.029 A 
HETATM   15  C10 UNL     1      25.371  -0.304  54.290  1.00  0.00     0.004 A 
HETATM   16  C11 UNL     1      26.743  -0.347  54.409  1.00  0.00     0.019 A 
HETATM   17  C12 UNL     1      27.485   0.362  53.492  1.00  0.00     0.013 A 
HETATM   18 BR1  UNL     1      29.374   0.271  53.697  1.00  0.00    -0.051 Br
HETATM   19  C13 UNL     1      26.845   1.070  52.515  1.00  0.00     0.048 A 
ENDBRANCH  11  13
ENDBRANCH   6  11
BRANCH   1  20
HETATM   20  O1  UNL     1      24.845   6.254  48.141  1.00  0.00    -0.361 OA
BRANCH  20  21
HETATM   21  C3  UNL     1      24.182   7.360  47.746  1.00  0.00     0.170 C 
BRANCH  21  22
HETATM   22  C2  UNL     1      25.028   8.576  47.452  1.00  0.00     0.022 C 
HETATM   23  C1  UNL     1      25.633   8.430  46.055  1.00  0.00     0.007 C 
ENDBRANCH  21  22
ENDBRANCH  20  21
ENDBRANCH   1  20
BRANCH  10  24
HETATM   24  C17 UNL     1      28.083   6.584  48.245  1.00  0.00     0.127 C 
BRANCH  24  25
HETATM   25  C18 UNL     1      29.368   5.864  48.084  1.00  0.00     0.050 C 
BRANCH  25  26
HETATM   26  C19 UNL     1      30.384   6.969  47.694  1.00  0.00     0.277 C 
BRANCH  26  27
HETATM   27  N5  UNL     1      31.177   7.353  48.819  1.00  0.00     0.113 N 
HETATM   28  C20 UNL     1      31.758   6.147  49.386  1.00  0.00     0.301 C 
HETATM   29  C21 UNL     1      33.170   6.200  48.836  1.00  0.00     0.200 C 
HETATM   30  O2  UNL     1      33.436   7.584  48.902  1.00  0.00    -0.361 OA
HETATM   31  C22 UNL     1      32.275   8.163  48.376  1.00  0.00     0.440 C 
ENDBRANCH  26  27
ENDBRANCH  25  26
ENDBRANCH  24  25
ENDBRANCH  10  24
TORSDOF 9
ENDMDL
MODEL 3
REMARK VINA RESULT:      -7.2      1.113      1.565
REMARK  9 active torsions:
REMARK  status: ('A' for Active; 'I' for Inactive)
REMARK    1  A    between atoms: C2_2  and  C3_3 
REMARK    2  A    between atoms: C3_3  and  O1_4 
REMARK    3  A    between atoms: O1_4  and  C4_5 
REMARK    4  A    between atoms: C7_10  and  N3_11 
REMARK    5  A    between atoms: N3_11  and  C8_12 
REMARK    6  A    between atoms: N4_22  and  C17_23 
REMARK    7  A    between atoms: C17_23  and  C18_24 
REMARK    8  A    between atoms: C18_24  and  C19_25 
REMARK    9  A    between atoms: C19_25  and  N5_26 
ROOT
HETATM    1  C4  UNL     1      22.845   1.172  51.245  1.00  0.00     0.277 C 
HETATM    2  C5  UNL     1      22.983   2.212  50.182  1.00  0.00     0.098 A 
HETATM    3  N1  UNL     1      22.453   1.854  49.010  1.00  0.00    -0.241 NA
HETATM    4  C6  UNL     1      22.386   2.692  47.981  1.00  0.00     0.235 A 
HETATM    5  N2  UNL     1      22.869   3.926  48.150  1.00  0.00    -0.224 NA
HETATM    6  C7  UNL     1      23.422   4.395  49.275  1.00  0.00     0.141 A 
HETATM    7  C14 UNL     1      23.470   3.487  50.307  1.00  0.00     0.040 A 
HETATM    8  C15 UNL     1      24.178   3.776  51.542  1.00  0.00     0.034 C 
HETATM    9  C16 UNL     1      24.318   2.798  52.432  1.00  0.00     0.089 C 
HETATM   10  N4  UNL     1      23.838   1.433  52.299  1.00  0.00    -0.359 N 
ENDROOT
BRANCH   6  11
HETATM   11  N3  UNL     1      23.928   5.683  49.459  1.00  0.00    -0.340 N 
HETATM   12  H10 UNL     1      23.517   6.336  50.152  1.00  0.00     0.167 HD
BRANCH  11  13
HETATM   13  C8  UNL     1      25.004   6.318  48.799  1.00  0.00     0.035 A 
HETATM   14  C9  UNL     1      24.899   7.489  48.051  1.00  0.00     0.029 A 
HETATM   15  C10 UNL     1      25.944   8.099  47.413  1.00  0.00     0.004 A 
HETATM   16  C11 UNL     1      27.211   7.565  47.482  1.00  0.00     0.019 A 
HETATM   17  C12 UNL     1      27.376   6.408  48.209  1.00  0.00     0.013 A 
HETATM   18 BR1  UNL     1      29.144   5.708  48.275  1.00  0.00    -0.051 Br
HETATM   19  C13 UNL     1      26.295   5.842  48.825  1.00  0.00     0.048 A 
ENDBRANCH  11  13
ENDBRANCH   6  11
BRANCH   1  20
HETATM   20  O1  UNL     1      21.623   1.479  51.878  1.00  0.00    -0.361 OA
BRANCH  20  21
HETATM   21  C3  UNL     1      20.697   0.500  51.933  1.00  0.00     0.170 C 
BRANCH  21  22
HETATM   22  C2  UNL     1      19.254   0.947  51.972  1.00  0.00     0.022 C 
HETATM   23  C1  UNL     1      18.373  -0.192  51.457  1.00  0.00     0.007 C 
ENDBRANCH  21  22
ENDBRANCH  20  21
ENDBRANCH   1  20
BRANCH  10  24
HETATM   24  C17 UNL     1      24.420   0.481  53.215  1.00  0.00     0.127 C 
BRANCH  24  25
HETATM   25  C18 UNL     1      25.645  -0.226  52.776  1.00  0.00     0.050 C 
BRANCH  25  26
HETATM   26  C19 UNL     1      26.560  -0.228  54.028  1.00  0.00     0.277 C 
BRANCH  26  27
HETATM   27  N5  UNL     1      27.906   0.104  53.678  1.00  0.00     0.113 N 
HETATM   28  C20 UNL     1      27.864   1.260  52.798  1.00  0.00     0.301 C 
HETATM   29  C21 UNL     1      28.223   2.383  53.751  1.00  0.00     0.200 C 
HETATM   30  O2  UNL     1      29.195   1.755  54.558  1.00  0.00    -0.361 OA
HETATM   31  C22 UNL     1      28.618   0.514  54.853  1.00  0.00     0.440 C 
ENDBRANCH  26  27
ENDBRANCH  25  26
ENDBRANCH  24  25
ENDBRANCH  10  24
TORSDOF 9
ENDMDL
MODEL 4
REMARK VINA RESULT:      -7.2      4.135      8.059
REMARK  9 active torsions:
REMARK  status: ('A' for Active; 'I' for Inactive)
REMARK    1  A    between atoms: C2_2  and  C3_3 
REMARK    2  A    between atoms: C3_3  and  O1_4 
REMARK    3  A    between atoms: O1_4  and  C4_5 
REMARK    4  A    between atoms: C7_10  and  N3_11 
REMARK    5  A    between atoms: N3_11  and  C8_12 
REMARK    6  A    between atoms: N4_22  and  C17_23 
REMARK    7  A    between atoms: C17_23  and  C18_24 
REMARK    8  A    between atoms: C18_24  and  C19_25 
REMARK    9  A    between atoms: C19_25  and  N5_26 
ROOT
HETATM    1  C4  UNL     1      26.254   6.850  49.164  1.00  0.00     0.277 C 
HETATM    2  C5  UNL     1      25.456   5.921  50.018  1.00  0.00     0.098 A 
HETATM    3  N1  UNL     1      24.566   6.540  50.797  1.00  0.00    -0.241 NA
HETATM    4  C6  UNL     1      23.695   5.869  51.543  1.00  0.00     0.235 A 
HETATM    5  N2  UNL     1      23.730   4.534  51.495  1.00  0.00    -0.224 NA
HETATM    6  C7  UNL     1      24.577   3.807  50.755  1.00  0.00     0.141 A 
HETATM    7  C14 UNL     1      25.458   4.550  50.004  1.00  0.00     0.040 A 
HETATM    8  C15 UNL     1      26.546   3.926  49.270  1.00  0.00     0.034 C 
HETATM    9  C16 UNL     1      27.452   4.712  48.696  1.00  0.00     0.089 C 
HETATM   10  N4  UNL     1      27.482   6.164  48.731  1.00  0.00    -0.359 N 
ENDROOT
BRANCH   6  11
HETATM   11  N3  UNL     1      24.619   2.414  50.698  1.00  0.00    -0.340 N 
HETATM   12  H10 UNL     1      24.726   1.907  49.799  1.00  0.00     0.167 HD
BRANCH  11  13
HETATM   13  C8  UNL     1      24.529   1.478  51.753  1.00  0.00     0.035 A 
HETATM   14  C9  UNL     1      25.605   0.765  52.280  1.00  0.00     0.029 A 
HETATM   15  C10 UNL     1      25.511  -0.140  53.300  1.00  0.00     0.004 A 
HETATM   16  C11 UNL     1      24.295  -0.406  53.888  1.00  0.00     0.019 A 
HETATM   17  C12 UNL     1      23.195   0.270  53.410  1.00  0.00     0.013 A 
HETATM   18 BR1  UNL     1      21.538  -0.130  54.253  1.00  0.00    -0.051 Br
HETATM   19  C13 UNL     1      23.349   1.163  52.387  1.00  0.00     0.048 A 
ENDBRANCH  11  13
ENDBRANCH   6  11
BRANCH   1  20
HETATM   20  O1  UNL     1      25.511   6.952  47.970  1.00  0.00    -0.361 OA
BRANCH  20  21
HETATM   21  C3  UNL     1      25.368   8.183  47.438  1.00  0.00     0.170 C 
BRANCH  21  22
HETATM   22  C2  UNL     1      26.143   8.458  46.171  1.00  0.00     0.022 C 
HETATM   23  C1  UNL     1      27.168   9.557  46.450  1.00  0.00     0.007 C 
ENDBRANCH  21  22
ENDBRANCH  20  21
ENDBRANCH   1  20
BRANCH  10  24
HETATM   24  C17 UNL     1      28.739   6.765  48.355  1.00  0.00     0.127 C 
BRANCH  24  25
HETATM   25  C18 UNL     1      29.829   5.858  47.927  1.00  0.00     0.050 C 
BRANCH  25  26
HETATM   26  C19 UNL     1      31.049   6.288  48.782  1.00  0.00     0.277 C 
BRANCH  26  27
HETATM   27  N5  UNL     1      32.069   5.288  48.756  1.00  0.00     0.113 N 
HETATM   28  C20 UNL     1      31.985   4.600  47.478  1.00  0.00     0.301 C 
HETATM   29  C21 UNL     1      33.115   5.252  46.706  1.00  0.00     0.200 C 
HETATM   30  O2  UNL     1      34.087   5.400  47.718  1.00  0.00    -0.361 OA
HETATM   31  C22 UNL     1      33.357   5.917  48.795  1.00  0.00     0.440 C 
ENDBRANCH  26  27
ENDBRANCH  25  26
ENDBRANCH  24  25
ENDBRANCH  10  24
TORSDOF 9
ENDMDL
MODEL 5
REMARK VINA RESULT:      -7.1      4.121      7.764
REMARK  9 active torsions:
REMARK  status: ('A' for Active; 'I' for Inactive)
REMARK    1  A    between atoms: C2_2  and  C3_3 
REMARK    2  A    between atoms: C3_3  and  O1_4 
REMARK    3  A    between atoms: O1_4  and  C4_5 
REMARK    4  A    between atoms: C7_10  and  N3_11 
REMARK    5  A    between atoms: N3_11  and  C8_12 
REMARK    6  A    between atoms: N4_22  and  C17_23 
REMARK    7  A    between atoms: C17_23  and  C18_24 
REMARK    8  A    between atoms: C18_24  and  C19_25 
REMARK    9  A    between atoms: C19_25  and  N5_26 
ROOT
HETATM    1  C4  UNL     1      25.596   6.349  49.405  1.00  0.00     0.277 C 
HETATM    2  C5  UNL     1      25.014   5.375  50.375  1.00  0.00     0.098 A 
HETATM    3  N1  UNL     1      24.109   5.912  51.196  1.00  0.00    -0.241 NA
HETATM    4  C6  UNL     1      23.408   5.175  52.052  1.00  0.00     0.235 A 
HETATM    5  N2  UNL     1      23.633   3.859  52.071  1.00  0.00    -0.224 NA
HETATM    6  C7  UNL     1      24.514   3.212  51.299  1.00  0.00     0.141 A 
HETATM    7  C14 UNL     1      25.215   4.020  50.434  1.00  0.00     0.040 A 
HETATM    8  C15 UNL     1      26.319   3.509  49.640  1.00  0.00     0.034 C 
HETATM    9  C16 UNL     1      27.051   4.375  48.946  1.00  0.00     0.089 C 
HETATM   10  N4  UNL     1      26.872   5.816  48.901  1.00  0.00    -0.359 N 
ENDROOT
BRANCH   6  11
HETATM   11  N3  UNL     1      24.755   1.837  51.312  1.00  0.00    -0.340 N 
HETATM   12  H10 UNL     1      24.990   1.316  50.448  1.00  0.00     0.167 HD
BRANCH  11  13
HETATM   13  C8  UNL     1      24.727   0.941  52.405  1.00  0.00     0.035 A 
HETATM   14  C9  UNL     1      25.842   0.548  53.141  1.00  0.00     0.029 A 
HETATM   15  C10 UNL     1      25.810  -0.321  54.197  1.00  0.00     0.004 A 
HETATM   16  C11 UNL     1      24.618  -0.877  54.606  1.00  0.00     0.019 A 
HETATM   17  C12 UNL     1      23.481  -0.524  53.915  1.00  0.00     0.013 A 
HETATM   18 BR1  UNL     1      21.860  -1.318  54.518  1.00  0.00    -0.051 Br
HETATM   19  C13 UNL     1      23.574   0.348  52.869  1.00  0.00     0.048 A 
ENDBRANCH  11  13
ENDBRANCH   6  11
BRANCH   1  20
HETATM   20  O1  UNL     1      24.752   6.267  48.278  1.00  0.00    -0.361 OA
BRANCH  20  21
HETATM   21  C3  UNL     1      24.150   7.405  47.877  1.00  0.00     0.170 C 
BRANCH  21  22
HETATM   22  C2  UNL     1      22.668   7.510  48.154  1.00  0.00     0.022 C 
HETATM   23  C1  UNL     1      22.443   8.561  49.241  1.00  0.00     0.007 C 
ENDBRANCH  21  22
ENDBRANCH  20  21
ENDBRANCH   1  20
BRANCH  10  24
HETATM   24  C17 UNL     1      27.994   6.562  48.383  1.00  0.00     0.127 C 
BRANCH  24  25
HETATM   25  C18 UNL     1      29.274   5.838  48.209  1.00  0.00     0.050 C 
BRANCH  25  26
HETATM   26  C19 UNL     1      30.338   6.959  48.079  1.00  0.00     0.277 C 
BRANCH  26  27
HETATM   27  N5  UNL     1      31.350   6.821  49.078  1.00  0.00     0.113 N 
HETATM   28  C20 UNL     1      32.142   5.646  48.750  1.00  0.00     0.301 C 
HETATM   29  C21 UNL     1      33.368   6.271  48.116  1.00  0.00     0.200 C 
HETATM   30  O2  UNL     1      33.537   7.418  48.921  1.00  0.00    -0.361 OA
HETATM   31  C22 UNL     1      32.242   7.942  49.013  1.00  0.00     0.440 C 
ENDBRANCH  26  27
ENDBRANCH  25  26
ENDBRANCH  24  25
ENDBRANCH  10  24
TORSDOF 9
ENDMDL
MODEL 6
REMARK VINA RESULT:      -6.9      4.399      8.264
REMARK  9 active torsions:
REMARK  status: ('A' for Active; 'I' for Inactive)
REMARK    1  A    between atoms: C2_2  and  C3_3 
REMARK    2  A    between atoms: C3_3  and  O1_4 
REMARK    3  A    between atoms: O1_4  and  C4_5 
REMARK    4  A    between atoms: C7_10  and  N3_11 
REMARK    5  A    between atoms: N3_11  and  C8_12 
REMARK    6  A    between atoms: N4_22  and  C17_23 
REMARK    7  A    between atoms: C17_23  and  C18_24 
REMARK    8  A    between atoms: C18_24  and  C19_25 
REMARK    9  A    between atoms: C19_25  and  N5_26 
ROOT
HETATM    1  C4  UNL     1      27.299   7.394  48.705  1.00  0.00     0.277 C 
HETATM    2  C5  UNL     1      26.317   6.620  49.521  1.00  0.00     0.098 A 
HETATM    3  N1  UNL     1      25.470   7.388  50.211  1.00  0.00    -0.241 NA
HETATM    4  C6  UNL     1      24.460   6.875  50.906  1.00  0.00     0.235 A 
HETATM    5  N2  UNL     1      24.308   5.548  50.898  1.00  0.00    -0.224 NA
HETATM    6  C7  UNL     1      25.093   4.681  50.246  1.00  0.00     0.141 A 
HETATM    7  C14 UNL     1      26.124   5.263  49.546  1.00  0.00     0.040 A 
HETATM    8  C15 UNL     1      27.162   4.465  48.916  1.00  0.00     0.034 C 
HETATM    9  C16 UNL     1      28.210   5.093  48.392  1.00  0.00     0.089 C 
HETATM   10  N4  UNL     1      28.445   6.526  48.388  1.00  0.00    -0.359 N 
ENDROOT
BRANCH   6  11
HETATM   11  N3  UNL     1      24.940   3.294  50.232  1.00  0.00    -0.340 N 
HETATM   12  H10 UNL     1      24.571   2.795  49.402  1.00  0.00     0.167 HD
BRANCH  11  13
HETATM   13  C8  UNL     1      25.224   2.358  51.252  1.00  0.00     0.035 A 
HETATM   14  C9  UNL     1      24.290   1.494  51.822  1.00  0.00     0.029 A 
HETATM   15  C10 UNL     1      24.570   0.591  52.809  1.00  0.00     0.004 A 
HETATM   16  C11 UNL     1      25.846   0.482  53.314  1.00  0.00     0.019 A 
HETATM   17  C12 UNL     1      26.812   1.310  52.789  1.00  0.00     0.013 A 
HETATM   18 BR1  UNL     1      28.559   1.123  53.519  1.00  0.00    -0.051 Br
HETATM   19  C13 UNL     1      26.474   2.194  51.804  1.00  0.00     0.048 A 
ENDBRANCH  11  13
ENDBRANCH   6  11
BRANCH   1  20
HETATM   20  O1  UNL     1      26.667   7.553  47.455  1.00  0.00    -0.361 OA
BRANCH  20  21
HETATM   21  C3  UNL     1      26.620   8.801  46.945  1.00  0.00     0.170 C 
BRANCH  21  22
HETATM   22  C2  UNL     1      25.366   9.593  47.232  1.00  0.00     0.022 C 
HETATM   23  C1  UNL     1      25.711  10.725  48.200  1.00  0.00     0.007 C 
ENDBRANCH  21  22
ENDBRANCH  20  21
ENDBRANCH   1  20
BRANCH  10  24
HETATM   24  C17 UNL     1      29.799   6.930  48.094  1.00  0.00     0.127 C 
BRANCH  24  25
HETATM   25  C18 UNL     1      30.799   5.859  47.878  1.00  0.00     0.050 C 
BRANCH  25  26
HETATM   26  C19 UNL     1      32.037   6.316  48.692  1.00  0.00     0.277 C 
BRANCH  26  27
HETATM   27  N5  UNL     1      33.228   6.222  47.908  1.00  0.00     0.113 N 
HETATM   28  C20 UNL     1      33.582   7.564  47.475  1.00  0.00     0.301 C 
HETATM   29  C21 UNL     1      34.688   7.918  48.448  1.00  0.00     0.200 C 
HETATM   30  O2  UNL     1      35.355   6.680  48.566  1.00  0.00    -0.361 OA
HETATM   31  C22 UNL     1      34.308   5.764  48.732  1.00  0.00     0.440 C 
ENDBRANCH  26  27
ENDBRANCH  25  26
ENDBRANCH  24  25
ENDBRANCH  10  24
TORSDOF 9
ENDMDL
MODEL 7
REMARK VINA RESULT:      -6.8      5.328      9.595
REMARK  9 active torsions:
REMARK  status: ('A' for Active; 'I' for Inactive)
REMARK    1  A    between atoms: C2_2  and  C3_3 
REMARK    2  A    between atoms: C3_3  and  O1_4 
REMARK    3  A    between atoms: O1_4  and  C4_5 
REMARK    4  A    between atoms: C7_10  and  N3_11 
REMARK    5  A    between atoms: N3_11  and  C8_12 
REMARK    6  A    between atoms: N4_22  and  C17_23 
REMARK    7  A    between atoms: C17_23  and  C18_24 
REMARK    8  A    between atoms: C18_24  and  C19_25 
REMARK    9  A    between atoms: C19_25  and  N5_26 
ROOT
HETATM    1  C4  UNL     1      30.079   8.889  48.494  1.00  0.00     0.277 C 
HETATM    2  C5  UNL     1      28.733   8.477  48.993  1.00  0.00     0.098 A 
HETATM    3  N1  UNL     1      28.131   9.406  49.739  1.00  0.00    -0.241 NA
HETATM    4  C6  UNL     1      26.885   9.258  50.178  1.00  0.00     0.235 A 
HETATM    5  N2  UNL     1      26.236   8.139  49.848  1.00  0.00    -0.224 NA
HETATM    6  C7  UNL     1      26.737   7.141  49.109  1.00  0.00     0.141 A 
HETATM    7  C14 UNL     1      28.029   7.342  48.683  1.00  0.00     0.040 A 
HETATM    8  C15 UNL     1      28.780   6.296  48.010  1.00  0.00     0.034 C 
HETATM    9  C16 UNL     1      30.071   6.503  47.767  1.00  0.00     0.089 C 
HETATM   10  N4  UNL     1      30.838   7.685  48.119  1.00  0.00    -0.359 N 
ENDROOT
BRANCH   6  11
HETATM   11  N3  UNL     1      26.066   5.969  48.759  1.00  0.00    -0.340 N 
HETATM   12  H10 UNL     1      25.659   5.834  47.815  1.00  0.00     0.167 HD
BRANCH  11  13
HETATM   13  C8  UNL     1      25.813   4.821  49.545  1.00  0.00     0.035 A 
HETATM   14  C9  UNL     1      26.692   3.750  49.695  1.00  0.00     0.029 A 
HETATM   15  C10 UNL     1      26.442   2.642  50.456  1.00  0.00     0.004 A 
HETATM   16  C11 UNL     1      25.255   2.521  51.144  1.00  0.00     0.019 A 
HETATM   17  C12 UNL     1      24.347   3.550  51.033  1.00  0.00     0.013 A 
HETATM   18 BR1  UNL     1      22.724   3.337  52.002  1.00  0.00    -0.051 Br
HETATM   19  C13 UNL     1      24.651   4.633  50.259  1.00  0.00     0.048 A 
ENDBRANCH  11  13
ENDBRANCH   6  11
BRANCH   1  20
HETATM   20  O1  UNL     1      29.819   9.500  47.250  1.00  0.00    -0.361 OA
BRANCH  20  21
HETATM   21  C3  UNL     1      30.164  10.797  47.118  1.00  0.00     0.170 C 
BRANCH  21  22
HETATM   22  C2  UNL     1      31.285  11.283  48.006  1.00  0.00     0.022 C 
HETATM   23  C1  UNL     1      32.572  11.351  47.182  1.00  0.00     0.007 C 
ENDBRANCH  21  22
ENDBRANCH  20  21
ENDBRANCH   1  20
BRANCH  10  24
HETATM   24  C17 UNL     1      32.272   7.525  48.082  1.00  0.00     0.127 C 
BRANCH  24  25
HETATM   25  C18 UNL     1      32.811   6.156  48.246  1.00  0.00     0.050 C 
BRANCH  25  26
HETATM   26  C19 UNL     1      33.276   5.751  46.823  1.00  0.00     0.277 C 
BRANCH  26  27
HETATM   27  N5  UNL     1      34.609   5.235  46.849  1.00  0.00     0.113 N 
HETATM   28  C20 UNL     1      34.830   4.639  48.157  1.00  0.00     0.301 C 
HETATM   29  C21 UNL     1      34.656   3.164  47.854  1.00  0.00     0.200 C 
HETATM   30  O2  UNL     1      35.260   3.074  46.582  1.00  0.00    -0.361 OA
HETATM   31  C22 UNL     1      34.729   4.172  45.894  1.00  0.00     0.440 C 
ENDBRANCH  26  27
ENDBRANCH  25  26
ENDBRANCH  24  25
ENDBRANCH  10  24
TORSDOF 9
ENDMDL
MODEL 8
REMARK VINA RESULT:      -6.8      3.137      3.637
REMARK  9 active torsions:
REMARK  status: ('A' for Active; 'I' for Inactive)
REMARK    1  A    between atoms: C2_2  and  C3_3 
REMARK    2  A    between atoms: C3_3  and  O1_4 
REMARK    3  A    between atoms: O1_4  and  C4_5 
REMARK    4  A    between atoms: C7_10  and  N3_11 
REMARK    5  A    between atoms: N3_11  and  C8_12 
REMARK    6  A    between atoms: N4_22  and  C17_23 
REMARK    7  A    between atoms: C17_23  and  C18_24 
REMARK    8  A    between atoms: C18_24  and  C19_25 
REMARK    9  A    between atoms: C19_25  and  N5_26 
ROOT
HETATM    1  C4  UNL     1      22.619   1.634  51.577  1.00  0.00     0.277 C 
HETATM    2  C5  UNL     1      21.858   2.838  51.129  1.00  0.00     0.098 A 
HETATM    3  N1  UNL     1      20.707   2.547  50.518  1.00  0.00    -0.241 NA
HETATM    4  C6  UNL     1      19.847   3.491  50.149  1.00  0.00     0.235 A 
HETATM    5  N2  UNL     1      20.165   4.761  50.410  1.00  0.00    -0.224 NA
HETATM    6  C7  UNL     1      21.288   5.171  51.014  1.00  0.00     0.141 A 
HETATM    7  C14 UNL     1      22.144   4.156  51.372  1.00  0.00     0.040 A 
HETATM    8  C15 UNL     1      23.474   4.430  51.890  1.00  0.00     0.034 C 
HETATM    9  C16 UNL     1      24.305   3.407  52.067  1.00  0.00     0.089 C 
HETATM   10  N4  UNL     1      24.027   2.009  51.783  1.00  0.00    -0.359 N 
ENDROOT
BRANCH   6  11
HETATM   11  N3  UNL     1      21.628   6.496  51.290  1.00  0.00    -0.340 N 
HETATM   12  H10 UNL     1      21.838   6.815  52.254  1.00  0.00     0.167 HD
BRANCH  11  13
HETATM   13  C8  UNL     1      21.742   7.588  50.401  1.00  0.00     0.035 A 
HETATM   14  C9  UNL     1      22.919   7.976  49.764  1.00  0.00     0.029 A 
HETATM   15  C10 UNL     1      23.025   9.035  48.905  1.00  0.00     0.004 A 
HETATM   16  C11 UNL     1      21.923   9.807  48.611  1.00  0.00     0.019 A 
HETATM   17  C12 UNL     1      20.731   9.471  49.211  1.00  0.00     0.013 A 
HETATM   18 BR1  UNL     1      19.239  10.567  48.775  1.00  0.00    -0.051 Br
HETATM   19  C13 UNL     1      20.686   8.403  50.061  1.00  0.00     0.048 A 
ENDBRANCH  11  13
ENDBRANCH   6  11
BRANCH   1  20
HETATM   20  O1  UNL     1      22.160   1.398  52.889  1.00  0.00    -0.361 OA
BRANCH  20  21
HETATM   21  C3  UNL     1      21.769   0.142  53.187  1.00  0.00     0.170 C 
BRANCH  21  22
HETATM   22  C2  UNL     1      22.691  -0.650  54.083  1.00  0.00     0.022 C 
HETATM   23  C1  UNL     1      21.878  -1.735  54.791  1.00  0.00     0.007 C 
ENDBRANCH  21  22
ENDBRANCH  20  21
ENDBRANCH   1  20
BRANCH  10  24
HETATM   24  C17 UNL     1      25.186   1.151  51.711  1.00  0.00     0.127 C 
BRANCH  24  25
HETATM   25  C18 UNL     1      25.883   0.837  52.979  1.00  0.00     0.050 C 
BRANCH  25  26
HETATM   26  C19 UNL     1      26.816  -0.349  52.625  1.00  0.00     0.277 C 
BRANCH  26  27
HETATM   27  N5  UNL     1      27.641  -0.701  53.737  1.00  0.00     0.113 N 
HETATM   28  C20 UNL     1      29.028  -0.555  53.326  1.00  0.00     0.301 C 
HETATM   29  C21 UNL     1      29.392   0.778  53.947  1.00  0.00     0.200 C 
HETATM   30  O2  UNL     1      28.698   0.707  55.174  1.00  0.00    -0.361 OA
HETATM   31  C22 UNL     1      27.433   0.236  54.802  1.00  0.00     0.440 C 
ENDBRANCH  26  27
ENDBRANCH  25  26
ENDBRANCH  24  25
ENDBRANCH  10  24
TORSDOF 9
ENDMDL
MODEL 9
REMARK VINA RESULT:      -6.8      5.045      7.446
REMARK  9 active torsions:
REMARK  status: ('A' for Active; 'I' for Inactive)
REMARK    1  A    between atoms: C2_2  and  C3_3 
REMARK    2  A    between atoms: C3_3  and  O1_4 
REMARK    3  A    between atoms: O1_4  and  C4_5 
REMARK    4  A    between atoms: C7_10  and  N3_11 
REMARK    5  A    between atoms: N3_11  and  C8_12 
REMARK    6  A    between atoms: N4_22  and  C17_23 
REMARK    7  A    between atoms: C17_23  and  C18_24 
REMARK    8  A    between atoms: C18_24  and  C19_25 
REMARK    9  A    between atoms: C19_25  and  N5_26 
ROOT
HETATM    1  C4  UNL     1      21.499   1.099  52.215  1.00  0.00     0.277 C 
HETATM    2  C5  UNL     1      20.064   1.279  51.846  1.00  0.00     0.098 A 
HETATM    3  N1  UNL     1      19.417   0.131  51.632  1.00  0.00    -0.241 NA
HETATM    4  C6  UNL     1      18.109   0.091  51.401  1.00  0.00     0.235 A 
HETATM    5  N2  UNL     1      17.442   1.249  51.389  1.00  0.00    -0.224 NA
HETATM    6  C7  UNL     1      17.983   2.457  51.588  1.00  0.00     0.141 A 
HETATM    7  C14 UNL     1      19.339   2.443  51.819  1.00  0.00     0.040 A 
HETATM    8  C15 UNL     1      20.111   3.671  51.896  1.00  0.00     0.034 C 
HETATM    9  C16 UNL     1      21.436   3.580  51.964  1.00  0.00     0.089 C 
HETATM   10  N4  UNL     1      22.220   2.357  51.959  1.00  0.00    -0.359 N 
ENDROOT
BRANCH   6  11
HETATM   11  N3  UNL     1      17.294   3.670  51.578  1.00  0.00    -0.340 N 
HETATM   12  H10 UNL     1      17.790   4.580  51.623  1.00  0.00     0.167 HD
BRANCH  11  13
HETATM   13  C8  UNL     1      15.901   3.901  51.515  1.00  0.00     0.035 A 
HETATM   14  C9  UNL     1      15.188   4.156  50.345  1.00  0.00     0.029 A 
HETATM   15  C10 UNL     1      13.840   4.380  50.290  1.00  0.00     0.004 A 
HETATM   16  C11 UNL     1      13.083   4.362  51.440  1.00  0.00     0.019 A 
HETATM   17  C12 UNL     1      13.733   4.113  52.628  1.00  0.00     0.013 A 
HETATM   18 BR1  UNL     1      12.645   4.099  54.188  1.00  0.00    -0.051 Br
HETATM   19  C13 UNL     1      15.082   3.898  52.621  1.00  0.00     0.048 A 
ENDBRANCH  11  13
ENDBRANCH   6  11
BRANCH   1  20
HETATM   20  O1  UNL     1      21.492   1.019  53.623  1.00  0.00    -0.361 OA
BRANCH  20  21
HETATM   21  C3  UNL     1      22.266   0.071  54.189  1.00  0.00     0.170 C 
BRANCH  21  22
HETATM   22  C2  UNL     1      22.073  -1.339  53.684  1.00  0.00     0.022 C 
HETATM   23  C1  UNL     1      20.804  -1.917  54.312  1.00  0.00     0.007 C 
ENDBRANCH  21  22
ENDBRANCH  20  21
ENDBRANCH   1  20
BRANCH  10  24
HETATM   24  C17 UNL     1      23.625   2.524  51.675  1.00  0.00     0.127 C 
BRANCH  24  25
HETATM   25  C18 UNL     1      24.570   2.394  52.808  1.00  0.00     0.050 C 
BRANCH  25  26
HETATM   26  C19 UNL     1      25.714   1.504  52.257  1.00  0.00     0.277 C 
BRANCH  26  27
HETATM   27  N5  UNL     1      25.706   0.218  52.879  1.00  0.00     0.113 N 
HETATM   28  C20 UNL     1      26.752  -0.581  52.261  1.00  0.00     0.301 C 
HETATM   29  C21 UNL     1      27.856  -0.493  53.296  1.00  0.00     0.200 C 
HETATM   30  O2  UNL     1      27.112  -0.545  54.494  1.00  0.00    -0.361 OA
HETATM   31  C22 UNL     1      26.062   0.353  54.261  1.00  0.00     0.440 C 
ENDBRANCH  26  27
ENDBRANCH  25  26
ENDBRANCH  24  25
ENDBRANCH  10  24
TORSDOF 9
ENDMDL
