MODEL 1
REMARK VINA RESULT:      -8.5      0.000      0.000
REMARK  0 active torsions:
REMARK  status: ('A' for Active; 'I' for Inactive)
ROOT
HETATM    1  C1  UNL     1      23.018   2.888  48.516  1.00  0.00     0.181 C 
HETATM    2  N1  UNL     1      22.170   2.547  49.645  1.00  0.00    -0.258 N 
HETATM    3  N2  UNL     1      20.858   2.709  49.672  1.00  0.00    -0.183 NA
HETATM    4  C2  UNL     1      20.370   2.298  50.856  1.00  0.00     0.150 A 
HETATM    5  C3  UNL     1      21.438   1.860  51.598  1.00  0.00     0.010 A 
HETATM    6  C4  UNL     1      22.596   2.017  50.826  1.00  0.00     0.129 A 
HETATM    7  N3  UNL     1      23.902   1.647  51.320  1.00  0.00    -0.342 N 
HETATM    8  C5  UNL     1      23.955   1.635  52.790  1.00  0.00     0.355 C 
HETATM    9  N4  UNL     1      25.227   1.320  53.322  1.00  0.00     0.139 N 
HETATM   10  C6  UNL     1      25.507  -0.063  53.567  1.00  0.00     0.234 C 
HETATM   11  C7  UNL     1      26.315  -0.098  54.856  1.00  0.00     0.084 C 
HETATM   12  C8  UNL     1      27.641   0.571  54.562  1.00  0.00     0.127 C 
HETATM   13  N5  UNL     1      28.559  -0.520  54.201  1.00  0.00    -0.361 N 
HETATM   14  C9  UNL     1      28.268  -1.656  53.396  1.00  0.00     0.217 C 
HETATM   15  O1  UNL     1      29.128  -2.584  53.340  1.00  0.00    -0.274 OA
HETATM   16  C10 UNL     1      27.008  -1.855  52.592  1.00  0.00     0.107 C 
HETATM   17  C11 UNL     1      26.308  -0.552  52.381  1.00  0.00     0.073 C 
HETATM   18  N6  UNL     1      24.347  -0.883  53.810  1.00  0.00    -0.365 N 
HETATM   19  C12 UNL     1      22.987  -0.489  53.686  1.00  0.00     0.092 C 
HETATM   20  C13 UNL     1      22.850   0.730  53.191  1.00  0.00    -0.009 C 
HETATM   21  C14 UNL     1      21.468   1.296  52.995  1.00  0.00     0.083 C 
HETATM   22  H5  UNL     1      24.571   1.456  50.543  1.00  0.00     0.163 HD
HETATM   23  H7  UNL     1      25.937   1.764  52.678  1.00  0.00     0.322 HD
HETATM   24  H12 UNL     1      29.554  -0.472  54.572  1.00  0.00     0.162 HD
HETATM   25  H17 UNL     1      24.590  -1.858  54.106  1.00  0.00     0.161 HD
ENDROOT
TORSDOF 0
ENDMDL
MODEL 2
REMARK VINA RESULT:      -8.3      2.124      2.391
REMARK  0 active torsions:
REMARK  status: ('A' for Active; 'I' for Inactive)
ROOT
HETATM    1  C1  UNL     1      25.959   5.555  48.976  1.00  0.00     0.181 C 
HETATM    2  N1  UNL     1      24.740   5.320  49.731  1.00  0.00    -0.258 N 
HETATM    3  N2  UNL     1      23.599   5.955  49.527  1.00  0.00    -0.183 NA
HETATM    4  C2  UNL     1      22.666   5.509  50.388  1.00  0.00     0.150 A 
HETATM    5  C3  UNL     1      23.265   4.548  51.162  1.00  0.00     0.010 A 
HETATM    6  C4  UNL     1      24.596   4.422  50.745  1.00  0.00     0.129 A 
HETATM    7  N3  UNL     1      25.507   3.485  51.362  1.00  0.00    -0.342 N 
HETATM    8  C5  UNL     1      25.093   3.130  52.728  1.00  0.00     0.355 C 
HETATM    9  N4  UNL     1      25.978   2.248  53.391  1.00  0.00     0.139 N 
HETATM   10  C6  UNL     1      25.735   0.844  53.239  1.00  0.00     0.234 C 
HETATM   11  C7  UNL     1      26.051   0.223  54.592  1.00  0.00     0.084 C 
HETATM   12  C8  UNL     1      27.540   0.387  54.814  1.00  0.00     0.127 C 
HETATM   13  N5  UNL     1      28.149  -0.861  54.331  1.00  0.00    -0.361 N 
HETATM   14  C9  UNL     1      27.793  -1.594  53.165  1.00  0.00     0.217 C 
HETATM   15  O1  UNL     1      28.305  -2.742  53.002  1.00  0.00    -0.274 OA
HETATM   16  C10 UNL     1      26.848  -1.118  52.090  1.00  0.00     0.107 C 
HETATM   17  C11 UNL     1      26.678   0.364  52.159  1.00  0.00     0.073 C 
HETATM   18  N6  UNL     1      24.366   0.493  52.957  1.00  0.00    -0.365 N 
HETATM   19  C12 UNL     1      23.299   1.389  52.678  1.00  0.00     0.092 C 
HETATM   20  C13 UNL     1      23.699   2.646  52.577  1.00  0.00    -0.009 C 
HETATM   21  C14 UNL     1      22.686   3.721  52.281  1.00  0.00     0.083 C 
HETATM   22  H5  UNL     1      26.293   3.232  50.726  1.00  0.00     0.163 HD
HETATM   23  H7  UNL     1      26.952   2.521  53.088  1.00  0.00     0.322 HD
HETATM   24  H12 UNL     1      28.944  -1.277  54.901  1.00  0.00     0.162 HD
HETATM   25  H17 UNL     1      24.198  -0.541  52.974  1.00  0.00     0.161 HD
ENDROOT
TORSDOF 0
ENDMDL
MODEL 3
REMARK VINA RESULT:      -7.5      1.985      3.107
REMARK  0 active torsions:
REMARK  status: ('A' for Active; 'I' for Inactive)
ROOT
HETATM    1  C1  UNL     1      18.991   0.344  51.886  1.00  0.00     0.181 C 
HETATM    2  N1  UNL     1      19.389   1.736  51.764  1.00  0.00    -0.258 N 
HETATM    3  N2  UNL     1      18.549   2.745  51.613  1.00  0.00    -0.183 NA
HETATM    4  C2  UNL     1      19.231   3.901  51.532  1.00  0.00     0.150 A 
HETATM    5  C3  UNL     1      20.562   3.587  51.640  1.00  0.00     0.010 A 
HETATM    6  C4  UNL     1      20.671   2.200  51.789  1.00  0.00     0.129 A 
HETATM    7  N3  UNL     1      21.949   1.541  51.930  1.00  0.00    -0.342 N 
HETATM    8  C5  UNL     1      23.047   2.341  51.367  1.00  0.00     0.355 C 
HETATM    9  N4  UNL     1      24.315   1.719  51.443  1.00  0.00     0.139 N 
HETATM   10  C6  UNL     1      25.094   1.965  52.619  1.00  0.00     0.234 C 
HETATM   11  C7  UNL     1      26.536   2.073  52.143  1.00  0.00     0.084 C 
HETATM   12  C8  UNL     1      26.935   0.704  51.634  1.00  0.00     0.127 C 
HETATM   13  N5  UNL     1      27.579   0.034  52.774  1.00  0.00    -0.361 N 
HETATM   14  C9  UNL     1      27.169   0.074  54.136  1.00  0.00     0.217 C 
HETATM   15  O1  UNL     1      27.948  -0.416  55.007  1.00  0.00    -0.274 OA
HETATM   16  C10 UNL     1      25.872   0.653  54.640  1.00  0.00     0.107 C 
HETATM   17  C11 UNL     1      24.883   0.775  53.527  1.00  0.00     0.073 C 
HETATM   18  N6  UNL     1      24.808   3.211  53.285  1.00  0.00    -0.365 N 
HETATM   19  C12 UNL     1      23.756   4.116  52.979  1.00  0.00     0.092 C 
HETATM   20  C13 UNL     1      22.936   3.653  52.050  1.00  0.00    -0.009 C 
HETATM   21  C14 UNL     1      21.766   4.494  51.614  1.00  0.00     0.083 C 
HETATM   22  H5  UNL     1      21.859   0.617  52.406  1.00  0.00     0.163 HD
HETATM   23  H7  UNL     1      24.150   0.688  51.281  1.00  0.00     0.322 HD
HETATM   24  H12 UNL     1      28.447  -0.548  52.580  1.00  0.00     0.162 HD
HETATM   25  H17 UNL     1      25.475   3.419  54.067  1.00  0.00     0.161 HD
ENDROOT
TORSDOF 0
ENDMDL
MODEL 4
REMARK VINA RESULT:      -7.4      3.414      6.126
REMARK  0 active torsions:
REMARK  status: ('A' for Active; 'I' for Inactive)
ROOT
HETATM    1  C1  UNL     1      24.588  -1.070  55.326  1.00  0.00     0.181 C 
HETATM    2  N1  UNL     1      23.235  -1.084  54.795  1.00  0.00    -0.258 N 
HETATM    3  N2  UNL     1      22.277  -1.897  55.208  1.00  0.00    -0.183 NA
HETATM    4  C2  UNL     1      21.147  -1.659  54.519  1.00  0.00     0.150 A 
HETATM    5  C3  UNL     1      21.423  -0.646  53.636  1.00  0.00     0.010 A 
HETATM    6  C4  UNL     1      22.761  -0.273  53.808  1.00  0.00     0.129 A 
HETATM    7  N3  UNL     1      23.372   0.776  53.025  1.00  0.00    -0.342 N 
HETATM    8  C5  UNL     1      22.673   0.991  51.749  1.00  0.00     0.355 C 
HETATM    9  N4  UNL     1      23.259   1.980  50.926  1.00  0.00     0.139 N 
HETATM   10  C6  UNL     1      22.801   3.326  51.096  1.00  0.00     0.234 C 
HETATM   11  C7  UNL     1      22.764   3.929  49.699  1.00  0.00     0.084 C 
HETATM   12  C8  UNL     1      24.198   4.014  49.219  1.00  0.00     0.127 C 
HETATM   13  N5  UNL     1      24.649   5.370  49.567  1.00  0.00    -0.361 N 
HETATM   14  C9  UNL     1      24.373   6.084  50.766  1.00  0.00     0.217 C 
HETATM   15  O1  UNL     1      24.693   7.309  50.818  1.00  0.00    -0.274 OA
HETATM   16  C10 UNL     1      23.727   5.503  51.999  1.00  0.00     0.107 C 
HETATM   17  C11 UNL     1      23.814   4.012  51.985  1.00  0.00     0.073 C 
HETATM   18  N6  UNL     1      21.460   3.449  51.611  1.00  0.00    -0.365 N 
HETATM   19  C12 UNL     1      20.634   2.397  52.089  1.00  0.00     0.092 C 
HETATM   20  C13 UNL     1      21.262   1.233  52.137  1.00  0.00    -0.009 C 
HETATM   21  C14 UNL     1      20.523   0.016  52.624  1.00  0.00     0.083 C 
HETATM   22  H5  UNL     1      24.198   1.191  53.508  1.00  0.00     0.163 HD
HETATM   23  H7  UNL     1      24.304   1.894  51.056  1.00  0.00     0.322 HD
HETATM   24  H12 UNL     1      25.247   5.889  48.859  1.00  0.00     0.162 HD
HETATM   25  H17 UNL     1      21.110   4.437  51.608  1.00  0.00     0.161 HD
ENDROOT
TORSDOF 0
ENDMDL
MODEL 5
REMARK VINA RESULT:      -7.4      3.710      7.044
REMARK  0 active torsions:
REMARK  status: ('A' for Active; 'I' for Inactive)
ROOT
HETATM    1  C1  UNL     1      28.716   2.485  53.801  1.00  0.00     0.181 C 
HETATM    2  N1  UNL     1      27.544   1.637  53.925  1.00  0.00    -0.258 N 
HETATM    3  N2  UNL     1      27.452   0.601  54.741  1.00  0.00    -0.183 NA
HETATM    4  C2  UNL     1      26.242   0.027  54.619  1.00  0.00     0.150 A 
HETATM    5  C3  UNL     1      25.551   0.749  53.679  1.00  0.00     0.010 A 
HETATM    6  C4  UNL     1      26.381   1.784  53.230  1.00  0.00     0.129 A 
HETATM    7  N3  UNL     1      25.950   2.733  52.230  1.00  0.00    -0.342 N 
HETATM    8  C5  UNL     1      24.866   2.198  51.391  1.00  0.00     0.355 C 
HETATM    9  N4  UNL     1      24.439   3.076  50.368  1.00  0.00     0.139 N 
HETATM   10  C6  UNL     1      23.380   3.985  50.688  1.00  0.00     0.234 C 
HETATM   11  C7  UNL     1      22.517   4.071  49.437  1.00  0.00     0.084 C 
HETATM   12  C8  UNL     1      23.357   4.739  48.369  1.00  0.00     0.127 C 
HETATM   13  N5  UNL     1      23.025   6.170  48.446  1.00  0.00    -0.361 N 
HETATM   14  C9  UNL     1      22.825   6.943  49.624  1.00  0.00     0.217 C 
HETATM   15  O1  UNL     1      22.368   8.117  49.495  1.00  0.00    -0.274 OA
HETATM   16  C10 UNL     1      23.114   6.480  51.029  1.00  0.00     0.107 C 
HETATM   17  C11 UNL     1      24.038   5.306  51.017  1.00  0.00     0.073 C 
HETATM   18  N6  UNL     1      22.500   3.544  51.741  1.00  0.00    -0.365 N 
HETATM   19  C12 UNL     1      22.667   2.397  52.564  1.00  0.00     0.092 C 
HETATM   20  C13 UNL     1      23.821   1.783  52.358  1.00  0.00    -0.009 C 
HETATM   21  C14 UNL     1      24.152   0.549  53.155  1.00  0.00     0.083 C 
HETATM   22  H5  UNL     1      26.486   3.626  52.286  1.00  0.00     0.163 HD
HETATM   23  H7  UNL     1      25.304   3.574  50.023  1.00  0.00     0.322 HD
HETATM   24  H12 UNL     1      22.918   6.702  47.532  1.00  0.00     0.162 HD
HETATM   25  H17 UNL     1      21.668   4.169  51.868  1.00  0.00     0.161 HD
ENDROOT
TORSDOF 0
ENDMDL
MODEL 6
REMARK VINA RESULT:      -7.3      3.032      6.552
REMARK  0 active torsions:
REMARK  status: ('A' for Active; 'I' for Inactive)
ROOT
HETATM    1  C1  UNL     1      27.143  -2.393  52.380  1.00  0.00     0.181 C 
HETATM    2  N1  UNL     1      27.250  -1.020  52.843  1.00  0.00    -0.258 N 
HETATM    3  N2  UNL     1      28.386  -0.425  53.167  1.00  0.00    -0.183 NA
HETATM    4  C2  UNL     1      28.146   0.840  53.554  1.00  0.00     0.150 A 
HETATM    5  C3  UNL     1      26.791   1.036  53.464  1.00  0.00     0.010 A 
HETATM    6  C4  UNL     1      26.211  -0.154  53.007  1.00  0.00     0.129 A 
HETATM    7  N3  UNL     1      24.786  -0.283  52.802  1.00  0.00    -0.342 N 
HETATM    8  C5  UNL     1      24.023   0.687  53.602  1.00  0.00     0.355 C 
HETATM    9  N4  UNL     1      22.620   0.572  53.468  1.00  0.00     0.139 N 
HETATM   10  C6  UNL     1      21.998   1.341  52.432  1.00  0.00     0.234 C 
HETATM   11  C7  UNL     1      20.674   1.820  53.012  1.00  0.00     0.084 C 
HETATM   12  C8  UNL     1      19.815   0.590  53.217  1.00  0.00     0.127 C 
HETATM   13  N5  UNL     1      19.001   0.471  51.998  1.00  0.00    -0.361 N 
HETATM   14  C9  UNL     1      19.426   0.690  50.658  1.00  0.00     0.217 C 
HETATM   15  O1  UNL     1      18.543   0.718  49.750  1.00  0.00    -0.274 OA
HETATM   16  C10 UNL     1      20.854   0.893  50.218  1.00  0.00     0.107 C 
HETATM   17  C11 UNL     1      21.801   0.402  51.264  1.00  0.00     0.073 C 
HETATM   18  N6  UNL     1      22.712   2.534  52.052  1.00  0.00    -0.365 N 
HETATM   19  C12 UNL     1      24.007   2.925  52.489  1.00  0.00     0.092 C 
HETATM   20  C13 UNL     1      24.597   2.004  53.232  1.00  0.00    -0.009 C 
HETATM   21  C14 UNL     1      25.977   2.266  53.774  1.00  0.00     0.083 C 
HETATM   22  H5  UNL     1      24.559  -1.041  52.122  1.00  0.00     0.163 HD
HETATM   23  H7  UNL     1      22.413  -0.460  53.378  1.00  0.00     0.322 HD
HETATM   24  H12 UNL     1      17.981   0.193  52.110  1.00  0.00     0.162 HD
HETATM   25  H17 UNL     1      22.175   3.136  51.383  1.00  0.00     0.161 HD
ENDROOT
TORSDOF 0
ENDMDL
MODEL 7
REMARK VINA RESULT:      -7.3      3.311      6.896
REMARK  0 active torsions:
REMARK  status: ('A' for Active; 'I' for Inactive)
ROOT
HETATM    1  C1  UNL     1      23.651  -0.975  54.468  1.00  0.00     0.181 C 
HETATM    2  N1  UNL     1      24.926  -0.326  54.215  1.00  0.00    -0.258 N 
HETATM    3  N2  UNL     1      26.069  -0.676  54.779  1.00  0.00    -0.183 NA
HETATM    4  C2  UNL     1      27.060   0.118  54.336  1.00  0.00     0.150 A 
HETATM    5  C3  UNL     1      26.498   1.003  53.452  1.00  0.00     0.010 A 
HETATM    6  C4  UNL     1      25.128   0.724  53.370  1.00  0.00     0.129 A 
HETATM    7  N3  UNL     1      24.241   1.482  52.519  1.00  0.00    -0.342 N 
HETATM    8  C5  UNL     1      24.770   2.821  52.221  1.00  0.00     0.355 C 
HETATM    9  N4  UNL     1      23.916   3.619  51.425  1.00  0.00     0.139 N 
HETATM   10  C6  UNL     1      24.078   3.532  50.005  1.00  0.00     0.234 C 
HETATM   11  C7  UNL     1      23.870   4.945  49.479  1.00  0.00     0.084 C 
HETATM   12  C8  UNL     1      22.419   5.297  49.731  1.00  0.00     0.127 C 
HETATM   13  N5  UNL     1      21.709   4.952  48.490  1.00  0.00    -0.361 N 
HETATM   14  C9  UNL     1      21.916   3.805  47.673  1.00  0.00     0.217 C 
HETATM   15  O1  UNL     1      21.339   3.763  46.547  1.00  0.00    -0.274 OA
HETATM   16  C10 UNL     1      22.771   2.618  48.039  1.00  0.00     0.107 C 
HETATM   17  C11 UNL     1      23.014   2.578  49.512  1.00  0.00     0.073 C 
HETATM   18  N6  UNL     1      25.396   3.143  49.569  1.00  0.00    -0.365 N 
HETATM   19  C12 UNL     1      26.470   2.708  50.392  1.00  0.00     0.092 C 
HETATM   20  C13 UNL     1      26.120   2.568  51.660  1.00  0.00    -0.009 C 
HETATM   21  C14 UNL     1      27.146   2.112  52.662  1.00  0.00     0.083 C 
HETATM   22  H5  UNL     1      23.385   0.940  52.270  1.00  0.00     0.163 HD
HETATM   23  H7  UNL     1      22.930   3.394  51.729  1.00  0.00     0.322 HD
HETATM   24  H12 UNL     1      20.956   5.620  48.148  1.00  0.00     0.162 HD
HETATM   25  H17 UNL     1      25.518   3.207  48.529  1.00  0.00     0.161 HD
ENDROOT
TORSDOF 0
ENDMDL
MODEL 8
REMARK VINA RESULT:      -7.2      3.629      5.081
REMARK  0 active torsions:
REMARK  status: ('A' for Active; 'I' for Inactive)
ROOT
HETATM    1  C1  UNL     1      17.444   0.361  50.061  1.00  0.00     0.181 C 
HETATM    2  N1  UNL     1      18.017  -0.112  51.309  1.00  0.00    -0.258 N 
HETATM    3  N2  UNL     1      17.525  -1.103  52.032  1.00  0.00    -0.183 NA
HETATM    4  C2  UNL     1      18.285  -1.295  53.125  1.00  0.00     0.150 A 
HETATM    5  C3  UNL     1      19.299  -0.373  53.073  1.00  0.00     0.010 A 
HETATM    6  C4  UNL     1      19.133   0.389  51.910  1.00  0.00     0.129 A 
HETATM    7  N3  UNL     1      20.042   1.455  51.555  1.00  0.00    -0.342 N 
HETATM    8  C5  UNL     1      20.754   1.987  52.728  1.00  0.00     0.355 C 
HETATM    9  N4  UNL     1      21.625   3.063  52.437  1.00  0.00     0.139 N 
HETATM   10  C6  UNL     1      22.978   2.734  52.100  1.00  0.00     0.234 C 
HETATM   11  C7  UNL     1      23.837   3.814  52.741  1.00  0.00     0.084 C 
HETATM   12  C8  UNL     1      23.513   5.112  52.032  1.00  0.00     0.127 C 
HETATM   13  N5  UNL     1      24.518   5.237  50.965  1.00  0.00    -0.361 N 
HETATM   14  C9  UNL     1      25.012   4.200  50.125  1.00  0.00     0.217 C 
HETATM   15  O1  UNL     1      26.006   4.456  49.383  1.00  0.00    -0.274 OA
HETATM   16  C10 UNL     1      24.447   2.805  50.039  1.00  0.00     0.107 C 
HETATM   17  C11 UNL     1      23.060   2.764  50.590  1.00  0.00     0.073 C 
HETATM   18  N6  UNL     1      23.451   1.485  52.642  1.00  0.00    -0.365 N 
HETATM   19  C12 UNL     1      22.679   0.511  53.332  1.00  0.00     0.092 C 
HETATM   20  C13 UNL     1      21.388   0.797  53.346  1.00  0.00    -0.009 C 
HETATM   21  C14 UNL     1      20.433  -0.139  54.038  1.00  0.00     0.083 C 
HETATM   22  H5  UNL     1      20.029   1.652  50.531  1.00  0.00     0.163 HD
HETATM   23  H7  UNL     1      21.152   3.633  51.685  1.00  0.00     0.322 HD
HETATM   24  H12 UNL     1      24.932   6.200  50.786  1.00  0.00     0.162 HD
HETATM   25  H17 UNL     1      24.476   1.332  52.481  1.00  0.00     0.161 HD
ENDROOT
TORSDOF 0
ENDMDL
MODEL 9
REMARK VINA RESULT:      -7.1      3.967      6.740
REMARK  0 active torsions:
REMARK  status: ('A' for Active; 'I' for Inactive)
ROOT
HETATM    1  C1  UNL     1      20.882   0.469  53.441  1.00  0.00     0.181 C 
HETATM    2  N1  UNL     1      22.329   0.341  53.468  1.00  0.00    -0.258 N 
HETATM    3  N2  UNL     1      22.980  -0.693  53.974  1.00  0.00    -0.183 NA
HETATM    4  C2  UNL     1      24.306  -0.508  53.844  1.00  0.00     0.150 A 
HETATM    5  C3  UNL     1      24.481   0.705  53.227  1.00  0.00     0.010 A 
HETATM    6  C4  UNL     1      23.217   1.254  52.983  1.00  0.00     0.129 A 
HETATM    7  N3  UNL     1      23.049   2.536  52.339  1.00  0.00    -0.342 N 
HETATM    8  C5  UNL     1      24.242   3.386  52.481  1.00  0.00     0.355 C 
HETATM    9  N4  UNL     1      24.111   4.670  51.903  1.00  0.00     0.139 N 
HETATM   10  C6  UNL     1      24.501   4.812  50.532  1.00  0.00     0.234 C 
HETATM   11  C7  UNL     1      25.166   6.178  50.432  1.00  0.00     0.084 C 
HETATM   12  C8  UNL     1      24.088   7.210  50.688  1.00  0.00     0.127 C 
HETATM   13  N5  UNL     1      23.584   7.588  49.359  1.00  0.00    -0.361 N 
HETATM   14  C9  UNL     1      23.338   6.723  48.256  1.00  0.00     0.217 C 
HETATM   15  O1  UNL     1      23.076   7.248  47.134  1.00  0.00    -0.274 OA
HETATM   16  C10 UNL     1      23.361   5.216  48.308  1.00  0.00     0.107 C 
HETATM   17  C11 UNL     1      23.230   4.737  49.717  1.00  0.00     0.073 C 
HETATM   18  N6  UNL     1      25.489   3.863  50.083  1.00  0.00    -0.365 N 
HETATM   19  C12 UNL     1      25.983   2.744  50.806  1.00  0.00     0.092 C 
HETATM   20  C13 UNL     1      25.351   2.555  51.953  1.00  0.00    -0.009 C 
HETATM   21  C14 UNL     1      25.757   1.407  52.838  1.00  0.00     0.083 C 
HETATM   22  H5  UNL     1      22.112   2.626  51.890  1.00  0.00     0.163 HD
HETATM   23  H7  UNL     1      23.111   4.969  52.067  1.00  0.00     0.322 HD
HETATM   24  H12 UNL     1      23.374   8.615  49.183  1.00  0.00     0.162 HD
HETATM   25  H17 UNL     1      25.843   4.068  49.118  1.00  0.00     0.161 HD
ENDROOT
TORSDOF 0
ENDMDL
