MODEL 1
REMARK VINA RESULT:      -8.4      0.000      0.000
REMARK  7 active torsions:
REMARK  status: ('A' for Active; 'I' for Inactive)
REMARK    1  A    between atoms: C1_2  and  N1_3 
REMARK    2  A    between atoms: N1_3  and  C2_4 
REMARK    3  A    between atoms: C2_4  and  C3_5 
REMARK    4  A    between atoms: C3_5  and  O2_6 
REMARK    5  A    between atoms: O2_6  and  C4_7 
REMARK    6  A    between atoms: C6_9  and  O3_10 
REMARK    7  A    between atoms: C10_15  and  C11_16 
ROOT
HETATM    1  C4  UNL     1      26.108   0.471  53.234  1.00  0.00     0.074 A 
HETATM    2  C5  UNL     1      26.087  -0.285  54.378  1.00  0.00     0.074 A 
HETATM    3  C6  UNL     1      24.927  -0.839  54.853  1.00  0.00     0.085 A 
HETATM    4  C7  UNL     1      23.764  -0.620  54.150  1.00  0.00     0.081 A 
HETATM    5  C8  UNL     1      22.545  -1.120  54.525  1.00  0.00     0.190 A 
HETATM    6  O4  UNL     1      22.449  -1.823  55.562  1.00  0.00    -0.287 OA
HETATM    7  C9  UNL     1      21.439  -0.841  53.750  1.00  0.00     0.094 A 
HETATM    8  C10 UNL     1      21.463  -0.081  52.602  1.00  0.00     0.090 A 
HETATM    9  O5  UNL     1      22.647   0.374  52.284  1.00  0.00    -0.309 OA
HETATM   10  C17 UNL     1      23.723   0.135  52.989  1.00  0.00     0.095 A 
HETATM   11  C18 UNL     1      24.929   0.682  52.539  1.00  0.00     0.075 A 
ENDROOT
BRANCH   1  12
HETATM   12  O2  UNL     1      27.266   1.050  52.722  1.00  0.00    -0.349 OA
BRANCH  12  13
HETATM   13  C3  UNL     1      27.962   1.950  53.546  1.00  0.00     0.195 C 
BRANCH  13  14
HETATM   14  C2  UNL     1      29.164   1.350  54.218  1.00  0.00     0.148 C 
BRANCH  14  15
HETATM   15  N1  UNL     1      29.876   0.441  53.348  1.00  0.00    -0.366 N 
HETATM   16  H2  UNL     1      30.322   0.629  52.414  1.00  0.00     0.161 HD
BRANCH  15  17
HETATM   17  C1  UNL     1      30.001  -0.900  53.808  1.00  0.00     0.348 C 
HETATM   18  O1  UNL     1      29.080  -1.715  53.578  1.00  0.00    -0.284 OA
ENDBRANCH  15  17
ENDBRANCH  14  15
ENDBRANCH  13  14
ENDBRANCH  12  13
ENDBRANCH   1  12
BRANCH   3  19
HETATM   19  O3  UNL     1      24.858  -1.613  56.008  1.00  0.00    -0.360 OA
HETATM   20  H8  UNL     1      25.621  -2.196  56.328  1.00  0.00     0.217 HD
ENDBRANCH   3  19
BRANCH   8  21
HETATM   21  C11 UNL     1      20.284   0.204  51.794  1.00  0.00    -0.002 A 
HETATM   22  C12 UNL     1      20.292   0.901  50.606  1.00  0.00     0.014 A 
HETATM   23  C13 UNL     1      19.116   1.117  49.916  1.00  0.00     0.001 A 
HETATM   24  C14 UNL     1      17.911   0.645  50.394  1.00  0.00     0.000 A 
HETATM   25  C15 UNL     1      17.873  -0.056  51.580  1.00  0.00     0.001 A 
HETATM   26  C16 UNL     1      19.068  -0.248  52.234  1.00  0.00     0.014 A 
ENDBRANCH   8  21
TORSDOF 7
ENDMDL
MODEL 2
REMARK VINA RESULT:      -8.1      2.102      3.137
REMARK  7 active torsions:
REMARK  status: ('A' for Active; 'I' for Inactive)
REMARK    1  A    between atoms: C1_2  and  N1_3 
REMARK    2  A    between atoms: N1_3  and  C2_4 
REMARK    3  A    between atoms: C2_4  and  C3_5 
REMARK    4  A    between atoms: C3_5  and  O2_6 
REMARK    5  A    between atoms: O2_6  and  C4_7 
REMARK    6  A    between atoms: C6_9  and  O3_10 
REMARK    7  A    between atoms: C10_15  and  C11_16 
ROOT
HETATM    1  C4  UNL     1      25.462  -0.490  54.666  1.00  0.00     0.074 A 
HETATM    2  C5  UNL     1      24.442  -1.138  55.313  1.00  0.00     0.074 A 
HETATM    3  C6  UNL     1      23.161  -1.129  54.828  1.00  0.00     0.085 A 
HETATM    4  C7  UNL     1      22.911  -0.445  53.660  1.00  0.00     0.081 A 
HETATM    5  C8  UNL     1      21.673  -0.364  53.078  1.00  0.00     0.190 A 
HETATM    6  O4  UNL     1      20.691  -0.934  53.614  1.00  0.00    -0.287 OA
HETATM    7  C9  UNL     1      21.530   0.348  51.905  1.00  0.00     0.094 A 
HETATM    8  C10 UNL     1      22.556   0.998  51.257  1.00  0.00     0.090 A 
HETATM    9  O5  UNL     1      23.718   0.893  51.849  1.00  0.00    -0.309 OA
HETATM   10  C17 UNL     1      23.900   0.229  52.961  1.00  0.00     0.095 A 
HETATM   11  C18 UNL     1      25.194   0.193  53.492  1.00  0.00     0.075 A 
ENDROOT
BRANCH   1  12
HETATM   12  O2  UNL     1      26.775  -0.478  55.129  1.00  0.00    -0.349 OA
BRANCH  12  13
HETATM   13  C3  UNL     1      27.802  -0.546  54.172  1.00  0.00     0.195 C 
BRANCH  13  14
HETATM   14  C2  UNL     1      28.984   0.324  54.491  1.00  0.00     0.148 C 
BRANCH  14  15
HETATM   15  N1  UNL     1      28.607   1.706  54.681  1.00  0.00    -0.366 N 
HETATM   16  H2  UNL     1      28.227   2.178  55.541  1.00  0.00     0.161 HD
BRANCH  15  17
HETATM   17  C1  UNL     1      28.769   2.562  53.555  1.00  0.00     0.348 C 
HETATM   18  O1  UNL     1      28.059   2.380  52.541  1.00  0.00    -0.284 OA
ENDBRANCH  15  17
ENDBRANCH  14  15
ENDBRANCH  13  14
ENDBRANCH  12  13
ENDBRANCH   1  12
BRANCH   3  19
HETATM   19  O3  UNL     1      22.095  -1.773  55.451  1.00  0.00    -0.360 OA
HETATM   20  H8  UNL     1      21.267  -2.076  54.954  1.00  0.00     0.217 HD
ENDBRANCH   3  19
BRANCH   8  21
HETATM   21  C11 UNL     1      22.387   1.746  50.018  1.00  0.00    -0.002 A 
HETATM   22  C12 UNL     1      21.465   1.450  49.038  1.00  0.00     0.014 A 
HETATM   23  C13 UNL     1      21.386   2.225  47.898  1.00  0.00     0.001 A 
HETATM   24  C14 UNL     1      22.222   3.307  47.710  1.00  0.00     0.000 A 
HETATM   25  C15 UNL     1      23.154   3.626  48.674  1.00  0.00     0.001 A 
HETATM   26  C16 UNL     1      23.197   2.827  49.794  1.00  0.00     0.014 A 
ENDBRANCH   8  21
TORSDOF 7
ENDMDL
MODEL 3
REMARK VINA RESULT:      -8.0      2.699      3.906
REMARK  7 active torsions:
REMARK  status: ('A' for Active; 'I' for Inactive)
REMARK    1  A    between atoms: C1_2  and  N1_3 
REMARK    2  A    between atoms: N1_3  and  C2_4 
REMARK    3  A    between atoms: C2_4  and  C3_5 
REMARK    4  A    between atoms: C3_5  and  O2_6 
REMARK    5  A    between atoms: O2_6  and  C4_7 
REMARK    6  A    between atoms: C6_9  and  O3_10 
REMARK    7  A    between atoms: C10_15  and  C11_16 
ROOT
HETATM    1  C4  UNL     1      26.570   2.006  51.779  1.00  0.00     0.074 A 
HETATM    2  C5  UNL     1      27.246   1.344  52.771  1.00  0.00     0.074 A 
HETATM    3  C6  UNL     1      26.611   0.478  53.622  1.00  0.00     0.085 A 
HETATM    4  C7  UNL     1      25.259   0.280  53.460  1.00  0.00     0.081 A 
HETATM    5  C8  UNL     1      24.515  -0.560  54.246  1.00  0.00     0.190 A 
HETATM    6  O4  UNL     1      25.067  -1.200  55.175  1.00  0.00    -0.287 OA
HETATM    7  C9  UNL     1      23.163  -0.687  54.000  1.00  0.00     0.094 A 
HETATM    8  C10 UNL     1      22.486  -0.020  53.004  1.00  0.00     0.090 A 
HETATM    9  O5  UNL     1      23.237   0.769  52.279  1.00  0.00    -0.309 OA
HETATM   10  C17 UNL     1      24.521   0.920  52.476  1.00  0.00     0.095 A 
HETATM   11  C18 UNL     1      25.209   1.796  51.630  1.00  0.00     0.075 A 
ENDROOT
BRANCH   1  12
HETATM   12  O2  UNL     1      27.182   2.893  50.898  1.00  0.00    -0.349 OA
BRANCH  12  13
HETATM   13  C3  UNL     1      26.541   3.135  49.671  1.00  0.00     0.195 C 
BRANCH  13  14
HETATM   14  C2  UNL     1      26.437   4.592  49.320  1.00  0.00     0.148 C 
BRANCH  14  15
HETATM   15  N1  UNL     1      25.778   5.356  50.356  1.00  0.00    -0.366 N 
HETATM   16  H2  UNL     1      26.202   5.965  51.102  1.00  0.00     0.161 HD
BRANCH  15  17
HETATM   17  C1  UNL     1      24.357   5.282  50.383  1.00  0.00     0.348 C 
HETATM   18  O1  UNL     1      23.775   5.088  51.473  1.00  0.00    -0.284 OA
ENDBRANCH  15  17
ENDBRANCH  14  15
ENDBRANCH  13  14
ENDBRANCH  12  13
ENDBRANCH   1  12
BRANCH   3  19
HETATM   19  O3  UNL     1      27.257  -0.215  54.641  1.00  0.00    -0.360 OA
HETATM   20  H8  UNL     1      26.773  -0.583  55.451  1.00  0.00     0.217 HD
ENDBRANCH   3  19
BRANCH   8  21
HETATM   21  C11 UNL     1      21.057  -0.166  52.757  1.00  0.00    -0.002 A 
HETATM   22  C12 UNL     1      20.175  -0.816  53.593  1.00  0.00     0.014 A 
HETATM   23  C13 UNL     1      18.837  -0.897  53.265  1.00  0.00     0.001 A 
HETATM   24  C14 UNL     1      18.350  -0.336  52.103  1.00  0.00     0.000 A 
HETATM   25  C15 UNL     1      19.210   0.320  51.249  1.00  0.00     0.001 A 
HETATM   26  C16 UNL     1      20.535   0.378  51.614  1.00  0.00     0.014 A 
ENDBRANCH   8  21
TORSDOF 7
ENDMDL
MODEL 4
REMARK VINA RESULT:      -8.0      4.212      6.782
REMARK  7 active torsions:
REMARK  status: ('A' for Active; 'I' for Inactive)
REMARK    1  A    between atoms: C1_2  and  N1_3 
REMARK    2  A    between atoms: N1_3  and  C2_4 
REMARK    3  A    between atoms: C2_4  and  C3_5 
REMARK    4  A    between atoms: C3_5  and  O2_6 
REMARK    5  A    between atoms: O2_6  and  C4_7 
REMARK    6  A    between atoms: C6_9  and  O3_10 
REMARK    7  A    between atoms: C10_15  and  C11_16 
ROOT
HETATM    1  C4  UNL     1      26.121   0.459  52.313  1.00  0.00     0.074 A 
HETATM    2  C5  UNL     1      24.762   0.563  52.453  1.00  0.00     0.074 A 
HETATM    3  C6  UNL     1      24.053   1.579  51.868  1.00  0.00     0.085 A 
HETATM    4  C7  UNL     1      24.742   2.510  51.125  1.00  0.00     0.081 A 
HETATM    5  C8  UNL     1      24.145   3.570  50.493  1.00  0.00     0.190 A 
HETATM    6  O4  UNL     1      22.902   3.729  50.577  1.00  0.00    -0.287 OA
HETATM    7  C9  UNL     1      24.928   4.447  49.772  1.00  0.00     0.094 A 
HETATM    8  C10 UNL     1      26.294   4.341  49.633  1.00  0.00     0.090 A 
HETATM    9  O5  UNL     1      26.818   3.315  50.252  1.00  0.00    -0.309 OA
HETATM   10  C17 UNL     1      26.115   2.458  50.947  1.00  0.00     0.095 A 
HETATM   11  C18 UNL     1      26.799   1.404  51.561  1.00  0.00     0.075 A 
ENDROOT
BRANCH   1  12
HETATM   12  O2  UNL     1      26.874  -0.559  52.893  1.00  0.00    -0.349 OA
BRANCH  12  13
HETATM   13  C3  UNL     1      27.558  -0.263  54.084  1.00  0.00     0.195 C 
BRANCH  13  14
HETATM   14  C2  UNL     1      29.045  -0.453  53.989  1.00  0.00     0.148 C 
BRANCH  14  15
HETATM   15  N1  UNL     1      29.729   0.772  53.642  1.00  0.00    -0.366 N 
HETATM   16  H2  UNL     1      30.562   0.912  53.014  1.00  0.00     0.161 HD
BRANCH  15  17
HETATM   17  C1  UNL     1      29.216   1.965  54.224  1.00  0.00     0.348 C 
HETATM   18  O1  UNL     1      29.802   2.468  55.208  1.00  0.00    -0.284 OA
ENDBRANCH  15  17
ENDBRANCH  14  15
ENDBRANCH  13  14
ENDBRANCH  12  13
ENDBRANCH   1  12
BRANCH   3  19
HETATM   19  O3  UNL     1      22.674   1.724  51.983  1.00  0.00    -0.360 OA
HETATM   20  H8  UNL     1      22.238   2.367  52.633  1.00  0.00     0.217 HD
ENDBRANCH   3  19
BRANCH   8  21
HETATM   21  C11 UNL     1      27.106   5.277  48.866  1.00  0.00    -0.002 A 
HETATM   22  C12 UNL     1      28.432   5.091  48.544  1.00  0.00     0.014 A 
HETATM   23  C13 UNL     1      29.112   6.042  47.811  1.00  0.00     0.001 A 
HETATM   24  C14 UNL     1      28.488   7.197  47.385  1.00  0.00     0.000 A 
HETATM   25  C15 UNL     1      27.161   7.409  47.693  1.00  0.00     0.001 A 
HETATM   26  C16 UNL     1      26.522   6.435  48.425  1.00  0.00     0.014 A 
ENDBRANCH   8  21
TORSDOF 7
ENDMDL
MODEL 5
REMARK VINA RESULT:      -7.9      2.829      6.897
REMARK  7 active torsions:
REMARK  status: ('A' for Active; 'I' for Inactive)
REMARK    1  A    between atoms: C1_2  and  N1_3 
REMARK    2  A    between atoms: N1_3  and  C2_4 
REMARK    3  A    between atoms: C2_4  and  C3_5 
REMARK    4  A    between atoms: C3_5  and  O2_6 
REMARK    5  A    between atoms: O2_6  and  C4_7 
REMARK    6  A    between atoms: C6_9  and  O3_10 
REMARK    7  A    between atoms: C10_15  and  C11_16 
ROOT
HETATM    1  C4  UNL     1      21.606   1.403  51.697  1.00  0.00     0.074 A 
HETATM    2  C5  UNL     1      20.807   0.789  52.626  1.00  0.00     0.074 A 
HETATM    3  C6  UNL     1      21.330   0.020  53.632  1.00  0.00     0.085 A 
HETATM    4  C7  UNL     1      22.697  -0.129  53.693  1.00  0.00     0.081 A 
HETATM    5  C8  UNL     1      23.338  -0.871  54.651  1.00  0.00     0.190 A 
HETATM    6  O4  UNL     1      22.669  -1.462  55.535  1.00  0.00    -0.287 OA
HETATM    7  C9  UNL     1      24.714  -0.956  54.624  1.00  0.00     0.094 A 
HETATM    8  C10 UNL     1      25.515  -0.339  53.689  1.00  0.00     0.090 A 
HETATM    9  O5  UNL     1      24.860   0.358  52.797  1.00  0.00    -0.309 OA
HETATM   10  C17 UNL     1      23.557   0.467  52.784  1.00  0.00     0.095 A 
HETATM   11  C18 UNL     1      22.980   1.244  51.774  1.00  0.00     0.075 A 
ENDROOT
BRANCH   1  12
HETATM   12  O2  UNL     1      21.110   2.191  50.662  1.00  0.00    -0.349 OA
BRANCH  12  13
HETATM   13  C3  UNL     1      21.609   3.499  50.545  1.00  0.00     0.195 C 
BRANCH  13  14
HETATM   14  C2  UNL     1      21.086   4.441  51.592  1.00  0.00     0.148 C 
BRANCH  14  15
HETATM   15  N1  UNL     1      22.073   5.422  51.983  1.00  0.00    -0.366 N 
HETATM   16  H2  UNL     1      21.946   6.446  52.188  1.00  0.00     0.161 HD
BRANCH  15  17
HETATM   17  C1  UNL     1      23.410   4.951  52.113  1.00  0.00     0.348 C 
HETATM   18  O1  UNL     1      23.767   4.410  53.183  1.00  0.00    -0.284 OA
ENDBRANCH  15  17
ENDBRANCH  14  15
ENDBRANCH  13  14
ENDBRANCH  12  13
ENDBRANCH   1  12
BRANCH   3  19
HETATM   19  O3  UNL     1      20.558  -0.621  54.595  1.00  0.00    -0.360 OA
HETATM   20  H8  UNL     1      20.166  -1.545  54.464  1.00  0.00     0.217 HD
ENDBRANCH   3  19
BRANCH   8  21
HETATM   21  C11 UNL     1      26.969  -0.439  53.676  1.00  0.00    -0.002 A 
HETATM   22  C12 UNL     1      27.683  -1.474  53.112  1.00  0.00     0.014 A 
HETATM   23  C13 UNL     1      29.063  -1.472  53.153  1.00  0.00     0.001 A 
HETATM   24  C14 UNL     1      29.759  -0.443  53.754  1.00  0.00     0.000 A 
HETATM   25  C15 UNL     1      29.069   0.606  54.326  1.00  0.00     0.001 A 
HETATM   26  C16 UNL     1      27.696   0.563  54.262  1.00  0.00     0.014 A 
ENDBRANCH   8  21
TORSDOF 7
ENDMDL
MODEL 6
REMARK VINA RESULT:      -7.9      1.856      3.029
REMARK  7 active torsions:
REMARK  status: ('A' for Active; 'I' for Inactive)
REMARK    1  A    between atoms: C1_2  and  N1_3 
REMARK    2  A    between atoms: N1_3  and  C2_4 
REMARK    3  A    between atoms: C2_4  and  C3_5 
REMARK    4  A    between atoms: C3_5  and  O2_6 
REMARK    5  A    between atoms: O2_6  and  C4_7 
REMARK    6  A    between atoms: C6_9  and  O3_10 
REMARK    7  A    between atoms: C10_15  and  C11_16 
ROOT
HETATM    1  C4  UNL     1      25.360   0.187  53.599  1.00  0.00     0.074 A 
HETATM    2  C5  UNL     1      25.573   1.505  53.290  1.00  0.00     0.074 A 
HETATM    3  C6  UNL     1      24.554   2.322  52.875  1.00  0.00     0.085 A 
HETATM    4  C7  UNL     1      23.291   1.785  52.771  1.00  0.00     0.081 A 
HETATM    5  C8  UNL     1      22.194   2.500  52.367  1.00  0.00     0.190 A 
HETATM    6  O4  UNL     1      22.313   3.714  52.069  1.00  0.00    -0.287 OA
HETATM    7  C9  UNL     1      20.970   1.866  52.296  1.00  0.00     0.094 A 
HETATM    8  C10 UNL     1      20.759   0.542  52.606  1.00  0.00     0.090 A 
HETATM    9  O5  UNL     1      21.834  -0.099  52.986  1.00  0.00    -0.309 OA
HETATM   10  C17 UNL     1      23.013   0.460  53.068  1.00  0.00     0.095 A 
HETATM   11  C18 UNL     1      24.083  -0.337  53.489  1.00  0.00     0.075 A 
ENDROOT
BRANCH   1  12
HETATM   12  O2  UNL     1      26.370  -0.672  54.024  1.00  0.00    -0.349 OA
BRANCH  12  13
HETATM   13  C3  UNL     1      27.509  -0.096  54.612  1.00  0.00     0.195 C 
BRANCH  13  14
HETATM   14  C2  UNL     1      28.794  -0.464  53.927  1.00  0.00     0.148 C 
BRANCH  14  15
HETATM   15  N1  UNL     1      29.565   0.701  53.555  1.00  0.00    -0.366 N 
HETATM   16  H2  UNL     1      30.403   0.767  52.922  1.00  0.00     0.161 HD
BRANCH  15  17
HETATM   17  C1  UNL     1      29.143   1.939  54.115  1.00  0.00     0.348 C 
HETATM   18  O1  UNL     1      29.781   2.428  55.073  1.00  0.00    -0.284 OA
ENDBRANCH  15  17
ENDBRANCH  14  15
ENDBRANCH  13  14
ENDBRANCH  12  13
ENDBRANCH   1  12
BRANCH   3  19
HETATM   19  O3  UNL     1      24.724   3.664  52.552  1.00  0.00    -0.360 OA
HETATM   20  H8  UNL     1      25.499   4.220  52.891  1.00  0.00     0.217 HD
ENDBRANCH   3  19
BRANCH   8  21
HETATM   21  C11 UNL     1      19.459  -0.112  52.526  1.00  0.00    -0.002 A 
HETATM   22  C12 UNL     1      18.491   0.170  51.587  1.00  0.00     0.014 A 
HETATM   23  C13 UNL     1      17.289  -0.509  51.599  1.00  0.00     0.001 A 
HETATM   24  C14 UNL     1      17.027  -1.481  52.543  1.00  0.00     0.000 A 
HETATM   25  C15 UNL     1      17.978  -1.784  53.494  1.00  0.00     0.001 A 
HETATM   26  C16 UNL     1      19.161  -1.083  53.445  1.00  0.00     0.014 A 
ENDBRANCH   8  21
TORSDOF 7
ENDMDL
MODEL 7
REMARK VINA RESULT:      -7.5      3.510      6.866
REMARK  7 active torsions:
REMARK  status: ('A' for Active; 'I' for Inactive)
REMARK    1  A    between atoms: C1_2  and  N1_3 
REMARK    2  A    between atoms: N1_3  and  C2_4 
REMARK    3  A    between atoms: C2_4  and  C3_5 
REMARK    4  A    between atoms: C3_5  and  O2_6 
REMARK    5  A    between atoms: O2_6  and  C4_7 
REMARK    6  A    between atoms: C6_9  and  O3_10 
REMARK    7  A    between atoms: C10_15  and  C11_16 
ROOT
HETATM    1  C4  UNL     1      23.643   4.125  51.051  1.00  0.00     0.074 A 
HETATM    2  C5  UNL     1      22.458   3.597  51.492  1.00  0.00     0.074 A 
HETATM    3  C6  UNL     1      22.408   2.417  52.186  1.00  0.00     0.085 A 
HETATM    4  C7  UNL     1      23.590   1.759  52.436  1.00  0.00     0.081 A 
HETATM    5  C8  UNL     1      23.669   0.573  53.119  1.00  0.00     0.190 A 
HETATM    6  O4  UNL     1      22.623   0.030  53.554  1.00  0.00    -0.287 OA
HETATM    7  C9  UNL     1      24.906  -0.006  53.316  1.00  0.00     0.094 A 
HETATM    8  C10 UNL     1      26.095   0.526  52.872  1.00  0.00     0.090 A 
HETATM    9  O5  UNL     1      25.971   1.657  52.227  1.00  0.00    -0.309 OA
HETATM   10  C17 UNL     1      24.819   2.242  52.016  1.00  0.00     0.095 A 
HETATM   11  C18 UNL     1      24.824   3.450  51.312  1.00  0.00     0.075 A 
ENDROOT
BRANCH   1  12
HETATM   12  O2  UNL     1      23.732   5.321  50.343  1.00  0.00    -0.349 OA
BRANCH  12  13
HETATM   13  C3  UNL     1      24.925   6.055  50.455  1.00  0.00     0.195 C 
BRANCH  13  14
HETATM   14  C2  UNL     1      25.634   6.258  49.146  1.00  0.00     0.148 C 
BRANCH  14  15
HETATM   15  N1  UNL     1      27.071   6.221  49.294  1.00  0.00    -0.366 N 
HETATM   16  H2  UNL     1      27.698   6.866  49.840  1.00  0.00     0.161 HD
BRANCH  15  17
HETATM   17  C1  UNL     1      27.746   5.170  48.612  1.00  0.00     0.348 C 
HETATM   18  O1  UNL     1      27.541   3.985  48.955  1.00  0.00    -0.284 OA
ENDBRANCH  15  17
ENDBRANCH  14  15
ENDBRANCH  13  14
ENDBRANCH  12  13
ENDBRANCH   1  12
BRANCH   3  19
HETATM   19  O3  UNL     1      21.228   1.845  52.653  1.00  0.00    -0.360 OA
HETATM   20  H8  UNL     1      20.537   1.429  52.042  1.00  0.00     0.217 HD
ENDBRANCH   3  19
BRANCH   8  21
HETATM   21  C11 UNL     1      27.394  -0.099  53.090  1.00  0.00    -0.002 A 
HETATM   22  C12 UNL     1      28.538   0.570  53.466  1.00  0.00     0.014 A 
HETATM   23  C13 UNL     1      29.720  -0.118  53.646  1.00  0.00     0.001 A 
HETATM   24  C14 UNL     1      29.789  -1.483  53.457  1.00  0.00     0.000 A 
HETATM   25  C15 UNL     1      28.660  -2.178  53.080  1.00  0.00     0.001 A 
HETATM   26  C16 UNL     1      27.503  -1.453  52.912  1.00  0.00     0.014 A 
ENDBRANCH   8  21
TORSDOF 7
ENDMDL
MODEL 8
REMARK VINA RESULT:      -7.4      4.531      7.651
REMARK  7 active torsions:
REMARK  status: ('A' for Active; 'I' for Inactive)
REMARK    1  A    between atoms: C1_2  and  N1_3 
REMARK    2  A    between atoms: N1_3  and  C2_4 
REMARK    3  A    between atoms: C2_4  and  C3_5 
REMARK    4  A    between atoms: C3_5  and  O2_6 
REMARK    5  A    between atoms: O2_6  and  C4_7 
REMARK    6  A    between atoms: C6_9  and  O3_10 
REMARK    7  A    between atoms: C10_15  and  C11_16 
ROOT
HETATM    1  C4  UNL     1      25.622   5.331  48.958  1.00  0.00     0.074 A 
HETATM    2  C5  UNL     1      24.279   5.056  48.957  1.00  0.00     0.074 A 
HETATM    3  C6  UNL     1      23.758   4.008  49.670  1.00  0.00     0.085 A 
HETATM    4  C7  UNL     1      24.623   3.222  50.398  1.00  0.00     0.081 A 
HETATM    5  C8  UNL     1      24.222   2.148  51.149  1.00  0.00     0.190 A 
HETATM    6  O4  UNL     1      23.007   1.836  51.197  1.00  0.00    -0.287 OA
HETATM    7  C9  UNL     1      25.170   1.425  51.843  1.00  0.00     0.094 A 
HETATM    8  C10 UNL     1      26.519   1.703  51.841  1.00  0.00     0.090 A 
HETATM    9  O5  UNL     1      26.853   2.736  51.111  1.00  0.00    -0.309 OA
HETATM   10  C17 UNL     1      25.989   3.450  50.437  1.00  0.00     0.095 A 
HETATM   11  C18 UNL     1      26.478   4.531  49.696  1.00  0.00     0.075 A 
ENDROOT
BRANCH   1  12
HETATM   12  O2  UNL     1      26.186   6.387  48.246  1.00  0.00    -0.349 OA
BRANCH  12  13
HETATM   13  C3  UNL     1      27.080   7.228  48.930  1.00  0.00     0.195 C 
BRANCH  13  14
HETATM   14  C2  UNL     1      28.378   7.445  48.208  1.00  0.00     0.148 C 
BRANCH  14  15
HETATM   15  N1  UNL     1      29.518   7.066  49.011  1.00  0.00    -0.366 N 
HETATM   16  H2  UNL     1      29.898   7.522  49.880  1.00  0.00     0.161 HD
BRANCH  15  17
HETATM   17  C1  UNL     1      30.238   5.917  48.579  1.00  0.00     0.348 C 
HETATM   18  O1  UNL     1      29.621   4.982  48.021  1.00  0.00    -0.284 OA
ENDBRANCH  15  17
ENDBRANCH  14  15
ENDBRANCH  13  14
ENDBRANCH  12  13
ENDBRANCH   1  12
BRANCH   3  19
HETATM   19  O3  UNL     1      22.403   3.692  49.699  1.00  0.00    -0.360 OA
HETATM   20  H8  UNL     1      21.684   4.366  49.928  1.00  0.00     0.217 HD
ENDBRANCH   3  19
BRANCH   8  21
HETATM   21  C11 UNL     1      27.507   0.928  52.580  1.00  0.00    -0.002 A 
HETATM   22  C12 UNL     1      28.555   1.464  53.296  1.00  0.00     0.014 A 
HETATM   23  C13 UNL     1      29.437   0.640  53.964  1.00  0.00     0.001 A 
HETATM   24  C14 UNL     1      29.297  -0.733  53.932  1.00  0.00     0.000 A 
HETATM   25  C15 UNL     1      28.257  -1.297  53.224  1.00  0.00     0.001 A 
HETATM   26  C16 UNL     1      27.401  -0.437  52.574  1.00  0.00     0.014 A 
ENDBRANCH   8  21
TORSDOF 7
ENDMDL
MODEL 9
REMARK VINA RESULT:      -7.4      3.004      7.752
REMARK  7 active torsions:
REMARK  status: ('A' for Active; 'I' for Inactive)
REMARK    1  A    between atoms: C1_2  and  N1_3 
REMARK    2  A    between atoms: N1_3  and  C2_4 
REMARK    3  A    between atoms: C2_4  and  C3_5 
REMARK    4  A    between atoms: C3_5  and  O2_6 
REMARK    5  A    between atoms: O2_6  and  C4_7 
REMARK    6  A    between atoms: C6_9  and  O3_10 
REMARK    7  A    between atoms: C10_15  and  C11_16 
ROOT
HETATM    1  C4  UNL     1      21.834   1.880  51.385  1.00  0.00     0.074 A 
HETATM    2  C5  UNL     1      22.074   3.030  50.679  1.00  0.00     0.074 A 
HETATM    3  C6  UNL     1      23.347   3.485  50.454  1.00  0.00     0.085 A 
HETATM    4  C7  UNL     1      24.398   2.754  50.960  1.00  0.00     0.081 A 
HETATM    5  C8  UNL     1      25.713   3.107  50.801  1.00  0.00     0.190 A 
HETATM    6  O4  UNL     1      26.009   4.148  50.165  1.00  0.00    -0.287 OA
HETATM    7  C9  UNL     1      26.693   2.305  51.348  1.00  0.00     0.094 A 
HETATM    8  C10 UNL     1      26.449   1.150  52.058  1.00  0.00     0.090 A 
HETATM    9  O5  UNL     1      25.181   0.854  52.183  1.00  0.00    -0.309 OA
HETATM   10  C17 UNL     1      24.219   1.585  51.681  1.00  0.00     0.095 A 
HETATM   11  C18 UNL     1      22.903   1.157  51.886  1.00  0.00     0.075 A 
ENDROOT
BRANCH   1  12
HETATM   12  O2  UNL     1      20.555   1.387  51.633  1.00  0.00    -0.349 OA
BRANCH  12  13
HETATM   13  C3  UNL     1      20.431   0.019  51.925  1.00  0.00     0.195 C 
BRANCH  13  14
HETATM   14  C2  UNL     1      19.794  -0.259  53.257  1.00  0.00     0.148 C 
BRANCH  14  15
HETATM   15  N1  UNL     1      20.553   0.303  54.351  1.00  0.00    -0.366 N 
HETATM   16  H2  UNL     1      20.488   1.262  54.780  1.00  0.00     0.161 HD
BRANCH  15  17
HETATM   17  C1  UNL     1      21.529  -0.548  54.942  1.00  0.00     0.348 C 
HETATM   18  O1  UNL     1      21.371  -1.788  54.891  1.00  0.00    -0.284 OA
ENDBRANCH  15  17
ENDBRANCH  14  15
ENDBRANCH  13  14
ENDBRANCH  12  13
ENDBRANCH   1  12
BRANCH   3  19
HETATM   19  O3  UNL     1      23.638   4.645  49.743  1.00  0.00    -0.360 OA
HETATM   20  H8  UNL     1      23.437   4.754  48.758  1.00  0.00     0.217 HD
ENDBRANCH   3  19
BRANCH   8  21
HETATM   21  C11 UNL     1      27.496   0.313  52.629  1.00  0.00    -0.002 A 
HETATM   22  C12 UNL     1      27.495  -1.064  52.626  1.00  0.00     0.014 A 
HETATM   23  C13 UNL     1      28.539  -1.764  53.196  1.00  0.00     0.001 A 
HETATM   24  C14 UNL     1      29.605  -1.109  53.779  1.00  0.00     0.000 A 
HETATM   25  C15 UNL     1      29.632   0.270  53.796  1.00  0.00     0.001 A 
HETATM   26  C16 UNL     1      28.571   0.926  53.217  1.00  0.00     0.014 A 
ENDBRANCH   8  21
TORSDOF 7
ENDMDL
