MODEL 1
REMARK VINA RESULT:      -8.6      0.000      0.000
REMARK  9 active torsions:
REMARK  status: ('A' for Active; 'I' for Inactive)
REMARK    1  A    between atoms: O1_2  and  C2_3 
REMARK    2  A    between atoms: C2_3  and  C3_4 
REMARK    3  A    between atoms: C3_4  and  O2_5 
REMARK    4  A    between atoms: O2_5  and  C4_6 
REMARK    5  A    between atoms: C8_11  and  O3_12 
REMARK    6  A    between atoms: O3_12  and  C9_13 
REMARK    7  A    between atoms: C9_13  and  C10_14 
REMARK    8  A    between atoms: C10_14  and  O4_15 
REMARK    9  A    between atoms: C21_28  and  N4_29 
ROOT
HETATM    1  C4  UNL     1      25.771   2.378  51.398  1.00  0.00     0.122 A 
HETATM    2  C5  UNL     1      24.380   2.229  51.305  1.00  0.00     0.054 A 
HETATM    3  C6  UNL     1      23.590   1.247  51.933  1.00  0.00     0.026 A 
HETATM    4  C7  UNL     1      24.393   0.372  52.718  1.00  0.00     0.161 A 
HETATM    5  N1  UNL     1      25.695   0.537  52.787  1.00  0.00    -0.202 NA
HETATM    6  C8  UNL     1      26.451   1.462  52.195  1.00  0.00     0.200 A 
HETATM    7  N2  UNL     1      24.010  -0.745  53.500  1.00  0.00    -0.229 NA
HETATM    8  C12 UNL     1      23.827  -0.574  54.801  1.00  0.00     0.190 C 
HETATM    9  N3  UNL     1      23.418  -1.579  55.779  1.00  0.00    -0.219 NA
HETATM   10  C13 UNL     1      22.265  -1.428  55.089  1.00  0.00    -0.057 C 
HETATM   11  C14 UNL     1      21.315  -1.291  54.500  1.00  0.00     0.016 A 
HETATM   12  C15 UNL     1      20.205  -1.117  53.786  1.00  0.00    -0.032 A 
HETATM   13  C16 UNL     1      19.111  -0.939  53.072  1.00  0.00     0.009 A 
HETATM   14  C17 UNL     1      18.927  -0.104  52.005  1.00  0.00    -0.003 A 
HETATM   15  C18 UNL     1      19.948   0.704  51.524  1.00  0.00    -0.018 A 
HETATM   16  C19 UNL     1      21.209   0.681  52.131  1.00  0.00     0.014 A 
HETATM   17  C20 UNL     1      21.111  -0.239  53.172  1.00  0.00     0.115 A 
HETATM   18  C21 UNL     1      22.183   1.595  51.463  1.00  0.00     0.263 C 
HETATM   19  H17 UNL     1      22.787  -2.212  56.234  1.00  0.00     0.143 HD
ENDROOT
BRANCH   1  20
HETATM   20  O2  UNL     1      26.533   3.353  50.771  1.00  0.00    -0.345 OA
BRANCH  20  21
HETATM   21  C3  UNL     1      26.215   3.686  49.433  1.00  0.00     0.202 C 
BRANCH  21  22
HETATM   22  C2  UNL     1      26.917   4.923  48.967  1.00  0.00     0.193 C 
BRANCH  22  23
HETATM   23  O1  UNL     1      28.223   4.664  48.625  1.00  0.00    -0.394 OA
HETATM   24  C1  UNL     1      28.880   5.840  48.213  1.00  0.00     0.201 C 
ENDBRANCH  22  23
ENDBRANCH  21  22
ENDBRANCH  20  21
ENDBRANCH   1  20
BRANCH   6  25
HETATM   25  O3  UNL     1      27.821   1.593  52.301  1.00  0.00    -0.330 OA
BRANCH  25  26
HETATM   26  C9  UNL     1      28.394   2.044  53.498  1.00  0.00     0.203 C 
BRANCH  26  27
HETATM   27  C10 UNL     1      29.087   0.963  54.285  1.00  0.00     0.193 C 
BRANCH  27  28
HETATM   28  O4  UNL     1      29.886   0.195  53.464  1.00  0.00    -0.394 OA
HETATM   29  C11 UNL     1      29.909  -1.158  53.721  1.00  0.00     0.201 C 
ENDBRANCH  27  28
ENDBRANCH  26  27
ENDBRANCH  25  26
ENDBRANCH   6  25
BRANCH  18  30
HETATM   30  N4  UNL     1      22.195   1.392  50.035  1.00  0.00     0.088 N 
HETATM   31  H23 UNL     1      21.859   0.408  49.827  1.00  0.00     0.313 HD
HETATM   32  H24 UNL     1      21.685   2.090  49.482  1.00  0.00     0.313 HD
ENDBRANCH  18  30
TORSDOF 9
ENDMDL
MODEL 2
REMARK VINA RESULT:      -7.8      1.375      1.850
REMARK  9 active torsions:
REMARK  status: ('A' for Active; 'I' for Inactive)
REMARK    1  A    between atoms: O1_2  and  C2_3 
REMARK    2  A    between atoms: C2_3  and  C3_4 
REMARK    3  A    between atoms: C3_4  and  O2_5 
REMARK    4  A    between atoms: O2_5  and  C4_6 
REMARK    5  A    between atoms: C8_11  and  O3_12 
REMARK    6  A    between atoms: O3_12  and  C9_13 
REMARK    7  A    between atoms: C9_13  and  C10_14 
REMARK    8  A    between atoms: C10_14  and  O4_15 
REMARK    9  A    between atoms: C21_28  and  N4_29 
ROOT
HETATM    1  C4  UNL     1      25.193   2.185  51.415  1.00  0.00     0.122 A 
HETATM    2  C5  UNL     1      23.883   2.214  50.916  1.00  0.00     0.054 A 
HETATM    3  C6  UNL     1      22.810   1.392  51.309  1.00  0.00     0.026 A 
HETATM    4  C7  UNL     1      23.213   0.478  52.324  1.00  0.00     0.161 A 
HETATM    5  N1  UNL     1      24.448   0.474  52.772  1.00  0.00    -0.202 NA
HETATM    6  C8  UNL     1      25.470   1.247  52.405  1.00  0.00     0.200 A 
HETATM    7  N2  UNL     1      22.459  -0.520  52.989  1.00  0.00    -0.229 NA
HETATM    8  C12 UNL     1      21.933  -0.234  54.170  1.00  0.00     0.190 C 
HETATM    9  N3  UNL     1      21.115  -1.103  55.011  1.00  0.00    -0.219 NA
HETATM   10  C13 UNL     1      20.248  -0.851  54.005  1.00  0.00    -0.057 C 
HETATM   11  C14 UNL     1      19.540  -0.633  53.156  1.00  0.00     0.016 A 
HETATM   12  C15 UNL     1      18.723  -0.367  52.139  1.00  0.00    -0.032 A 
HETATM   13  C16 UNL     1      17.922  -0.097  51.127  1.00  0.00     0.009 A 
HETATM   14  C17 UNL     1      18.181   0.676  50.030  1.00  0.00    -0.003 A 
HETATM   15  C18 UNL     1      19.405   1.305  49.850  1.00  0.00    -0.018 A 
HETATM   16  C19 UNL     1      20.418   1.161  50.806  1.00  0.00     0.014 A 
HETATM   17  C20 UNL     1      19.887   0.338  51.797  1.00  0.00     0.115 A 
HETATM   18  C21 UNL     1      21.667   1.888  50.432  1.00  0.00     0.263 C 
HETATM   19  H17 UNL     1      20.293  -1.613  55.276  1.00  0.00     0.143 HD
ENDROOT
BRANCH   1  20
HETATM   20  O2  UNL     1      26.239   3.004  51.014  1.00  0.00    -0.345 OA
BRANCH  20  21
HETATM   21  C3  UNL     1      26.439   3.195  49.627  1.00  0.00     0.202 C 
BRANCH  21  22
HETATM   22  C2  UNL     1      26.516   4.643  49.252  1.00  0.00     0.193 C 
BRANCH  22  23
HETATM   23  O1  UNL     1      25.543   5.380  49.883  1.00  0.00    -0.394 OA
HETATM   24  C1  UNL     1      24.415   5.541  49.054  1.00  0.00     0.201 C 
ENDBRANCH  22  23
ENDBRANCH  21  22
ENDBRANCH  20  21
ENDBRANCH   1  20
BRANCH   6  25
HETATM   25  O3  UNL     1      26.754   1.204  52.909  1.00  0.00    -0.330 OA
BRANCH  25  26
HETATM   26  C9  UNL     1      27.023   0.493  54.087  1.00  0.00     0.203 C 
BRANCH  26  27
HETATM   27  C10 UNL     1      28.471   0.529  54.502  1.00  0.00     0.193 C 
BRANCH  27  28
HETATM   28  O4  UNL     1      28.991  -0.747  54.577  1.00  0.00    -0.394 OA
HETATM   29  C11 UNL     1      29.962  -1.069  53.656  1.00  0.00     0.201 C 
ENDBRANCH  27  28
ENDBRANCH  26  27
ENDBRANCH  25  26
ENDBRANCH   6  25
BRANCH  18  30
HETATM   30  N4  UNL     1      22.063   1.583  49.078  1.00  0.00     0.088 N 
HETATM   31  H23 UNL     1      21.480   0.771  48.727  1.00  0.00     0.313 HD
HETATM   32  H24 UNL     1      22.048   2.372  48.422  1.00  0.00     0.313 HD
ENDBRANCH  18  30
TORSDOF 9
ENDMDL
MODEL 3
REMARK VINA RESULT:      -7.7      1.686      5.059
REMARK  9 active torsions:
REMARK  status: ('A' for Active; 'I' for Inactive)
REMARK    1  A    between atoms: O1_2  and  C2_3 
REMARK    2  A    between atoms: C2_3  and  C3_4 
REMARK    3  A    between atoms: C3_4  and  O2_5 
REMARK    4  A    between atoms: O2_5  and  C4_6 
REMARK    5  A    between atoms: C8_11  and  O3_12 
REMARK    6  A    between atoms: O3_12  and  C9_13 
REMARK    7  A    between atoms: C9_13  and  C10_14 
REMARK    8  A    between atoms: C10_14  and  O4_15 
REMARK    9  A    between atoms: C21_28  and  N4_29 
ROOT
HETATM    1  C4  UNL     1      24.430   0.761  53.274  1.00  0.00     0.122 A 
HETATM    2  C5  UNL     1      23.196   0.117  53.439  1.00  0.00     0.054 A 
HETATM    3  C6  UNL     1      21.990   0.415  52.775  1.00  0.00     0.026 A 
HETATM    4  C7  UNL     1      22.163   1.498  51.867  1.00  0.00     0.161 A 
HETATM    5  N1  UNL     1      23.332   2.083  51.734  1.00  0.00    -0.202 NA
HETATM    6  C8  UNL     1      24.477   1.808  52.359  1.00  0.00     0.200 A 
HETATM    7  N2  UNL     1      21.217   2.118  51.013  1.00  0.00    -0.229 NA
HETATM    8  C12 UNL     1      21.162   1.734  49.747  1.00  0.00     0.190 C 
HETATM    9  N3  UNL     1      20.258   2.226  48.710  1.00  0.00    -0.219 NA
HETATM   10  C13 UNL     1      19.390   1.532  49.480  1.00  0.00    -0.057 C 
HETATM   11  C14 UNL     1      18.681   0.952  50.136  1.00  0.00     0.016 A 
HETATM   12  C15 UNL     1      17.861   0.266  50.929  1.00  0.00    -0.032 A 
HETATM   13  C16 UNL     1      17.057  -0.415  51.721  1.00  0.00     0.009 A 
HETATM   14  C17 UNL     1      17.375  -1.088  52.868  1.00  0.00    -0.003 A 
HETATM   15  C18 UNL     1      18.673  -1.129  53.356  1.00  0.00    -0.018 A 
HETATM   16  C19 UNL     1      19.703  -0.472  52.674  1.00  0.00     0.014 A 
HETATM   17  C20 UNL     1      19.104   0.117  51.562  1.00  0.00     0.115 A 
HETATM   18  C21 UNL     1      21.023  -0.607  53.359  1.00  0.00     0.263 C 
HETATM   19  H17 UNL     1      19.380   2.344  48.239  1.00  0.00     0.143 HD
ENDROOT
BRANCH   1  20
HETATM   20  O2  UNL     1      25.608   0.453  53.939  1.00  0.00    -0.345 OA
BRANCH  20  21
HETATM   21  C3  UNL     1      26.285  -0.734  53.574  1.00  0.00     0.202 C 
BRANCH  21  22
HETATM   22  C2  UNL     1      27.713  -0.488  53.196  1.00  0.00     0.193 C 
BRANCH  22  23
HETATM   23  O1  UNL     1      28.560  -1.369  53.823  1.00  0.00    -0.394 OA
HETATM   24  C1  UNL     1      29.903  -0.966  53.680  1.00  0.00     0.201 C 
ENDBRANCH  22  23
ENDBRANCH  21  22
ENDBRANCH  20  21
ENDBRANCH   1  20
BRANCH   6  25
HETATM   25  O3  UNL     1      25.684   2.454  52.182  1.00  0.00    -0.330 OA
BRANCH  25  26
HETATM   26  C9  UNL     1      26.353   2.370  50.953  1.00  0.00     0.203 C 
BRANCH  26  27
HETATM   27  C10 UNL     1      26.060   3.516  50.021  1.00  0.00     0.193 C 
BRANCH  27  28
HETATM   28  O4  UNL     1      27.198   3.898  49.340  1.00  0.00    -0.394 OA
HETATM   29  C11 UNL     1      27.171   5.141  48.749  1.00  0.00     0.201 C 
ENDBRANCH  27  28
ENDBRANCH  26  27
ENDBRANCH  25  26
ENDBRANCH   6  25
BRANCH  18  30
HETATM   30  N4  UNL     1      20.918  -0.278  54.760  1.00  0.00     0.088 N 
HETATM   31  H23 UNL     1      19.967  -0.586  55.113  1.00  0.00     0.313 HD
HETATM   32  H24 UNL     1      21.675  -0.632  55.357  1.00  0.00     0.313 HD
ENDBRANCH  18  30
TORSDOF 9
ENDMDL
MODEL 4
REMARK VINA RESULT:      -7.6      2.952      6.384
REMARK  9 active torsions:
REMARK  status: ('A' for Active; 'I' for Inactive)
REMARK    1  A    between atoms: O1_2  and  C2_3 
REMARK    2  A    between atoms: C2_3  and  C3_4 
REMARK    3  A    between atoms: C3_4  and  O2_5 
REMARK    4  A    between atoms: O2_5  and  C4_6 
REMARK    5  A    between atoms: C8_11  and  O3_12 
REMARK    6  A    between atoms: O3_12  and  C9_13 
REMARK    7  A    between atoms: C9_13  and  C10_14 
REMARK    8  A    between atoms: C10_14  and  O4_15 
REMARK    9  A    between atoms: C21_28  and  N4_29 
ROOT
HETATM    1  C4  UNL     1      23.651   0.096  52.963  1.00  0.00     0.122 A 
HETATM    2  C5  UNL     1      22.924   0.922  52.093  1.00  0.00     0.054 A 
HETATM    3  C6  UNL     1      23.388   2.080  51.440  1.00  0.00     0.026 A 
HETATM    4  C7  UNL     1      24.748   2.341  51.771  1.00  0.00     0.161 A 
HETATM    5  N1  UNL     1      25.404   1.550  52.590  1.00  0.00    -0.202 NA
HETATM    6  C8  UNL     1      24.973   0.453  53.213  1.00  0.00     0.200 A 
HETATM    7  N2  UNL     1      25.592   3.397  51.346  1.00  0.00    -0.229 NA
HETATM    8  C12 UNL     1      26.414   3.180  50.331  1.00  0.00     0.190 C 
HETATM    9  N3  UNL     1      27.348   4.127  49.727  1.00  0.00    -0.219 NA
HETATM   10  C13 UNL     1      26.171   4.649  49.314  1.00  0.00    -0.057 C 
HETATM   11  C14 UNL     1      25.181   5.071  48.983  1.00  0.00     0.016 A 
HETATM   12  C15 UNL     1      23.999   5.556  48.608  1.00  0.00    -0.032 A 
HETATM   13  C16 UNL     1      22.824   6.029  48.242  1.00  0.00     0.009 A 
HETATM   14  C17 UNL     1      21.585   5.530  48.540  1.00  0.00    -0.003 A 
HETATM   15  C18 UNL     1      21.422   4.391  49.315  1.00  0.00    -0.018 A 
HETATM   16  C19 UNL     1      22.539   3.715  49.817  1.00  0.00     0.014 A 
HETATM   17  C20 UNL     1      23.648   4.429  49.366  1.00  0.00     0.115 A 
HETATM   18  C21 UNL     1      22.169   2.530  50.646  1.00  0.00     0.263 C 
HETATM   19  H17 UNL     1      27.622   4.927  49.188  1.00  0.00     0.143 HD
ENDROOT
BRANCH   1  20
HETATM   20  O2  UNL     1      23.176  -1.042  53.598  1.00  0.00    -0.345 OA
BRANCH  20  21
HETATM   21  C3  UNL     1      22.211  -0.879  54.620  1.00  0.00     0.202 C 
BRANCH  21  22
HETATM   22  C2  UNL     1      20.863  -1.396  54.224  1.00  0.00     0.193 C 
BRANCH  22  23
HETATM   23  O1  UNL     1      20.050  -0.387  53.766  1.00  0.00    -0.394 OA
HETATM   24  C1  UNL     1      18.849  -0.905  53.242  1.00  0.00     0.201 C 
ENDBRANCH  22  23
ENDBRANCH  21  22
ENDBRANCH  20  21
ENDBRANCH   1  20
BRANCH   6  25
HETATM   25  O3  UNL     1      25.705  -0.347  54.066  1.00  0.00    -0.330 OA
BRANCH  25  26
HETATM   26  C9  UNL     1      26.519   0.233  55.049  1.00  0.00     0.203 C 
BRANCH  26  27
HETATM   27  C10 UNL     1      27.992   0.146  54.748  1.00  0.00     0.193 C 
BRANCH  27  28
HETATM   28  O4  UNL     1      28.271  -0.966  53.979  1.00  0.00    -0.394 OA
HETATM   29  C11 UNL     1      29.585  -1.144  53.612  1.00  0.00     0.201 C 
ENDBRANCH  27  28
ENDBRANCH  26  27
ENDBRANCH  25  26
ENDBRANCH   6  25
BRANCH  18  30
HETATM   30  N4  UNL     1      21.175   2.875  51.634  1.00  0.00     0.088 N 
HETATM   31  H23 UNL     1      20.558   2.030  51.807  1.00  0.00     0.313 HD
HETATM   32  H24 UNL     1      21.537   3.265  52.511  1.00  0.00     0.313 HD
ENDBRANCH  18  30
TORSDOF 9
ENDMDL
MODEL 5
REMARK VINA RESULT:      -7.6      1.899      5.512
REMARK  9 active torsions:
REMARK  status: ('A' for Active; 'I' for Inactive)
REMARK    1  A    between atoms: O1_2  and  C2_3 
REMARK    2  A    between atoms: C2_3  and  C3_4 
REMARK    3  A    between atoms: C3_4  and  O2_5 
REMARK    4  A    between atoms: O2_5  and  C4_6 
REMARK    5  A    between atoms: C8_11  and  O3_12 
REMARK    6  A    between atoms: O3_12  and  C9_13 
REMARK    7  A    between atoms: C9_13  and  C10_14 
REMARK    8  A    between atoms: C10_14  and  O4_15 
REMARK    9  A    between atoms: C21_28  and  N4_29 
ROOT
HETATM    1  C4  UNL     1      26.335   2.518  51.227  1.00  0.00     0.122 A 
HETATM    2  C5  UNL     1      25.197   1.813  51.644  1.00  0.00     0.054 A 
HETATM    3  C6  UNL     1      23.896   1.915  51.113  1.00  0.00     0.026 A 
HETATM    4  C7  UNL     1      23.853   2.859  50.048  1.00  0.00     0.161 A 
HETATM    5  N1  UNL     1      24.937   3.505  49.679  1.00  0.00    -0.202 NA
HETATM    6  C8  UNL     1      26.170   3.416  50.176  1.00  0.00     0.200 A 
HETATM    7  N2  UNL     1      22.756   3.270  49.252  1.00  0.00    -0.229 NA
HETATM    8  C12 UNL     1      22.583   2.697  48.070  1.00  0.00     0.190 C 
HETATM    9  N3  UNL     1      21.517   2.957  47.106  1.00  0.00    -0.219 NA
HETATM   10  C13 UNL     1      20.820   2.323  48.075  1.00  0.00    -0.057 C 
HETATM   11  C14 UNL     1      20.255   1.796  48.894  1.00  0.00     0.016 A 
HETATM   12  C15 UNL     1      19.606   1.176  49.878  1.00  0.00    -0.032 A 
HETATM   13  C16 UNL     1      18.972   0.563  50.858  1.00  0.00     0.009 A 
HETATM   14  C17 UNL     1      19.491   0.096  52.034  1.00  0.00    -0.003 A 
HETATM   15  C18 UNL     1      20.837   0.228  52.344  1.00  0.00    -0.018 A 
HETATM   16  C19 UNL     1      21.709   0.851  51.445  1.00  0.00     0.014 A 
HETATM   17  C20 UNL     1      20.925   1.220  50.353  1.00  0.00     0.115 A 
HETATM   18  C21 UNL     1      23.109   0.922  51.958  1.00  0.00     0.263 C 
HETATM   19  H17 UNL     1      20.581   2.936  46.746  1.00  0.00     0.143 HD
ENDROOT
BRANCH   1  20
HETATM   20  O2  UNL     1      27.609   2.404  51.763  1.00  0.00    -0.345 OA
BRANCH  20  21
HETATM   21  C3  UNL     1      27.750   1.742  53.005  1.00  0.00     0.202 C 
BRANCH  21  22
HETATM   22  C2  UNL     1      28.830   2.338  53.854  1.00  0.00     0.193 C 
BRANCH  22  23
HETATM   23  O1  UNL     1      29.063   1.583  54.977  1.00  0.00    -0.394 OA
HETATM   24  C1  UNL     1      28.567   0.273  54.818  1.00  0.00     0.201 C 
ENDBRANCH  22  23
ENDBRANCH  21  22
ENDBRANCH  20  21
ENDBRANCH   1  20
BRANCH   6  25
HETATM   25  O3  UNL     1      27.279   4.118  49.751  1.00  0.00    -0.330 OA
BRANCH  25  26
HETATM   26  C9  UNL     1      27.151   5.102  48.760  1.00  0.00     0.203 C 
BRANCH  26  27
HETATM   27  C10 UNL     1      28.465   5.667  48.290  1.00  0.00     0.193 C 
BRANCH  27  28
HETATM   28  O4  UNL     1      28.324   6.987  47.911  1.00  0.00    -0.394 OA
HETATM   29  C11 UNL     1      27.036   7.441  47.742  1.00  0.00     0.201 C 
ENDBRANCH  27  28
ENDBRANCH  26  27
ENDBRANCH  25  26
ENDBRANCH   6  25
BRANCH  18  30
HETATM   30  N4  UNL     1      23.146   1.449  53.301  1.00  0.00     0.088 N 
HETATM   31  H23 UNL     1      23.571   2.419  53.276  1.00  0.00     0.313 HD
HETATM   32  H24 UNL     1      22.252   1.441  53.806  1.00  0.00     0.313 HD
ENDBRANCH  18  30
TORSDOF 9
ENDMDL
MODEL 6
REMARK VINA RESULT:      -7.5      2.921      5.291
REMARK  9 active torsions:
REMARK  status: ('A' for Active; 'I' for Inactive)
REMARK    1  A    between atoms: O1_2  and  C2_3 
REMARK    2  A    between atoms: C2_3  and  C3_4 
REMARK    3  A    between atoms: C3_4  and  O2_5 
REMARK    4  A    between atoms: O2_5  and  C4_6 
REMARK    5  A    between atoms: C8_11  and  O3_12 
REMARK    6  A    between atoms: O3_12  and  C9_13 
REMARK    7  A    between atoms: C9_13  and  C10_14 
REMARK    8  A    between atoms: C10_14  and  O4_15 
REMARK    9  A    between atoms: C21_28  and  N4_29 
ROOT
HETATM    1  C4  UNL     1      25.024   4.723  49.295  1.00  0.00     0.122 A 
HETATM    2  C5  UNL     1      24.271   3.861  50.104  1.00  0.00     0.054 A 
HETATM    3  C6  UNL     1      24.762   2.841  50.942  1.00  0.00     0.026 A 
HETATM    4  C7  UNL     1      26.183   2.771  50.881  1.00  0.00     0.161 A 
HETATM    5  N1  UNL     1      26.863   3.593  50.112  1.00  0.00    -0.202 NA
HETATM    6  C8  UNL     1      26.406   4.559  49.316  1.00  0.00     0.200 A 
HETATM    7  N2  UNL     1      27.072   1.895  51.549  1.00  0.00    -0.229 NA
HETATM    8  C12 UNL     1      27.651   2.312  52.665  1.00  0.00     0.190 C 
HETATM    9  N3  UNL     1      28.579   1.569  53.514  1.00  0.00    -0.219 NA
HETATM   10  C13 UNL     1      27.431   0.902  53.767  1.00  0.00    -0.057 C 
HETATM   11  C14 UNL     1      26.465   0.356  53.963  1.00  0.00     0.016 A 
HETATM   12  C15 UNL     1      25.314  -0.279  54.174  1.00  0.00    -0.032 A 
HETATM   13  C16 UNL     1      24.169  -0.901  54.375  1.00  0.00     0.009 A 
HETATM   14  C17 UNL     1      22.951  -0.626  53.818  1.00  0.00    -0.003 A 
HETATM   15  C18 UNL     1      22.777   0.414  52.915  1.00  0.00    -0.018 A 
HETATM   16  C19 UNL     1      23.863   1.217  52.549  1.00  0.00     0.014 A 
HETATM   17  C20 UNL     1      24.956   0.720  53.256  1.00  0.00     0.115 A 
HETATM   18  C21 UNL     1      23.491   2.265  51.553  1.00  0.00     0.263 C 
HETATM   19  H17 UNL     1      28.857   0.863  54.171  1.00  0.00     0.143 HD
ENDROOT
BRANCH   1  20
HETATM   20  O2  UNL     1      24.522   5.723  48.475  1.00  0.00    -0.345 OA
BRANCH  20  21
HETATM   21  C3  UNL     1      23.349   6.395  48.891  1.00  0.00     0.202 C 
BRANCH  21  22
HETATM   22  C2  UNL     1      23.645   7.596  49.736  1.00  0.00     0.193 C 
BRANCH  22  23
HETATM   23  O1  UNL     1      22.721   7.746  50.741  1.00  0.00    -0.394 OA
HETATM   24  C1  UNL     1      21.820   6.662  50.765  1.00  0.00     0.201 C 
ENDBRANCH  22  23
ENDBRANCH  21  22
ENDBRANCH  20  21
ENDBRANCH   1  20
BRANCH   6  25
HETATM   25  O3  UNL     1      27.165   5.399  48.527  1.00  0.00    -0.330 OA
BRANCH  25  26
HETATM   26  C9  UNL     1      28.545   5.187  48.399  1.00  0.00     0.203 C 
BRANCH  26  27
HETATM   27  C10 UNL     1      29.284   6.345  47.781  1.00  0.00     0.193 C 
BRANCH  27  28
HETATM   28  O4  UNL     1      29.520   7.331  48.716  1.00  0.00    -0.394 OA
HETATM   29  C11 UNL     1      28.824   8.508  48.556  1.00  0.00     0.201 C 
ENDBRANCH  27  28
ENDBRANCH  26  27
ENDBRANCH  25  26
ENDBRANCH   6  25
BRANCH  18  30
HETATM   30  N4  UNL     1      22.757   1.698  50.448  1.00  0.00     0.088 N 
HETATM   31  H23 UNL     1      21.736   1.963  50.543  1.00  0.00     0.313 HD
HETATM   32  H24 UNL     1      23.120   1.919  49.513  1.00  0.00     0.313 HD
ENDBRANCH  18  30
TORSDOF 9
ENDMDL
MODEL 7
REMARK VINA RESULT:      -7.5      4.098      7.843
REMARK  9 active torsions:
REMARK  status: ('A' for Active; 'I' for Inactive)
REMARK    1  A    between atoms: O1_2  and  C2_3 
REMARK    2  A    between atoms: C2_3  and  C3_4 
REMARK    3  A    between atoms: C3_4  and  O2_5 
REMARK    4  A    between atoms: O2_5  and  C4_6 
REMARK    5  A    between atoms: C8_11  and  O3_12 
REMARK    6  A    between atoms: O3_12  and  C9_13 
REMARK    7  A    between atoms: C9_13  and  C10_14 
REMARK    8  A    between atoms: C10_14  and  O4_15 
REMARK    9  A    between atoms: C21_28  and  N4_29 
ROOT
HETATM    1  C4  UNL     1      20.241   3.584  51.753  1.00  0.00     0.122 A 
HETATM    2  C5  UNL     1      21.058   2.586  52.304  1.00  0.00     0.054 A 
HETATM    3  C6  UNL     1      22.390   2.293  51.954  1.00  0.00     0.026 A 
HETATM    4  C7  UNL     1      22.849   3.164  50.926  1.00  0.00     0.161 A 
HETATM    5  N1  UNL     1      22.061   4.090  50.428  1.00  0.00    -0.202 NA
HETATM    6  C8  UNL     1      20.800   4.374  50.753  1.00  0.00     0.200 A 
HETATM    7  N2  UNL     1      24.110   3.210  50.280  1.00  0.00    -0.229 NA
HETATM    8  C12 UNL     1      25.011   4.079  50.714  1.00  0.00     0.190 C 
HETATM    9  N3  UNL     1      26.366   4.279  50.207  1.00  0.00    -0.219 NA
HETATM   10  C13 UNL     1      26.505   3.075  50.806  1.00  0.00    -0.057 C 
HETATM   11  C14 UNL     1      26.601   2.071  51.307  1.00  0.00     0.016 A 
HETATM   12  C15 UNL     1      26.690   0.882  51.900  1.00  0.00    -0.032 A 
HETATM   13  C16 UNL     1      26.766  -0.295  52.489  1.00  0.00     0.009 A 
HETATM   14  C17 UNL     1      25.774  -0.982  53.133  1.00  0.00    -0.003 A 
HETATM   15  C18 UNL     1      24.486  -0.477  53.241  1.00  0.00    -0.018 A 
HETATM   16  C19 UNL     1      24.169   0.768  52.686  1.00  0.00     0.014 A 
HETATM   17  C20 UNL     1      25.347   1.234  52.106  1.00  0.00     0.115 A 
HETATM   18  C21 UNL     1      22.735   1.134  52.880  1.00  0.00     0.263 C 
HETATM   19  H17 UNL     1      27.329   4.048  50.050  1.00  0.00     0.143 HD
ENDROOT
BRANCH   1  20
HETATM   20  O2  UNL     1      18.929   3.857  52.112  1.00  0.00    -0.345 OA
BRANCH  20  21
HETATM   21  C3  UNL     1      17.915   3.001  51.624  1.00  0.00     0.202 C 
BRANCH  21  22
HETATM   22  C2  UNL     1      16.587   3.685  51.520  1.00  0.00     0.193 C 
BRANCH  22  23
HETATM   23  O1  UNL     1      16.261   4.333  52.687  1.00  0.00    -0.394 OA
HETATM   24  C1  UNL     1      14.963   3.983  53.113  1.00  0.00     0.201 C 
ENDBRANCH  22  23
ENDBRANCH  21  22
ENDBRANCH  20  21
ENDBRANCH   1  20
BRANCH   6  25
HETATM   25  O3  UNL     1      20.012   5.362  50.199  1.00  0.00    -0.330 OA
BRANCH  25  26
HETATM   26  C9  UNL     1      20.532   6.198  49.201  1.00  0.00     0.203 C 
BRANCH  26  27
HETATM   27  C10 UNL     1      21.212   7.432  49.734  1.00  0.00     0.193 C 
BRANCH  27  28
HETATM   28  O4  UNL     1      22.580   7.340  49.585  1.00  0.00    -0.394 OA
HETATM   29  C11 UNL     1      23.339   7.634  50.696  1.00  0.00     0.201 C 
ENDBRANCH  27  28
ENDBRANCH  26  27
ENDBRANCH  25  26
ENDBRANCH   6  25
BRANCH  18  30
HETATM   30  N4  UNL     1      21.863   0.055  52.485  1.00  0.00     0.088 N 
HETATM   31  H23 UNL     1      21.325   0.349  51.621  1.00  0.00     0.313 HD
HETATM   32  H24 UNL     1      22.315  -0.858  52.357  1.00  0.00     0.313 HD
ENDBRANCH  18  30
TORSDOF 9
ENDMDL
MODEL 8
REMARK VINA RESULT:      -7.3      2.753      6.487
REMARK  9 active torsions:
REMARK  status: ('A' for Active; 'I' for Inactive)
REMARK    1  A    between atoms: O1_2  and  C2_3 
REMARK    2  A    between atoms: C2_3  and  C3_4 
REMARK    3  A    between atoms: C3_4  and  O2_5 
REMARK    4  A    between atoms: O2_5  and  C4_6 
REMARK    5  A    between atoms: C8_11  and  O3_12 
REMARK    6  A    between atoms: O3_12  and  C9_13 
REMARK    7  A    between atoms: C9_13  and  C10_14 
REMARK    8  A    between atoms: C10_14  and  O4_15 
REMARK    9  A    between atoms: C21_28  and  N4_29 
ROOT
HETATM    1  C4  UNL     1      25.600   0.482  52.561  1.00  0.00     0.122 A 
HETATM    2  C5  UNL     1      25.912   1.631  51.821  1.00  0.00     0.054 A 
HETATM    3  C6  UNL     1      25.002   2.521  51.217  1.00  0.00     0.026 A 
HETATM    4  C7  UNL     1      23.659   2.112  51.448  1.00  0.00     0.161 A 
HETATM    5  N1  UNL     1      23.397   1.029  52.146  1.00  0.00    -0.202 NA
HETATM    6  C8  UNL     1      24.251   0.181  52.720  1.00  0.00     0.200 A 
HETATM    7  N2  UNL     1      22.448   2.708  51.018  1.00  0.00    -0.229 NA
HETATM    8  C12 UNL     1      21.808   3.512  51.852  1.00  0.00     0.190 C 
HETATM    9  N3  UNL     1      20.563   4.237  51.607  1.00  0.00    -0.219 NA
HETATM   10  C13 UNL     1      21.407   4.922  50.802  1.00  0.00    -0.057 C 
HETATM   11  C14 UNL     1      22.124   5.479  50.135  1.00  0.00     0.016 A 
HETATM   12  C15 UNL     1      22.988   6.117  49.349  1.00  0.00    -0.032 A 
HETATM   13  C16 UNL     1      23.852   6.743  48.573  1.00  0.00     0.009 A 
HETATM   14  C17 UNL     1      25.181   6.473  48.402  1.00  0.00    -0.003 A 
HETATM   15  C18 UNL     1      25.809   5.435  49.076  1.00  0.00    -0.018 A 
HETATM   16  C19 UNL     1      25.084   4.629  49.961  1.00  0.00     0.014 A 
HETATM   17  C20 UNL     1      23.782   5.123  49.941  1.00  0.00     0.115 A 
HETATM   18  C21 UNL     1      25.919   3.553  50.573  1.00  0.00     0.263 C 
HETATM   19  H17 UNL     1      19.978   4.942  51.197  1.00  0.00     0.143 HD
ENDROOT
BRANCH   1  20
HETATM   20  O2  UNL     1      26.511  -0.384  53.150  1.00  0.00    -0.345 OA
BRANCH  20  21
HETATM   21  C3  UNL     1      27.879  -0.026  53.123  1.00  0.00     0.202 C 
BRANCH  21  22
HETATM   22  C2  UNL     1      28.473   0.074  54.493  1.00  0.00     0.193 C 
BRANCH  22  23
HETATM   23  O1  UNL     1      28.574   1.382  54.904  1.00  0.00    -0.394 OA
HETATM   24  C1  UNL     1      28.851   2.233  53.816  1.00  0.00     0.201 C 
ENDBRANCH  22  23
ENDBRANCH  21  22
ENDBRANCH  20  21
ENDBRANCH   1  20
BRANCH   6  25
HETATM   25  O3  UNL     1      23.924  -0.946  53.447  1.00  0.00    -0.330 OA
BRANCH  25  26
HETATM   26  C9  UNL     1      23.100  -0.840  54.576  1.00  0.00     0.203 C 
BRANCH  26  27
HETATM   27  C10 UNL     1      21.790  -1.571  54.443  1.00  0.00     0.193 C 
BRANCH  27  28
HETATM   28  O4  UNL     1      20.948  -0.914  53.569  1.00  0.00    -0.394 OA
HETATM   29  C11 UNL     1      20.452   0.299  53.990  1.00  0.00     0.201 C 
ENDBRANCH  27  28
ENDBRANCH  26  27
ENDBRANCH  25  26
ENDBRANCH   6  25
BRANCH  18  30
HETATM   30  N4  UNL     1      26.661   2.833  49.567  1.00  0.00     0.088 N 
HETATM   31  H23 UNL     1      26.740   1.818  49.862  1.00  0.00     0.313 HD
HETATM   32  H24 UNL     1      26.308   2.921  48.607  1.00  0.00     0.313 HD
ENDBRANCH  18  30
TORSDOF 9
ENDMDL
MODEL 9
REMARK VINA RESULT:      -7.2      4.138      7.104
REMARK  9 active torsions:
REMARK  status: ('A' for Active; 'I' for Inactive)
REMARK    1  A    between atoms: O1_2  and  C2_3 
REMARK    2  A    between atoms: C2_3  and  C3_4 
REMARK    3  A    between atoms: C3_4  and  O2_5 
REMARK    4  A    between atoms: O2_5  and  C4_6 
REMARK    5  A    between atoms: C8_11  and  O3_12 
REMARK    6  A    between atoms: O3_12  and  C9_13 
REMARK    7  A    between atoms: C9_13  and  C10_14 
REMARK    8  A    between atoms: C10_14  and  O4_15 
REMARK    9  A    between atoms: C21_28  and  N4_29 
ROOT
HETATM    1  C4  UNL     1      20.361   3.709  50.834  1.00  0.00     0.122 A 
HETATM    2  C5  UNL     1      21.659   3.180  50.866  1.00  0.00     0.054 A 
HETATM    3  C6  UNL     1      22.183   2.281  51.816  1.00  0.00     0.026 A 
HETATM    4  C7  UNL     1      21.205   1.946  52.794  1.00  0.00     0.161 A 
HETATM    5  N1  UNL     1      19.996   2.458  52.738  1.00  0.00    -0.202 NA
HETATM    6  C8  UNL     1      19.492   3.309  51.844  1.00  0.00     0.200 A 
HETATM    7  N2  UNL     1      21.312   1.092  53.919  1.00  0.00    -0.229 NA
HETATM    8  C12 UNL     1      20.888  -0.158  53.807  1.00  0.00     0.190 C 
HETATM    9  N3  UNL     1      20.921  -1.201  54.829  1.00  0.00    -0.219 NA
HETATM   10  C13 UNL     1      22.239  -1.095  54.547  1.00  0.00    -0.057 C 
HETATM   11  C14 UNL     1      23.333  -0.989  54.302  1.00  0.00     0.016 A 
HETATM   12  C15 UNL     1      24.622  -0.842  54.001  1.00  0.00    -0.032 A 
HETATM   13  C16 UNL     1      25.895  -0.689  53.696  1.00  0.00     0.009 A 
HETATM   14  C17 UNL     1      26.447   0.175  52.791  1.00  0.00    -0.003 A 
HETATM   15  C18 UNL     1      25.669   1.046  52.042  1.00  0.00    -0.018 A 
HETATM   16  C19 UNL     1      24.278   1.060  52.199  1.00  0.00     0.014 A 
HETATM   17  C20 UNL     1      23.997   0.096  53.166  1.00  0.00     0.115 A 
HETATM   18  C21 UNL     1      23.613   2.075  51.330  1.00  0.00     0.263 C 
HETATM   19  H17 UNL     1      21.346  -1.879  55.433  1.00  0.00     0.143 HD
ENDROOT
BRANCH   1  20
HETATM   20  O2  UNL     1      19.862   4.594  49.889  1.00  0.00    -0.345 OA
BRANCH  20  21
HETATM   21  C3  UNL     1      20.281   5.944  49.958  1.00  0.00     0.202 C 
BRANCH  21  22
HETATM   22  C2  UNL     1      21.262   6.295  48.883  1.00  0.00     0.193 C 
BRANCH  22  23
HETATM   23  O1  UNL     1      22.538   6.410  49.382  1.00  0.00    -0.394 OA
HETATM   24  C1  UNL     1      22.530   7.025  50.650  1.00  0.00     0.201 C 
ENDBRANCH  22  23
ENDBRANCH  21  22
ENDBRANCH  20  21
ENDBRANCH   1  20
BRANCH   6  25
HETATM   25  O3  UNL     1      18.210   3.818  51.829  1.00  0.00    -0.330 OA
BRANCH  25  26
HETATM   26  C9  UNL     1      17.141   3.019  51.402  1.00  0.00     0.203 C 
BRANCH  26  27
HETATM   27  C10 UNL     1      15.786   3.565  51.771  1.00  0.00     0.193 C 
BRANCH  27  28
HETATM   28  O4  UNL     1      15.850   4.275  52.952  1.00  0.00    -0.394 OA
HETATM   29  C11 UNL     1      14.689   4.347  53.688  1.00  0.00     0.201 C 
ENDBRANCH  27  28
ENDBRANCH  26  27
ENDBRANCH  25  26
ENDBRANCH   6  25
BRANCH  18  30
HETATM   30  N4  UNL     1      24.249   3.365  51.454  1.00  0.00     0.088 N 
HETATM   31  H23 UNL     1      23.947   3.808  52.368  1.00  0.00     0.313 HD
HETATM   32  H24 UNL     1      25.271   3.368  51.352  1.00  0.00     0.313 HD
ENDBRANCH  18  30
TORSDOF 9
ENDMDL
