MODEL 1
REMARK VINA RESULT:      -8.3      0.000      0.000
REMARK  6 active torsions:
REMARK  status: ('A' for Active; 'I' for Inactive)
REMARK    1  A    between atoms: C2_2  and  C3_3 
REMARK    2  A    between atoms: C3_3  and  C4_4 
REMARK    3  A    between atoms: C4_4  and  N1_5 
REMARK    4  A    between atoms: C12_17  and  N5_18 
REMARK    5  A    between atoms: N5_18  and  C13_19 
REMARK    6  A    between atoms: C21_29  and  C22_30 
ROOT
HETATM    1  N1  UNL     1      21.241   0.636  52.209  1.00  0.00    -0.394 N 
HETATM    2  C5  UNL     1      20.875   0.420  50.863  1.00  0.00     0.212 C 
HETATM    3  C6  UNL     1      21.463   1.063  49.803  1.00  0.00    -0.077 C 
HETATM    4  C7  UNL     1      21.953   1.604  48.950  1.00  0.00    -0.004 C 
HETATM    5  C8  UNL     1      22.572   2.296  47.902  1.00  0.00     0.297 C 
HETATM    6  O1  UNL     1      22.938   2.068  46.780  1.00  0.00    -0.258 OA
HETATM    7  N2  UNL     1      22.903   3.692  48.172  1.00  0.00    -0.332 N 
HETATM    8  C9  UNL     1      23.249   5.147  48.453  1.00  0.00     0.274 C 
HETATM    9  N3  UNL     1      22.745   5.326  49.844  1.00  0.00    -0.273 NA
HETATM   10  C10 UNL     1      23.257   4.482  50.729  1.00  0.00     0.052 C 
HETATM   11  C11 UNL     1      24.273   3.489  50.275  1.00  0.00     0.146 C 
HETATM   12  N4  UNL     1      24.546   2.308  50.784  1.00  0.00    -0.241 NA
HETATM   13  C12 UNL     1      23.679   1.861  51.856  1.00  0.00     0.132 C 
HETATM   14  C19 UNL     1      22.668   2.644  52.273  1.00  0.00    -0.006 C 
HETATM   15  C20 UNL     1      22.990   4.127  52.144  1.00  0.00     0.100 C 
HETATM   16  C21 UNL     1      21.544   1.860  52.782  1.00  0.00     0.113 C 
HETATM   17  H12 UNL     1      22.337   3.588  49.010  1.00  0.00     0.165 HD
ENDROOT
BRANCH  13  18
HETATM   18  N5  UNL     1      24.044   0.559  52.366  1.00  0.00    -0.341 N 
HETATM   19  H16 UNL     1      23.429  -0.285  52.353  1.00  0.00     0.167 HD
BRANCH  18  20
HETATM   20  C13 UNL     1      25.331   0.378  52.936  1.00  0.00     0.035 A 
HETATM   21  C14 UNL     1      25.959   1.316  53.759  1.00  0.00     0.032 A 
HETATM   22  C15 UNL     1      27.204   1.120  54.297  1.00  0.00     0.046 A 
HETATM   23  C16 UNL     1      27.917  -0.051  54.044  1.00  0.00     0.138 A 
HETATM   24  F1  UNL     1      29.139  -0.330  54.527  1.00  0.00    -0.204 F 
HETATM   25  C17 UNL     1      27.324  -0.997  53.236  1.00  0.00     0.074 A 
HETATM   26 CL1  UNL     1      28.096  -2.535  52.816  1.00  0.00    -0.081 Cl
HETATM   27  C18 UNL     1      26.071  -0.755  52.717  1.00  0.00     0.056 A 
ENDBRANCH  18  20
ENDBRANCH  13  18
BRANCH  16  28
HETATM   28  C22 UNL     1      20.384   2.801  53.054  1.00  0.00     0.025 C 
HETATM   29  C23 UNL     1      19.715   3.364  51.860  1.00  0.00     0.007 C 
ENDBRANCH  16  28
BRANCH   1  30
HETATM   30  C4  UNL     1      20.419  -0.192  53.091  1.00  0.00     0.118 C 
BRANCH  30  31
HETATM   31  C3  UNL     1      20.988  -0.353  54.472  1.00  0.00     0.019 C 
BRANCH  31  32
HETATM   32  C2  UNL     1      21.870  -1.611  54.399  1.00  0.00    -0.003 C 
HETATM   33  C1  UNL     1      23.032  -1.362  55.338  1.00  0.00     0.005 C 
ENDBRANCH  31  32
ENDBRANCH  30  31
ENDBRANCH   1  30
TORSDOF 6
ENDMDL
MODEL 2
REMARK VINA RESULT:      -8.2      2.462      5.082
REMARK  6 active torsions:
REMARK  status: ('A' for Active; 'I' for Inactive)
REMARK    1  A    between atoms: C2_2  and  C3_3 
REMARK    2  A    between atoms: C3_3  and  C4_4 
REMARK    3  A    between atoms: C4_4  and  N1_5 
REMARK    4  A    between atoms: C12_17  and  N5_18 
REMARK    5  A    between atoms: N5_18  and  C13_19 
REMARK    6  A    between atoms: C21_29  and  C22_30 
ROOT
HETATM    1  N1  UNL     1      22.856   3.771  50.106  1.00  0.00    -0.394 N 
HETATM    2  C5  UNL     1      21.779   4.682  50.162  1.00  0.00     0.212 C 
HETATM    3  C6  UNL     1      20.543   4.367  50.668  1.00  0.00    -0.077 C 
HETATM    4  C7  UNL     1      19.537   4.088  51.081  1.00  0.00    -0.004 C 
HETATM    5  C8  UNL     1      18.289   3.716  51.593  1.00  0.00     0.297 C 
HETATM    6  O1  UNL     1      17.417   4.210  52.258  1.00  0.00    -0.258 OA
HETATM    7  N2  UNL     1      17.854   2.357  51.281  1.00  0.00    -0.332 N 
HETATM    8  C9  UNL     1      17.401   0.942  50.955  1.00  0.00     0.274 C 
HETATM    9  N3  UNL     1      18.531   0.433  50.128  1.00  0.00    -0.273 NA
HETATM   10  C10 UNL     1      19.716   0.484  50.722  1.00  0.00     0.052 C 
HETATM   11  C11 UNL     1      19.801   0.998  52.118  1.00  0.00     0.146 C 
HETATM   12  N4  UNL     1      20.818   1.582  52.714  1.00  0.00    -0.241 NA
HETATM   13  C12 UNL     1      21.968   1.864  51.880  1.00  0.00     0.132 C 
HETATM   14  C19 UNL     1      21.952   1.528  50.576  1.00  0.00    -0.006 C 
HETATM   15  C20 UNL     1      21.126   0.276  50.310  1.00  0.00     0.100 C 
HETATM   16  C21 UNL     1      22.770   2.431  49.769  1.00  0.00     0.113 C 
HETATM   17  H12 UNL     1      18.636   2.335  50.631  1.00  0.00     0.165 HD
ENDROOT
BRANCH  13  18
HETATM   18  N5  UNL     1      23.044   2.501  52.604  1.00  0.00    -0.341 N 
HETATM   19  H16 UNL     1      23.078   3.513  52.863  1.00  0.00     0.167 HD
BRANCH  18  20
HETATM   20  C13 UNL     1      24.158   1.721  53.010  1.00  0.00     0.035 A 
HETATM   21  C14 UNL     1      24.085   0.363  53.328  1.00  0.00     0.032 A 
HETATM   22  C15 UNL     1      25.175  -0.369  53.720  1.00  0.00     0.046 A 
HETATM   23  C16 UNL     1      26.436   0.219  53.821  1.00  0.00     0.138 A 
HETATM   24  F1  UNL     1      27.557  -0.418  54.195  1.00  0.00    -0.204 F 
HETATM   25  C17 UNL     1      26.539   1.559  53.514  1.00  0.00     0.074 A 
HETATM   26 CL1  UNL     1      28.065   2.456  53.594  1.00  0.00    -0.081 Cl
HETATM   27  C18 UNL     1      25.416   2.254  53.125  1.00  0.00     0.056 A 
ENDBRANCH  18  20
ENDBRANCH  13  18
BRANCH  16  28
HETATM   28  C22 UNL     1      22.549   2.100  48.303  1.00  0.00     0.025 C 
HETATM   29  C23 UNL     1      21.242   2.504  47.739  1.00  0.00     0.007 C 
ENDBRANCH  16  28
BRANCH   1  30
HETATM   30  C4  UNL     1      24.024   4.413  49.503  1.00  0.00     0.118 C 
BRANCH  30  31
HETATM   31  C3  UNL     1      25.240   4.403  50.385  1.00  0.00     0.019 C 
BRANCH  31  32
HETATM   32  C2  UNL     1      26.293   3.594  49.607  1.00  0.00    -0.003 C 
HETATM   33  C1  UNL     1      27.148   4.611  48.880  1.00  0.00     0.005 C 
ENDBRANCH  31  32
ENDBRANCH  30  31
ENDBRANCH   1  30
TORSDOF 6
ENDMDL
MODEL 3
REMARK VINA RESULT:      -8.1      1.641      2.042
REMARK  6 active torsions:
REMARK  status: ('A' for Active; 'I' for Inactive)
REMARK    1  A    between atoms: C2_2  and  C3_3 
REMARK    2  A    between atoms: C3_3  and  C4_4 
REMARK    3  A    between atoms: C4_4  and  N1_5 
REMARK    4  A    between atoms: C12_17  and  N5_18 
REMARK    5  A    between atoms: N5_18  and  C13_19 
REMARK    6  A    between atoms: C21_29  and  C22_30 
ROOT
HETATM    1  N1  UNL     1      21.817   1.378  51.018  1.00  0.00    -0.394 N 
HETATM    2  C5  UNL     1      21.370   1.693  49.716  1.00  0.00     0.212 C 
HETATM    3  C6  UNL     1      21.739   2.829  49.041  1.00  0.00    -0.077 C 
HETATM    4  C7  UNL     1      22.046   3.767  48.507  1.00  0.00    -0.004 C 
HETATM    5  C8  UNL     1      22.438   4.947  47.863  1.00  0.00     0.297 C 
HETATM    6  O1  UNL     1      22.732   5.298  46.751  1.00  0.00    -0.258 OA
HETATM    7  N2  UNL     1      22.547   6.128  48.714  1.00  0.00    -0.332 N 
HETATM    8  C9  UNL     1      22.661   7.359  49.601  1.00  0.00     0.274 C 
HETATM    9  N3  UNL     1      22.265   6.823  50.934  1.00  0.00    -0.273 NA
HETATM   10  C10 UNL     1      22.995   5.799  51.356  1.00  0.00     0.052 C 
HETATM   11  C11 UNL     1      24.120   5.316  50.505  1.00  0.00     0.146 C 
HETATM   12  N4  UNL     1      24.638   4.109  50.443  1.00  0.00    -0.241 NA
HETATM   13  C12 UNL     1      23.965   3.087  51.218  1.00  0.00     0.132 C 
HETATM   14  C19 UNL     1      22.876   3.401  51.944  1.00  0.00    -0.006 C 
HETATM   15  C20 UNL     1      22.925   4.828  52.475  1.00  0.00     0.100 C 
HETATM   16  C21 UNL     1      21.956   2.272  52.067  1.00  0.00     0.113 C 
HETATM   17  H12 UNL     1      22.087   5.567  49.427  1.00  0.00     0.165 HD
ENDROOT
BRANCH  13  18
HETATM   18  N5  UNL     1      24.593   1.791  51.103  1.00  0.00    -0.341 N 
HETATM   19  H16 UNL     1      24.485   1.139  50.294  1.00  0.00     0.167 HD
BRANCH  18  20
HETATM   20  C13 UNL     1      25.431   1.336  52.155  1.00  0.00     0.035 A 
HETATM   21  C14 UNL     1      25.154   0.217  52.944  1.00  0.00     0.032 A 
HETATM   22  C15 UNL     1      25.977  -0.203  53.956  1.00  0.00     0.046 A 
HETATM   23  C16 UNL     1      27.156   0.483  54.252  1.00  0.00     0.138 A 
HETATM   24  F1  UNL     1      28.021   0.146  55.222  1.00  0.00    -0.204 F 
HETATM   25  C17 UNL     1      27.456   1.592  53.491  1.00  0.00     0.074 A 
HETATM   26 CL1  UNL     1      28.910   2.572  53.740  1.00  0.00    -0.081 Cl
HETATM   27  C18 UNL     1      26.597   1.975  52.485  1.00  0.00     0.056 A 
ENDBRANCH  18  20
ENDBRANCH  13  18
BRANCH  16  28
HETATM   28  C22 UNL     1      20.682   2.760  52.733  1.00  0.00     0.025 C 
HETATM   29  C23 UNL     1      19.742   3.504  51.864  1.00  0.00     0.007 C 
ENDBRANCH  16  28
BRANCH   1  30
HETATM   30  C4  UNL     1      21.236   0.110  51.454  1.00  0.00     0.118 C 
BRANCH  30  31
HETATM   31  C3  UNL     1      22.041  -0.592  52.511  1.00  0.00     0.019 C 
BRANCH  31  32
HETATM   32  C2  UNL     1      21.055  -0.844  53.666  1.00  0.00    -0.003 C 
HETATM   33  C1  UNL     1      21.901  -0.995  54.912  1.00  0.00     0.005 C 
ENDBRANCH  31  32
ENDBRANCH  30  31
ENDBRANCH   1  30
TORSDOF 6
ENDMDL
MODEL 4
REMARK VINA RESULT:      -7.8      2.360      3.648
REMARK  6 active torsions:
REMARK  status: ('A' for Active; 'I' for Inactive)
REMARK    1  A    between atoms: C2_2  and  C3_3 
REMARK    2  A    between atoms: C3_3  and  C4_4 
REMARK    3  A    between atoms: C4_4  and  N1_5 
REMARK    4  A    between atoms: C12_17  and  N5_18 
REMARK    5  A    between atoms: N5_18  and  C13_19 
REMARK    6  A    between atoms: C21_29  and  C22_30 
ROOT
HETATM    1  N1  UNL     1      21.270   2.619  49.548  1.00  0.00    -0.394 N 
HETATM    2  C5  UNL     1      22.486   2.349  48.881  1.00  0.00     0.212 C 
HETATM    3  C6  UNL     1      23.672   2.967  49.185  1.00  0.00    -0.077 C 
HETATM    4  C7  UNL     1      24.632   3.488  49.444  1.00  0.00    -0.004 C 
HETATM    5  C8  UNL     1      25.816   4.155  49.780  1.00  0.00     0.297 C 
HETATM    6  O1  UNL     1      26.986   3.896  49.878  1.00  0.00    -0.258 OA
HETATM    7  N2  UNL     1      25.673   5.566  50.127  1.00  0.00    -0.332 N 
HETATM    8  C9  UNL     1      25.523   7.036  50.489  1.00  0.00     0.274 C 
HETATM    9  N3  UNL     1      24.058   7.253  50.322  1.00  0.00    -0.273 NA
HETATM   10  C10 UNL     1      23.296   6.451  51.052  1.00  0.00     0.052 C 
HETATM   11  C11 UNL     1      23.948   5.463  51.959  1.00  0.00     0.146 C 
HETATM   12  N4  UNL     1      23.484   4.306  52.376  1.00  0.00    -0.241 NA
HETATM   13  C12 UNL     1      22.225   3.879  51.800  1.00  0.00     0.132 C 
HETATM   14  C19 UNL     1      21.603   4.656  50.893  1.00  0.00    -0.006 C 
HETATM   15  C20 UNL     1      21.848   6.139  51.136  1.00  0.00     0.100 C 
HETATM   16  C21 UNL     1      20.821   3.868  49.943  1.00  0.00     0.113 C 
HETATM   17  H12 UNL     1      24.722   5.480  49.777  1.00  0.00     0.165 HD
ENDROOT
BRANCH  13  18
HETATM   18  N5  UNL     1      21.779   2.603  52.310  1.00  0.00    -0.341 N 
HETATM   19  H16 UNL     1      20.781   2.328  52.452  1.00  0.00     0.167 HD
BRANCH  18  20
HETATM   20  C13 UNL     1      22.745   1.623  52.655  1.00  0.00     0.035 A 
HETATM   21  C14 UNL     1      22.492   0.540  53.501  1.00  0.00     0.032 A 
HETATM   22  C15 UNL     1      23.443  -0.393  53.822  1.00  0.00     0.046 A 
HETATM   23  C16 UNL     1      24.736  -0.305  53.307  1.00  0.00     0.138 A 
HETATM   24  F1  UNL     1      25.729  -1.171  53.564  1.00  0.00    -0.204 F 
HETATM   25  C17 UNL     1      25.017   0.752  52.468  1.00  0.00     0.074 A 
HETATM   26 CL1  UNL     1      26.609   1.009  51.733  1.00  0.00    -0.081 Cl
HETATM   27  C18 UNL     1      24.029   1.666  52.176  1.00  0.00     0.056 A 
ENDBRANCH  18  20
ENDBRANCH  13  18
BRANCH  16  28
HETATM   28  C22 UNL     1      20.310   4.794  48.854  1.00  0.00     0.025 C 
HETATM   29  C23 UNL     1      18.930   5.300  49.031  1.00  0.00     0.007 C 
ENDBRANCH  16  28
BRANCH   1  30
HETATM   30  C4  UNL     1      20.196   1.805  48.980  1.00  0.00     0.118 C 
BRANCH  30  31
HETATM   31  C3  UNL     1      19.129   1.437  49.972  1.00  0.00     0.019 C 
BRANCH  31  32
HETATM   32  C2  UNL     1      19.754   0.332  50.842  1.00  0.00    -0.003 C 
HETATM   33  C1  UNL     1      18.801   0.122  51.999  1.00  0.00     0.005 C 
ENDBRANCH  31  32
ENDBRANCH  30  31
ENDBRANCH   1  30
TORSDOF 6
ENDMDL
MODEL 5
REMARK VINA RESULT:      -7.8      3.457      5.584
REMARK  6 active torsions:
REMARK  status: ('A' for Active; 'I' for Inactive)
REMARK    1  A    between atoms: C2_2  and  C3_3 
REMARK    2  A    between atoms: C3_3  and  C4_4 
REMARK    3  A    between atoms: C4_4  and  N1_5 
REMARK    4  A    between atoms: C12_17  and  N5_18 
REMARK    5  A    between atoms: N5_18  and  C13_19 
REMARK    6  A    between atoms: C21_29  and  C22_30 
ROOT
HETATM    1  N1  UNL     1      24.484   2.946  51.757  1.00  0.00    -0.394 N 
HETATM    2  C5  UNL     1      24.602   2.661  50.379  1.00  0.00     0.212 C 
HETATM    3  C6  UNL     1      23.678   3.049  49.442  1.00  0.00    -0.077 C 
HETATM    4  C7  UNL     1      22.908   3.369  48.690  1.00  0.00    -0.004 C 
HETATM    5  C8  UNL     1      21.932   3.773  47.773  1.00  0.00     0.297 C 
HETATM    6  O1  UNL     1      21.888   4.193  46.647  1.00  0.00    -0.258 OA
HETATM    7  N2  UNL     1      20.550   3.696  48.240  1.00  0.00    -0.332 N 
HETATM    8  C9  UNL     1      19.112   3.616  48.728  1.00  0.00     0.274 C 
HETATM    9  N3  UNL     1      19.277   3.076  50.107  1.00  0.00    -0.273 NA
HETATM   10  C10 UNL     1      20.060   3.802  50.893  1.00  0.00     0.052 C 
HETATM   11  C11 UNL     1      20.657   5.058  50.355  1.00  0.00     0.146 C 
HETATM   12  N4  UNL     1      21.774   5.651  50.713  1.00  0.00    -0.241 NA
HETATM   13  C12 UNL     1      22.591   4.942  51.677  1.00  0.00     0.132 C 
HETATM   14  C19 UNL     1      22.188   3.748  52.151  1.00  0.00    -0.006 C 
HETATM   15  C20 UNL     1      20.671   3.641  52.235  1.00  0.00     0.100 C 
HETATM   16  C21 UNL     1      23.317   2.889  52.501  1.00  0.00     0.113 C 
HETATM   17  H12 UNL     1      20.925   3.178  49.032  1.00  0.00     0.165 HD
ENDROOT
BRANCH  13  18
HETATM   18  N5  UNL     1      23.798   5.656  52.024  1.00  0.00    -0.341 N 
HETATM   19  H16 UNL     1      24.282   5.607  52.948  1.00  0.00     0.167 HD
BRANCH  18  20
HETATM   20  C13 UNL     1      24.400   6.502  51.056  1.00  0.00     0.035 A 
HETATM   21  C14 UNL     1      24.030   7.833  50.844  1.00  0.00     0.032 A 
HETATM   22  C15 UNL     1      24.625   8.630  49.901  1.00  0.00     0.046 A 
HETATM   23  C16 UNL     1      25.650   8.140  49.092  1.00  0.00     0.138 A 
HETATM   24  F1  UNL     1      26.290   8.846  48.146  1.00  0.00    -0.204 F 
HETATM   25  C17 UNL     1      26.037   6.830  49.278  1.00  0.00     0.074 A 
HETATM   26 CL1  UNL     1      27.320   6.057  48.332  1.00  0.00    -0.081 Cl
HETATM   27  C18 UNL     1      25.410   6.068  50.237  1.00  0.00     0.056 A 
ENDBRANCH  18  20
ENDBRANCH  13  18
BRANCH  16  28
HETATM   28  C22 UNL     1      22.784   1.510  52.846  1.00  0.00     0.025 C 
HETATM   29  C23 UNL     1      22.261   0.717  51.711  1.00  0.00     0.007 C 
ENDBRANCH  16  28
BRANCH   1  30
HETATM   30  C4  UNL     1      25.623   2.388  52.484  1.00  0.00     0.118 C 
BRANCH  30  31
HETATM   31  C3  UNL     1      26.495   1.495  51.646  1.00  0.00     0.019 C 
BRANCH  31  32
HETATM   32  C2  UNL     1      26.352   0.095  52.270  1.00  0.00    -0.003 C 
HETATM   33  C1  UNL     1      26.168   0.316  53.756  1.00  0.00     0.005 C 
ENDBRANCH  31  32
ENDBRANCH  30  31
ENDBRANCH   1  30
TORSDOF 6
ENDMDL
MODEL 6
REMARK VINA RESULT:      -7.7      8.104     11.139
REMARK  6 active torsions:
REMARK  status: ('A' for Active; 'I' for Inactive)
REMARK    1  A    between atoms: C2_2  and  C3_3 
REMARK    2  A    between atoms: C3_3  and  C4_4 
REMARK    3  A    between atoms: C4_4  and  N1_5 
REMARK    4  A    between atoms: C12_17  and  N5_18 
REMARK    5  A    between atoms: N5_18  and  C13_19 
REMARK    6  A    between atoms: C21_29  and  C22_30 
ROOT
HETATM    1  N1  UNL     1      30.001   8.867  46.492  1.00  0.00    -0.394 N 
HETATM    2  C5  UNL     1      30.796   8.489  45.388  1.00  0.00     0.212 C 
HETATM    3  C6  UNL     1      31.639   7.406  45.394  1.00  0.00    -0.077 C 
HETATM    4  C7  UNL     1      32.328   6.520  45.420  1.00  0.00    -0.004 C 
HETATM    5  C8  UNL     1      33.184   5.414  45.477  1.00  0.00     0.297 C 
HETATM    6  O1  UNL     1      33.545   4.529  44.748  1.00  0.00    -0.258 OA
HETATM    7  N2  UNL     1      33.866   5.206  46.752  1.00  0.00    -0.332 N 
HETATM    8  C9  UNL     1      34.577   4.989  48.079  1.00  0.00     0.274 C 
HETATM    9  N3  UNL     1      34.079   6.134  48.893  1.00  0.00    -0.273 NA
HETATM   10  C10 UNL     1      32.759   6.196  49.005  1.00  0.00     0.052 C 
HETATM   11  C11 UNL     1      31.928   5.141  48.357  1.00  0.00     0.146 C 
HETATM   12  N4  UNL     1      30.692   5.228  47.918  1.00  0.00    -0.241 NA
HETATM   13  C12 UNL     1      30.091   6.545  47.967  1.00  0.00     0.132 C 
HETATM   14  C19 UNL     1      30.794   7.589  48.444  1.00  0.00    -0.006 C 
HETATM   15  C20 UNL     1      31.777   7.176  49.532  1.00  0.00     0.100 C 
HETATM   16  C21 UNL     1      30.395   8.849  47.820  1.00  0.00     0.113 C 
HETATM   17  H12 UNL     1      33.523   6.130  47.002  1.00  0.00     0.165 HD
ENDROOT
BRANCH  13  18
HETATM   18  N5  UNL     1      28.733   6.561  47.472  1.00  0.00    -0.341 N 
HETATM   19  H16 UNL     1      28.446   6.859  46.514  1.00  0.00     0.167 HD
BRANCH  18  20
HETATM   20  C13 UNL     1      27.682   6.145  48.331  1.00  0.00     0.035 A 
HETATM   21  C14 UNL     1      27.430   4.814  48.669  1.00  0.00     0.032 A 
HETATM   22  C15 UNL     1      26.407   4.436  49.499  1.00  0.00     0.046 A 
HETATM   23  C16 UNL     1      25.552   5.385  50.059  1.00  0.00     0.138 A 
HETATM   24  F1  UNL     1      24.526   5.109  50.881  1.00  0.00    -0.204 F 
HETATM   25  C17 UNL     1      25.775   6.708  49.744  1.00  0.00     0.074 A 
HETATM   26 CL1  UNL     1      24.778   8.033  50.369  1.00  0.00    -0.081 Cl
HETATM   27  C18 UNL     1      26.815   7.039  48.904  1.00  0.00     0.056 A 
ENDBRANCH  18  20
ENDBRANCH  13  18
BRANCH  16  28
HETATM   28  C22 UNL     1      31.355   9.935  48.271  1.00  0.00     0.025 C 
HETATM   29  C23 UNL     1      30.833  10.880  49.283  1.00  0.00     0.007 C 
ENDBRANCH  16  28
BRANCH   1  30
HETATM   30  C4  UNL     1      29.229  10.065  46.167  1.00  0.00     0.118 C 
BRANCH  30  31
HETATM   31  C3  UNL     1      27.752   9.911  46.395  1.00  0.00     0.019 C 
BRANCH  31  32
HETATM   32  C2  UNL     1      27.341  11.149  47.211  1.00  0.00    -0.003 C 
HETATM   33  C1  UNL     1      27.183  10.675  48.640  1.00  0.00     0.005 C 
ENDBRANCH  31  32
ENDBRANCH  30  31
ENDBRANCH   1  30
TORSDOF 6
ENDMDL
MODEL 7
REMARK VINA RESULT:      -7.6      2.492      5.456
REMARK  6 active torsions:
REMARK  status: ('A' for Active; 'I' for Inactive)
REMARK    1  A    between atoms: C2_2  and  C3_3 
REMARK    2  A    between atoms: C3_3  and  C4_4 
REMARK    3  A    between atoms: C4_4  and  N1_5 
REMARK    4  A    between atoms: C12_17  and  N5_18 
REMARK    5  A    between atoms: N5_18  and  C13_19 
REMARK    6  A    between atoms: C21_29  and  C22_30 
ROOT
HETATM    1  N1  UNL     1      24.429   5.527  50.215  1.00  0.00    -0.394 N 
HETATM    2  C5  UNL     1      23.506   5.773  51.256  1.00  0.00     0.212 C 
HETATM    3  C6  UNL     1      22.492   4.912  51.591  1.00  0.00    -0.077 C 
HETATM    4  C7  UNL     1      21.665   4.197  51.847  1.00  0.00    -0.004 C 
HETATM    5  C8  UNL     1      20.637   3.294  52.143  1.00  0.00     0.297 C 
HETATM    6  O1  UNL     1      20.080   2.870  53.120  1.00  0.00    -0.258 OA
HETATM    7  N2  UNL     1      20.019   2.637  50.994  1.00  0.00    -0.332 N 
HETATM    8  C9  UNL     1      19.375   1.953  49.798  1.00  0.00     0.274 C 
HETATM    9  N3  UNL     1      20.118   2.554  48.655  1.00  0.00    -0.273 NA
HETATM   10  C10 UNL     1      21.434   2.396  48.708  1.00  0.00     0.052 C 
HETATM   11  C11 UNL     1      22.023   1.635  49.847  1.00  0.00     0.146 C 
HETATM   12  N4  UNL     1      23.222   1.750  50.373  1.00  0.00    -0.241 NA
HETATM   13  C12 UNL     1      24.044   2.826  49.857  1.00  0.00     0.132 C 
HETATM   14  C19 UNL     1      23.564   3.635  48.894  1.00  0.00    -0.006 C 
HETATM   15  C20 UNL     1      22.603   2.916  47.958  1.00  0.00     0.100 C 
HETATM   16  C21 UNL     1      24.131   4.980  48.978  1.00  0.00     0.113 C 
HETATM   17  H12 UNL     1      20.533   3.308  50.428  1.00  0.00     0.165 HD
ENDROOT
BRANCH  13  18
HETATM   18  N5  UNL     1      25.346   2.886  50.480  1.00  0.00    -0.341 N 
HETATM   19  H16 UNL     1      26.166   3.415  50.109  1.00  0.00     0.167 HD
BRANCH  18  20
HETATM   20  C13 UNL     1      25.563   2.182  51.693  1.00  0.00     0.035 A 
HETATM   21  C14 UNL     1      25.189   2.660  52.951  1.00  0.00     0.032 A 
HETATM   22  C15 UNL     1      25.411   1.962  54.110  1.00  0.00     0.046 A 
HETATM   23  C16 UNL     1      26.033   0.714  54.086  1.00  0.00     0.138 A 
HETATM   24  F1  UNL     1      26.291  -0.040  55.167  1.00  0.00    -0.204 F 
HETATM   25  C17 UNL     1      26.414   0.215  52.859  1.00  0.00     0.074 A 
HETATM   26 CL1  UNL     1      27.217  -1.352  52.657  1.00  0.00    -0.081 Cl
HETATM   27  C18 UNL     1      26.171   0.953  51.722  1.00  0.00     0.056 A 
ENDBRANCH  18  20
ENDBRANCH  13  18
BRANCH  16  28
HETATM   28  C22 UNL     1      23.405   5.871  47.986  1.00  0.00     0.025 C 
HETATM   29  C23 UNL     1      22.030   6.271  48.360  1.00  0.00     0.007 C 
ENDBRANCH  16  28
BRANCH   1  30
HETATM   30  C4  UNL     1      25.371   6.640  50.109  1.00  0.00     0.118 C 
BRANCH  30  31
HETATM   31  C3  UNL     1      24.804   7.957  50.555  1.00  0.00     0.019 C 
BRANCH  31  32
HETATM   32  C2  UNL     1      25.533   9.016  49.709  1.00  0.00    -0.003 C 
HETATM   33  C1  UNL     1      26.962   9.038  50.207  1.00  0.00     0.005 C 
ENDBRANCH  31  32
ENDBRANCH  30  31
ENDBRANCH   1  30
TORSDOF 6
ENDMDL
MODEL 8
REMARK VINA RESULT:      -7.4      8.337     10.260
REMARK  6 active torsions:
REMARK  status: ('A' for Active; 'I' for Inactive)
REMARK    1  A    between atoms: C2_2  and  C3_3 
REMARK    2  A    between atoms: C3_3  and  C4_4 
REMARK    3  A    between atoms: C4_4  and  N1_5 
REMARK    4  A    between atoms: C12_17  and  N5_18 
REMARK    5  A    between atoms: N5_18  and  C13_19 
REMARK    6  A    between atoms: C21_29  and  C22_30 
ROOT
HETATM    1  N1  UNL     1      28.159   7.399  48.217  1.00  0.00    -0.394 N 
HETATM    2  C5  UNL     1      28.290   7.300  46.815  1.00  0.00     0.212 C 
HETATM    3  C6  UNL     1      29.263   7.947  46.095  1.00  0.00    -0.077 C 
HETATM    4  C7  UNL     1      30.062   8.490  45.523  1.00  0.00    -0.004 C 
HETATM    5  C8  UNL     1      31.062   9.182  44.830  1.00  0.00     0.297 C 
HETATM    6  O1  UNL     1      31.793   8.988  43.895  1.00  0.00    -0.258 OA
HETATM    7  N2  UNL     1      31.365  10.522  45.324  1.00  0.00    -0.332 N 
HETATM    8  C9  UNL     1      31.681  11.918  45.839  1.00  0.00     0.274 C 
HETATM    9  N3  UNL     1      30.722  12.061  46.970  1.00  0.00    -0.273 NA
HETATM   10  C10 UNL     1      30.823  11.121  47.900  1.00  0.00     0.052 C 
HETATM   11  C11 UNL     1      31.866  10.066  47.749  1.00  0.00     0.146 C 
HETATM   12  N4  UNL     1      31.858   8.836  48.214  1.00  0.00    -0.241 NA
HETATM   13  C12 UNL     1      30.636   8.409  48.864  1.00  0.00     0.132 C 
HETATM   14  C19 UNL     1      29.595   9.257  48.963  1.00  0.00    -0.006 C 
HETATM   15  C20 UNL     1      30.040  10.708  49.091  1.00  0.00     0.100 C 
HETATM   16  C21 UNL     1      28.314   8.553  48.967  1.00  0.00     0.113 C 
HETATM   17  H12 UNL     1      30.528  10.422  45.894  1.00  0.00     0.165 HD
ENDROOT
BRANCH  13  18
HETATM   18  N5  UNL     1      30.704   7.050  49.351  1.00  0.00    -0.341 N 
HETATM   19  H16 UNL     1      30.163   6.674  50.161  1.00  0.00     0.167 HD
BRANCH  18  20
HETATM   20  C13 UNL     1      31.565   6.128  48.701  1.00  0.00     0.035 A 
HETATM   21  C14 UNL     1      31.153   5.248  47.697  1.00  0.00     0.032 A 
HETATM   22  C15 UNL     1      32.003   4.365  47.085  1.00  0.00     0.046 A 
HETATM   23  C16 UNL     1      33.349   4.301  47.442  1.00  0.00     0.138 A 
HETATM   24  F1  UNL     1      34.253   3.470  46.899  1.00  0.00    -0.204 F 
HETATM   25  C17 UNL     1      33.787   5.157  48.430  1.00  0.00     0.074 A 
HETATM   26 CL1  UNL     1      35.464   5.200  49.001  1.00  0.00    -0.081 Cl
HETATM   27  C18 UNL     1      32.895   6.027  49.017  1.00  0.00     0.056 A 
ENDBRANCH  18  20
ENDBRANCH  13  18
BRANCH  16  28
HETATM   28  C22 UNL     1      27.200   9.581  48.893  1.00  0.00     0.025 C 
HETATM   29  C23 UNL     1      26.211   9.543  49.993  1.00  0.00     0.007 C 
ENDBRANCH  16  28
BRANCH   1  30
HETATM   30  C4  UNL     1      27.021   6.601  48.672  1.00  0.00     0.118 C 
BRANCH  30  31
HETATM   31  C3  UNL     1      27.292   5.123  48.693  1.00  0.00     0.019 C 
BRANCH  31  32
HETATM   32  C2  UNL     1      26.057   4.499  49.367  1.00  0.00    -0.003 C 
HETATM   33  C1  UNL     1      26.485   3.124  49.834  1.00  0.00     0.005 C 
ENDBRANCH  31  32
ENDBRANCH  30  31
ENDBRANCH   1  30
TORSDOF 6
ENDMDL
MODEL 9
REMARK VINA RESULT:      -7.3      4.344      6.583
REMARK  6 active torsions:
REMARK  status: ('A' for Active; 'I' for Inactive)
REMARK    1  A    between atoms: C2_2  and  C3_3 
REMARK    2  A    between atoms: C3_3  and  C4_4 
REMARK    3  A    between atoms: C4_4  and  N1_5 
REMARK    4  A    between atoms: C12_17  and  N5_18 
REMARK    5  A    between atoms: N5_18  and  C13_19 
REMARK    6  A    between atoms: C21_29  and  C22_30 
ROOT
HETATM    1  N1  UNL     1      22.640   2.259  51.156  1.00  0.00    -0.394 N 
HETATM    2  C5  UNL     1      21.720   3.185  51.697  1.00  0.00     0.212 C 
HETATM    3  C6  UNL     1      21.705   4.518  51.373  1.00  0.00    -0.077 C 
HETATM    4  C7  UNL     1      21.712   5.607  51.100  1.00  0.00    -0.004 C 
HETATM    5  C8  UNL     1      21.744   6.962  50.751  1.00  0.00     0.297 C 
HETATM    6  O1  UNL     1      20.956   7.845  50.538  1.00  0.00    -0.258 OA
HETATM    7  N2  UNL     1      23.073   7.539  50.570  1.00  0.00    -0.332 N 
HETATM    8  C9  UNL     1      24.458   8.140  50.381  1.00  0.00     0.274 C 
HETATM    9  N3  UNL     1      25.347   6.982  50.680  1.00  0.00    -0.273 NA
HETATM   10  C10 UNL     1      25.129   5.912  49.928  1.00  0.00     0.052 C 
HETATM   11  C11 UNL     1      24.077   5.973  48.873  1.00  0.00     0.146 C 
HETATM   12  N4  UNL     1      23.367   4.988  48.369  1.00  0.00    -0.241 NA
HETATM   13  C12 UNL     1      23.546   3.691  48.989  1.00  0.00     0.132 C 
HETATM   14  C19 UNL     1      24.402   3.551  50.018  1.00  0.00    -0.006 C 
HETATM   15  C20 UNL     1      25.588   4.501  49.919  1.00  0.00     0.100 C 
HETATM   16  C21 UNL     1      23.987   2.490  50.933  1.00  0.00     0.113 C 
HETATM   17  H12 UNL     1      23.423   6.676  50.979  1.00  0.00     0.165 HD
ENDROOT
BRANCH  13  18
HETATM   18  N5  UNL     1      22.737   2.661  48.379  1.00  0.00    -0.341 N 
HETATM   19  H16 UNL     1      22.934   1.637  48.423  1.00  0.00     0.167 HD
BRANCH  18  20
HETATM   20  C13 UNL     1      21.576   3.036  47.654  1.00  0.00     0.035 A 
HETATM   21  C14 UNL     1      20.283   3.014  48.184  1.00  0.00     0.032 A 
HETATM   22  C15 UNL     1      19.176   3.378  47.463  1.00  0.00     0.046 A 
HETATM   23  C16 UNL     1      19.290   3.800  46.138  1.00  0.00     0.138 A 
HETATM   24  F1  UNL     1      18.265   4.175  45.357  1.00  0.00    -0.204 F 
HETATM   25  C17 UNL     1      20.553   3.833  45.587  1.00  0.00     0.074 A 
HETATM   26 CL1  UNL     1      20.869   4.340  43.919  1.00  0.00    -0.081 Cl
HETATM   27  C18 UNL     1      21.636   3.456  46.350  1.00  0.00     0.056 A 
ENDBRANCH  18  20
ENDBRANCH  13  18
BRANCH  16  28
HETATM   28  C22 UNL     1      24.893   2.522  52.151  1.00  0.00     0.025 C 
HETATM   29  C23 UNL     1      25.989   1.529  52.168  1.00  0.00     0.007 C 
ENDBRANCH  16  28
BRANCH   1  30
HETATM   30  C4  UNL     1      22.397   0.929  51.712  1.00  0.00     0.118 C 
BRANCH  30  31
HETATM   31  C3  UNL     1      21.289   0.891  52.727  1.00  0.00     0.019 C 
BRANCH  31  32
HETATM   32  C2  UNL     1      21.904   0.217  53.966  1.00  0.00    -0.003 C 
HETATM   33  C1  UNL     1      23.095  -0.571  53.466  1.00  0.00     0.005 C 
ENDBRANCH  31  32
ENDBRANCH  30  31
ENDBRANCH   1  30
TORSDOF 6
ENDMDL
