MODEL 1
REMARK VINA RESULT:      -9.1      0.000      0.000
REMARK  5 active torsions:
REMARK  status: ('A' for Active; 'I' for Inactive)
REMARK    1  A    between atoms: C6_6  and  N1_7 
REMARK    2  A    between atoms: N1_7  and  C7_8 
REMARK    3  A    between atoms: C7_8  and  C8_9 
REMARK    4  A    between atoms: C14_15  and  N2_16 
REMARK    5  A    between atoms: N2_16  and  C15_17 
ROOT
HETATM    1  C1  UNL     1      29.762  -0.790  54.207  1.00  0.00     0.042 C 
HETATM    2  C2  UNL     1      28.803  -0.139  53.551  1.00  0.00     0.020 C 
HETATM    3  C3  UNL     1      28.716   1.326  53.715  1.00  0.00     0.029 C 
HETATM    4  C4  UNL     1      27.781   2.026  53.084  1.00  0.00     0.014 C 
HETATM    5  C5  UNL     1      26.838   1.316  52.226  1.00  0.00    -0.001 C 
HETATM    6  C6  UNL     1      26.234   1.907  51.207  1.00  0.00     0.094 C 
HETATM    7  C14 UNL     1      26.594  -0.120  52.562  1.00  0.00     0.217 C 
HETATM    8  N3  UNL     1      27.870  -0.829  52.702  1.00  0.00    -0.365 N 
HETATM    9  H20 UNL     1      28.293  -1.729  52.338  1.00  0.00     0.162 HD
ENDROOT
BRANCH   6  10
HETATM   10  N1  UNL     1      26.540   3.277  50.974  1.00  0.00    -0.394 N 
HETATM   11  H6  UNL     1      27.092   3.914  51.591  1.00  0.00     0.159 HD
BRANCH  10  12
HETATM   12  C7  UNL     1      25.960   3.705  49.714  1.00  0.00     0.157 C 
BRANCH  12  13
HETATM   13  C8  UNL     1      26.609   4.921  49.175  1.00  0.00    -0.041 A 
HETATM   14  C9  UNL     1      26.001   6.159  49.101  1.00  0.00     0.009 A 
HETATM   15  C10 UNL     1      26.701   7.241  48.574  1.00  0.00     0.001 A 
HETATM   16  C11 UNL     1      28.013   7.060  48.128  1.00  0.00     0.000 A 
HETATM   17  C12 UNL     1      28.625   5.811  48.204  1.00  0.00     0.001 A 
HETATM   18  C13 UNL     1      27.916   4.733  48.732  1.00  0.00     0.009 A 
ENDBRANCH  12  13
ENDBRANCH  10  12
ENDBRANCH   6  10
BRANCH   7  19
HETATM   19  N2  UNL     1      25.935  -0.188  53.862  1.00  0.00    -0.365 N 
HETATM   20  H15 UNL     1      26.483   0.014  54.740  1.00  0.00     0.162 HD
BRANCH  19  21
HETATM   21  C15 UNL     1      24.552  -0.513  54.109  1.00  0.00     0.031 A 
HETATM   22  C16 UNL     1      24.111  -1.234  55.222  1.00  0.00     0.029 A 
HETATM   23  C17 UNL     1      22.762  -1.472  55.333  1.00  0.00     0.004 A 
HETATM   24  C18 UNL     1      21.813  -1.055  54.432  1.00  0.00     0.019 A 
HETATM   25  C19 UNL     1      22.254  -0.343  53.335  1.00  0.00     0.013 A 
HETATM   26 BR1  UNL     1      20.934   0.234  52.089  1.00  0.00    -0.051 Br
HETATM   27  C20 UNL     1      23.610  -0.094  53.207  1.00  0.00     0.048 A 
ENDBRANCH  19  21
ENDBRANCH   7  19
TORSDOF 5
ENDMDL
MODEL 2
REMARK VINA RESULT:      -8.8      2.866      5.836
REMARK  5 active torsions:
REMARK  status: ('A' for Active; 'I' for Inactive)
REMARK    1  A    between atoms: C6_6  and  N1_7 
REMARK    2  A    between atoms: N1_7  and  C7_8 
REMARK    3  A    between atoms: C7_8  and  C8_9 
REMARK    4  A    between atoms: C14_15  and  N2_16 
REMARK    5  A    between atoms: N2_16  and  C15_17 
ROOT
HETATM    1  C1  UNL     1      29.559  -1.072  53.427  1.00  0.00     0.042 C 
HETATM    2  C2  UNL     1      28.265  -0.838  53.636  1.00  0.00     0.020 C 
HETATM    3  C3  UNL     1      27.326  -1.053  52.518  1.00  0.00     0.029 C 
HETATM    4  C4  UNL     1      26.025  -0.837  52.670  1.00  0.00     0.014 C 
HETATM    5  C5  UNL     1      25.542  -0.379  53.969  1.00  0.00    -0.001 C 
HETATM    6  C6  UNL     1      24.306  -0.612  54.380  1.00  0.00     0.094 C 
HETATM    7  C14 UNL     1      26.526   0.367  54.812  1.00  0.00     0.217 C 
HETATM    8  N3  UNL     1      27.779  -0.389  54.913  1.00  0.00    -0.365 N 
HETATM    9  H20 UNL     1      28.431  -0.695  55.689  1.00  0.00     0.162 HD
ENDROOT
BRANCH   6  10
HETATM   10  N1  UNL     1      23.451  -1.333  53.499  1.00  0.00    -0.394 N 
HETATM   11  H6  UNL     1      23.733  -2.045  52.790  1.00  0.00     0.159 HD
BRANCH  10  12
HETATM   12  C7  UNL     1      22.072  -0.936  53.715  1.00  0.00     0.157 C 
BRANCH  12  13
HETATM   13  C8  UNL     1      21.637   0.132  52.787  1.00  0.00    -0.041 A 
HETATM   14  C9  UNL     1      21.985   0.190  51.452  1.00  0.00     0.009 A 
HETATM   15  C10 UNL     1      21.521   1.241  50.663  1.00  0.00     0.001 A 
HETATM   16  C11 UNL     1      20.708   2.222  51.235  1.00  0.00     0.000 A 
HETATM   17  C12 UNL     1      20.358   2.162  52.581  1.00  0.00     0.001 A 
HETATM   18  C13 UNL     1      20.827   1.107  53.363  1.00  0.00     0.009 A 
ENDBRANCH  12  13
ENDBRANCH  10  12
ENDBRANCH   6  10
BRANCH   7  19
HETATM   19  N2  UNL     1      26.850   1.624  54.145  1.00  0.00    -0.365 N 
HETATM   20  H15 UNL     1      27.767   2.104  54.345  1.00  0.00     0.162 HD
BRANCH  19  21
HETATM   21  C15 UNL     1      26.027   2.330  53.195  1.00  0.00     0.031 A 
HETATM   22  C16 UNL     1      24.712   2.730  53.454  1.00  0.00     0.029 A 
HETATM   23  C17 UNL     1      24.042   3.398  52.457  1.00  0.00     0.004 A 
HETATM   24  C18 UNL     1      24.566   3.702  51.224  1.00  0.00     0.019 A 
HETATM   25  C19 UNL     1      25.864   3.306  50.974  1.00  0.00     0.013 A 
HETATM   26 BR1  UNL     1      26.586   3.730  49.264  1.00  0.00    -0.051 Br
HETATM   27  C20 UNL     1      26.554   2.631  51.968  1.00  0.00     0.048 A 
ENDBRANCH  19  21
ENDBRANCH   7  19
TORSDOF 5
ENDMDL
MODEL 3
REMARK VINA RESULT:      -8.5      2.476      6.053
REMARK  5 active torsions:
REMARK  status: ('A' for Active; 'I' for Inactive)
REMARK    1  A    between atoms: C6_6  and  N1_7 
REMARK    2  A    between atoms: N1_7  and  C7_8 
REMARK    3  A    between atoms: C7_8  and  C8_9 
REMARK    4  A    between atoms: C14_15  and  N2_16 
REMARK    5  A    between atoms: N2_16  and  C15_17 
ROOT
HETATM    1  C1  UNL     1      29.346   0.303  53.791  1.00  0.00     0.042 C 
HETATM    2  C2  UNL     1      28.023   0.417  53.682  1.00  0.00     0.020 C 
HETATM    3  C3  UNL     1      27.321  -0.476  52.740  1.00  0.00     0.029 C 
HETATM    4  C4  UNL     1      26.003  -0.407  52.592  1.00  0.00     0.014 C 
HETATM    5  C5  UNL     1      25.263   0.573  53.381  1.00  0.00    -0.001 C 
HETATM    6  C6  UNL     1      23.989   0.403  53.695  1.00  0.00     0.094 C 
HETATM    7  C14 UNL     1      26.028   1.781  53.816  1.00  0.00     0.217 C 
HETATM    8  N3  UNL     1      27.285   1.378  54.456  1.00  0.00    -0.365 N 
HETATM    9  H20 UNL     1      27.801   1.612  55.351  1.00  0.00     0.162 HD
ENDROOT
BRANCH   6  10
HETATM   10  N1  UNL     1      23.356  -0.784  53.230  1.00  0.00    -0.394 N 
HETATM   11  H6  UNL     1      23.820  -1.647  52.870  1.00  0.00     0.159 HD
BRANCH  10  12
HETATM   12  C7  UNL     1      21.914  -0.641  53.320  1.00  0.00     0.157 C 
BRANCH  12  13
HETATM   13  C8  UNL     1      21.331  -0.005  52.117  1.00  0.00    -0.041 A 
HETATM   14  C9  UNL     1      22.061   0.376  51.008  1.00  0.00     0.009 A 
HETATM   15  C10 UNL     1      21.414   0.969  49.927  1.00  0.00     0.001 A 
HETATM   16  C11 UNL     1      20.033   1.171  49.979  1.00  0.00     0.000 A 
HETATM   17  C12 UNL     1      19.298   0.786  51.097  1.00  0.00     0.001 A 
HETATM   18  C13 UNL     1      19.954   0.193  52.175  1.00  0.00     0.009 A 
ENDBRANCH  12  13
ENDBRANCH  10  12
ENDBRANCH   6  10
BRANCH   7  19
HETATM   19  N2  UNL     1      26.392   2.553  52.632  1.00  0.00    -0.365 N 
HETATM   20  H15 UNL     1      27.399   2.821  52.469  1.00  0.00     0.162 HD
BRANCH  19  21
HETATM   21  C15 UNL     1      25.498   3.018  51.601  1.00  0.00     0.031 A 
HETATM   22  C16 UNL     1      25.825   3.039  50.242  1.00  0.00     0.029 A 
HETATM   23  C17 UNL     1      24.874   3.508  49.367  1.00  0.00     0.004 A 
HETATM   24  C18 UNL     1      23.627   3.958  49.725  1.00  0.00     0.019 A 
HETATM   25  C19 UNL     1      23.310   3.934  51.069  1.00  0.00     0.013 A 
HETATM   26 BR1  UNL     1      21.580   4.558  51.562  1.00  0.00    -0.051 Br
HETATM   27  C20 UNL     1      24.255   3.465  51.965  1.00  0.00     0.048 A 
ENDBRANCH  19  21
ENDBRANCH   7  19
TORSDOF 5
ENDMDL
MODEL 4
REMARK VINA RESULT:      -8.4      2.514      6.673
REMARK  5 active torsions:
REMARK  status: ('A' for Active; 'I' for Inactive)
REMARK    1  A    between atoms: C6_6  and  N1_7 
REMARK    2  A    between atoms: N1_7  and  C7_8 
REMARK    3  A    between atoms: C7_8  and  C8_9 
REMARK    4  A    between atoms: C14_15  and  N2_16 
REMARK    5  A    between atoms: N2_16  and  C15_17 
ROOT
HETATM    1  C1  UNL     1      29.741  -0.570  53.494  1.00  0.00     0.042 C 
HETATM    2  C2  UNL     1      28.436  -0.305  53.453  1.00  0.00     0.020 C 
HETATM    3  C3  UNL     1      27.539  -1.308  52.847  1.00  0.00     0.029 C 
HETATM    4  C4  UNL     1      26.230  -1.099  52.780  1.00  0.00     0.014 C 
HETATM    5  C5  UNL     1      25.696   0.149  53.318  1.00  0.00    -0.001 C 
HETATM    6  C6  UNL     1      24.451   0.248  53.757  1.00  0.00     0.094 C 
HETATM    7  C14 UNL     1      26.636   1.311  53.346  1.00  0.00     0.217 C 
HETATM    8  N3  UNL     1      27.900   0.921  53.981  1.00  0.00    -0.365 N 
HETATM    9  H20 UNL     1      28.532   1.309  54.736  1.00  0.00     0.162 HD
ENDROOT
BRANCH   6  10
HETATM   10  N1  UNL     1      23.640  -0.919  53.685  1.00  0.00    -0.394 N 
HETATM   11  H6  UNL     1      23.897  -1.842  53.268  1.00  0.00     0.159 HD
BRANCH  10  12
HETATM   12  C7  UNL     1      22.347  -0.660  54.292  1.00  0.00     0.157 C 
BRANCH  12  13
HETATM   13  C8  UNL     1      21.299  -0.365  53.288  1.00  0.00    -0.041 A 
HETATM   14  C9  UNL     1      19.945  -0.515  53.513  1.00  0.00     0.009 A 
HETATM   15  C10 UNL     1      19.040  -0.211  52.499  1.00  0.00     0.001 A 
HETATM   16  C11 UNL     1      19.515   0.244  51.267  1.00  0.00     0.000 A 
HETATM   17  C12 UNL     1      20.881   0.396  51.043  1.00  0.00     0.001 A 
HETATM   18  C13 UNL     1      21.780   0.088  52.063  1.00  0.00     0.009 A 
ENDBRANCH  12  13
ENDBRANCH  10  12
ENDBRANCH   6  10
BRANCH   7  19
HETATM   19  N2  UNL     1      26.958   1.682  51.972  1.00  0.00    -0.365 N 
HETATM   20  H15 UNL     1      27.850   1.336  51.529  1.00  0.00     0.162 HD
BRANCH  19  21
HETATM   21  C15 UNL     1      26.164   2.507  51.096  1.00  0.00     0.031 A 
HETATM   22  C16 UNL     1      24.789   2.338  50.906  1.00  0.00     0.029 A 
HETATM   23  C17 UNL     1      24.155   3.199  50.042  1.00  0.00     0.004 A 
HETATM   24  C18 UNL     1      24.770   4.214  49.351  1.00  0.00     0.019 A 
HETATM   25  C19 UNL     1      26.127   4.377  49.543  1.00  0.00     0.013 A 
HETATM   26 BR1  UNL     1      26.976   5.785  48.582  1.00  0.00    -0.051 Br
HETATM   27  C20 UNL     1      26.782   3.518  50.409  1.00  0.00     0.048 A 
ENDBRANCH  19  21
ENDBRANCH   7  19
TORSDOF 5
ENDMDL
MODEL 5
REMARK VINA RESULT:      -8.4      3.169      7.145
REMARK  5 active torsions:
REMARK  status: ('A' for Active; 'I' for Inactive)
REMARK    1  A    between atoms: C6_6  and  N1_7 
REMARK    2  A    between atoms: N1_7  and  C7_8 
REMARK    3  A    between atoms: C7_8  and  C8_9 
REMARK    4  A    between atoms: C14_15  and  N2_16 
REMARK    5  A    between atoms: N2_16  and  C15_17 
ROOT
HETATM    1  C1  UNL     1      24.512   6.935  51.194  1.00  0.00     0.042 C 
HETATM    2  C2  UNL     1      24.171   5.653  51.077  1.00  0.00     0.020 C 
HETATM    3  C3  UNL     1      22.942   5.193  51.751  1.00  0.00     0.029 C 
HETATM    4  C4  UNL     1      22.553   3.926  51.668  1.00  0.00     0.014 C 
HETATM    5  C5  UNL     1      23.370   2.996  50.896  1.00  0.00    -0.001 C 
HETATM    6  C6  UNL     1      22.860   1.909  50.338  1.00  0.00     0.094 C 
HETATM    7  C14 UNL     1      24.819   3.341  50.768  1.00  0.00     0.217 C 
HETATM    8  N3  UNL     1      24.969   4.729  50.317  1.00  0.00    -0.365 N 
HETATM    9  H20 UNL     1      25.518   5.238  49.569  1.00  0.00     0.162 HD
ENDROOT
BRANCH   6  10
HETATM   10  N1  UNL     1      21.468   1.676  50.520  1.00  0.00    -0.394 N 
HETATM   11  H6  UNL     1      20.698   2.379  50.466  1.00  0.00     0.159 HD
BRANCH  10  12
HETATM   12  C7  UNL     1      21.237   0.272  50.806  1.00  0.00     0.157 C 
BRANCH  12  13
HETATM   13  C8  UNL     1      21.373  -0.043  52.247  1.00  0.00    -0.041 A 
HETATM   14  C9  UNL     1      22.138  -1.078  52.747  1.00  0.00     0.009 A 
HETATM   15  C10 UNL     1      22.198  -1.290  54.122  1.00  0.00     0.001 A 
HETATM   16  C11 UNL     1      21.482  -0.449  54.979  1.00  0.00     0.000 A 
HETATM   17  C12 UNL     1      20.712   0.595  54.473  1.00  0.00     0.001 A 
HETATM   18  C13 UNL     1      20.657   0.798  53.094  1.00  0.00     0.009 A 
ENDBRANCH  12  13
ENDBRANCH  10  12
ENDBRANCH   6  10
BRANCH   7  19
HETATM   19  N2  UNL     1      25.434   3.264  52.090  1.00  0.00    -0.365 N 
HETATM   20  H15 UNL     1      25.604   4.146  52.643  1.00  0.00     0.162 HD
BRANCH  19  21
HETATM   21  C15 UNL     1      25.859   2.067  52.771  1.00  0.00     0.031 A 
HETATM   22  C16 UNL     1      24.979   1.152  53.356  1.00  0.00     0.029 A 
HETATM   23  C17 UNL     1      25.522   0.051  53.973  1.00  0.00     0.004 A 
HETATM   24  C18 UNL     1      26.866  -0.220  54.059  1.00  0.00     0.019 A 
HETATM   25  C19 UNL     1      27.731   0.686  53.479  1.00  0.00     0.013 A 
HETATM   26 BR1  UNL     1      29.593   0.306  53.600  1.00  0.00    -0.051 Br
HETATM   27  C20 UNL     1      27.201   1.802  52.853  1.00  0.00     0.048 A 
ENDBRANCH  19  21
ENDBRANCH   7  19
TORSDOF 5
ENDMDL
MODEL 6
REMARK VINA RESULT:      -8.3      2.637      6.342
REMARK  5 active torsions:
REMARK  status: ('A' for Active; 'I' for Inactive)
REMARK    1  A    between atoms: C6_6  and  N1_7 
REMARK    2  A    between atoms: N1_7  and  C7_8 
REMARK    3  A    between atoms: C7_8  and  C8_9 
REMARK    4  A    between atoms: C14_15  and  N2_16 
REMARK    5  A    between atoms: N2_16  and  C15_17 
ROOT
HETATM    1  C1  UNL     1      27.224   5.449  48.583  1.00  0.00     0.042 C 
HETATM    2  C2  UNL     1      26.509   4.761  49.472  1.00  0.00     0.020 C 
HETATM    3  C3  UNL     1      26.671   3.295  49.515  1.00  0.00     0.029 C 
HETATM    4  C4  UNL     1      25.985   2.559  50.382  1.00  0.00     0.014 C 
HETATM    5  C5  UNL     1      25.064   3.233  51.292  1.00  0.00    -0.001 C 
HETATM    6  C6  UNL     1      24.736   2.719  52.466  1.00  0.00     0.094 C 
HETATM    7  C14 UNL     1      24.511   4.540  50.821  1.00  0.00     0.217 C 
HETATM    8  N3  UNL     1      25.600   5.416  50.374  1.00  0.00    -0.365 N 
HETATM    9  H20 UNL     1      25.897   6.418  50.541  1.00  0.00     0.162 HD
ENDROOT
BRANCH   6  10
HETATM   10  N1  UNL     1      25.321   1.469  52.817  1.00  0.00    -0.394 N 
HETATM   11  H6  UNL     1      25.077   0.529  52.433  1.00  0.00     0.159 HD
BRANCH  10  12
HETATM   12  C7  UNL     1      26.347   1.670  53.824  1.00  0.00     0.157 C 
BRANCH  12  13
HETATM   13  C8  UNL     1      27.486   0.737  53.666  1.00  0.00    -0.041 A 
HETATM   14  C9  UNL     1      28.807   1.080  53.881  1.00  0.00     0.009 A 
HETATM   15  C10 UNL     1      29.805   0.126  53.704  1.00  0.00     0.001 A 
HETATM   16  C11 UNL     1      29.456  -1.169  53.311  1.00  0.00     0.000 A 
HETATM   17  C12 UNL     1      28.124  -1.513  53.096  1.00  0.00     0.001 A 
HETATM   18  C13 UNL     1      27.131  -0.551  53.275  1.00  0.00     0.009 A 
ENDBRANCH  12  13
ENDBRANCH  10  12
ENDBRANCH   6  10
BRANCH   7  19
HETATM   19  N2  UNL     1      23.668   4.295  49.656  1.00  0.00    -0.365 N 
HETATM   20  H15 UNL     1      23.790   4.879  48.786  1.00  0.00     0.162 HD
BRANCH  19  21
HETATM   21  C15 UNL     1      22.631   3.300  49.539  1.00  0.00     0.031 A 
HETATM   22  C16 UNL     1      22.641   2.276  48.587  1.00  0.00     0.029 A 
HETATM   23  C17 UNL     1      21.587   1.394  48.590  1.00  0.00     0.004 A 
HETATM   24  C18 UNL     1      20.524   1.441  49.458  1.00  0.00     0.019 A 
HETATM   25  C19 UNL     1      20.519   2.453  50.396  1.00  0.00     0.013 A 
HETATM   26 BR1  UNL     1      19.043   2.514  51.597  1.00  0.00    -0.051 Br
HETATM   27  C20 UNL     1      21.573   3.351  50.407  1.00  0.00     0.048 A 
ENDBRANCH  19  21
ENDBRANCH   7  19
TORSDOF 5
ENDMDL
MODEL 7
REMARK VINA RESULT:      -8.1      3.051      8.313
REMARK  5 active torsions:
REMARK  status: ('A' for Active; 'I' for Inactive)
REMARK    1  A    between atoms: C6_6  and  N1_7 
REMARK    2  A    between atoms: N1_7  and  C7_8 
REMARK    3  A    between atoms: C7_8  and  C8_9 
REMARK    4  A    between atoms: C14_15  and  N2_16 
REMARK    5  A    between atoms: N2_16  and  C15_17 
ROOT
HETATM    1  C1  UNL     1      21.099   3.967  50.618  1.00  0.00     0.042 C 
HETATM    2  C2  UNL     1      22.334   3.523  50.847  1.00  0.00     0.020 C 
HETATM    3  C3  UNL     1      22.857   3.594  52.225  1.00  0.00     0.029 C 
HETATM    4  C4  UNL     1      24.081   3.165  52.511  1.00  0.00     0.014 C 
HETATM    5  C5  UNL     1      24.899   2.622  51.431  1.00  0.00    -0.001 C 
HETATM    6  C6  UNL     1      25.863   1.743  51.655  1.00  0.00     0.094 C 
HETATM    7  C14 UNL     1      24.585   3.114  50.055  1.00  0.00     0.217 C 
HETATM    8  N3  UNL     1      23.148   2.985  49.790  1.00  0.00    -0.365 N 
HETATM    9  H20 UNL     1      22.542   2.595  49.014  1.00  0.00     0.162 HD
ENDROOT
BRANCH   6  10
HETATM   10  N1  UNL     1      26.079   1.341  53.004  1.00  0.00    -0.394 N 
HETATM   11  H6  UNL     1      26.343   1.951  53.809  1.00  0.00     0.159 HD
BRANCH  10  12
HETATM   12  C7  UNL     1      25.878  -0.091  53.129  1.00  0.00     0.157 C 
BRANCH  12  13
HETATM   13  C8  UNL     1      24.555  -0.430  53.701  1.00  0.00    -0.041 A 
HETATM   14  C9  UNL     1      23.353  -0.227  53.052  1.00  0.00     0.009 A 
HETATM   15  C10 UNL     1      22.162  -0.581  53.681  1.00  0.00     0.001 A 
HETATM   16  C11 UNL     1      22.199  -1.139  54.961  1.00  0.00     0.000 A 
HETATM   17  C12 UNL     1      23.412  -1.344  55.613  1.00  0.00     0.001 A 
HETATM   18  C13 UNL     1      24.600  -0.986  54.977  1.00  0.00     0.009 A 
ENDBRANCH  12  13
ENDBRANCH  10  12
ENDBRANCH   6  10
BRANCH   7  19
HETATM   19  N2  UNL     1      24.895   4.538  49.989  1.00  0.00    -0.365 N 
HETATM   20  H15 UNL     1      24.246   5.239  50.436  1.00  0.00     0.162 HD
BRANCH  19  21
HETATM   21  C15 UNL     1      26.040   5.139  49.352  1.00  0.00     0.031 A 
HETATM   22  C16 UNL     1      27.207   4.438  49.034  1.00  0.00     0.029 A 
HETATM   23  C17 UNL     1      28.223   5.137  48.426  1.00  0.00     0.004 A 
HETATM   24  C18 UNL     1      28.179   6.473  48.107  1.00  0.00     0.019 A 
HETATM   25  C19 UNL     1      27.024   7.159  48.423  1.00  0.00     0.013 A 
HETATM   26 BR1  UNL     1      26.968   9.010  47.979  1.00  0.00    -0.051 Br
HETATM   27  C20 UNL     1      25.991   6.471  49.036  1.00  0.00     0.048 A 
ENDBRANCH  19  21
ENDBRANCH   7  19
TORSDOF 5
ENDMDL
MODEL 8
REMARK VINA RESULT:      -8.0      3.184      7.962
REMARK  5 active torsions:
REMARK  status: ('A' for Active; 'I' for Inactive)
REMARK    1  A    between atoms: C6_6  and  N1_7 
REMARK    2  A    between atoms: N1_7  and  C7_8 
REMARK    3  A    between atoms: C7_8  and  C8_9 
REMARK    4  A    between atoms: C14_15  and  N2_16 
REMARK    5  A    between atoms: N2_16  and  C15_17 
ROOT
HETATM    1  C1  UNL     1      20.809   3.578  49.235  1.00  0.00     0.042 C 
HETATM    2  C2  UNL     1      21.910   3.166  49.862  1.00  0.00     0.020 C 
HETATM    3  C3  UNL     1      21.960   3.278  51.332  1.00  0.00     0.029 C 
HETATM    4  C4  UNL     1      23.032   2.882  52.009  1.00  0.00     0.014 C 
HETATM    5  C5  UNL     1      24.162   2.334  51.266  1.00  0.00    -0.001 C 
HETATM    6  C6  UNL     1      25.015   1.482  51.812  1.00  0.00     0.094 C 
HETATM    7  C14 UNL     1      24.302   2.789  49.849  1.00  0.00     0.217 C 
HETATM    8  N3  UNL     1      23.029   2.623  49.138  1.00  0.00    -0.365 N 
HETATM    9  H20 UNL     1      22.711   2.204  48.220  1.00  0.00     0.162 HD
ENDROOT
BRANCH   6  10
HETATM   10  N1  UNL     1      24.789   1.114  53.168  1.00  0.00    -0.394 N 
HETATM   11  H6  UNL     1      24.377   1.707  53.923  1.00  0.00     0.159 HD
BRANCH  10  12
HETATM   12  C7  UNL     1      25.224  -0.253  53.387  1.00  0.00     0.157 C 
BRANCH  12  13
HETATM   13  C8  UNL     1      26.678  -0.350  53.653  1.00  0.00    -0.041 A 
HETATM   14  C9  UNL     1      27.367   0.479  54.516  1.00  0.00     0.009 A 
HETATM   15  C10 UNL     1      28.737   0.303  54.695  1.00  0.00     0.001 A 
HETATM   16  C11 UNL     1      29.396  -0.712  53.997  1.00  0.00     0.000 A 
HETATM   17  C12 UNL     1      28.700  -1.547  53.127  1.00  0.00     0.001 A 
HETATM   18  C13 UNL     1      27.328  -1.363  52.955  1.00  0.00     0.009 A 
ENDBRANCH  12  13
ENDBRANCH  10  12
ENDBRANCH   6  10
BRANCH   7  19
HETATM   19  N2  UNL     1      24.597   4.219  49.846  1.00  0.00    -0.365 N 
HETATM   20  H15 UNL     1      23.920   4.896  50.288  1.00  0.00     0.162 HD
BRANCH  19  21
HETATM   21  C15 UNL     1      25.762   4.854  49.284  1.00  0.00     0.031 A 
HETATM   22  C16 UNL     1      27.001   4.220  49.146  1.00  0.00     0.029 A 
HETATM   23  C17 UNL     1      28.029   4.945  48.591  1.00  0.00     0.004 A 
HETATM   24  C18 UNL     1      27.932   6.246  48.162  1.00  0.00     0.019 A 
HETATM   25  C19 UNL     1      26.707   6.867  48.300  1.00  0.00     0.013 A 
HETATM   26 BR1  UNL     1      26.577   8.670  47.703  1.00  0.00    -0.051 Br
HETATM   27  C20 UNL     1      25.660   6.151  48.857  1.00  0.00     0.048 A 
ENDBRANCH  19  21
ENDBRANCH   7  19
TORSDOF 5
ENDMDL
MODEL 9
REMARK VINA RESULT:      -7.8      3.035      6.117
REMARK  5 active torsions:
REMARK  status: ('A' for Active; 'I' for Inactive)
REMARK    1  A    between atoms: C6_6  and  N1_7 
REMARK    2  A    between atoms: N1_7  and  C7_8 
REMARK    3  A    between atoms: C7_8  and  C8_9 
REMARK    4  A    between atoms: C14_15  and  N2_16 
REMARK    5  A    between atoms: N2_16  and  C15_17 
ROOT
HETATM    1  C1  UNL     1      21.209   4.646  48.400  1.00  0.00     0.042 C 
HETATM    2  C2  UNL     1      22.117   4.177  49.254  1.00  0.00     0.020 C 
HETATM    3  C3  UNL     1      23.281   3.453  48.708  1.00  0.00     0.029 C 
HETATM    4  C4  UNL     1      24.217   2.963  49.512  1.00  0.00     0.014 C 
HETATM    5  C5  UNL     1      24.070   3.156  50.951  1.00  0.00    -0.001 C 
HETATM    6  C6  UNL     1      25.112   3.178  51.767  1.00  0.00     0.094 C 
HETATM    7  C14 UNL     1      22.672   3.329  51.453  1.00  0.00     0.217 C 
HETATM    8  N3  UNL     1      21.981   4.362  50.674  1.00  0.00    -0.365 N 
HETATM    9  H20 UNL     1      21.399   5.221  50.884  1.00  0.00     0.162 HD
ENDROOT
BRANCH   6  10
HETATM   10  N1  UNL     1      26.399   3.005  51.184  1.00  0.00    -0.394 N 
HETATM   11  H6  UNL     1      26.684   3.231  50.206  1.00  0.00     0.159 HD
BRANCH  10  12
HETATM   12  C7  UNL     1      27.312   2.446  52.164  1.00  0.00     0.157 C 
BRANCH  12  13
HETATM   13  C8  UNL     1      26.823   1.169  52.732  1.00  0.00    -0.041 A 
HETATM   14  C9  UNL     1      26.642   0.012  52.000  1.00  0.00     0.009 A 
HETATM   15  C10 UNL     1      26.175  -1.138  52.631  1.00  0.00     0.001 A 
HETATM   16  C11 UNL     1      25.898  -1.106  54.000  1.00  0.00     0.000 A 
HETATM   17  C12 UNL     1      26.082   0.061  54.737  1.00  0.00     0.001 A 
HETATM   18  C13 UNL     1      26.548   1.208  54.096  1.00  0.00     0.009 A 
ENDBRANCH  12  13
ENDBRANCH  10  12
ENDBRANCH   6  10
BRANCH   7  19
HETATM   19  N2  UNL     1      21.942   2.084  51.233  1.00  0.00    -0.365 N 
HETATM   20  H15 UNL     1      21.556   1.862  50.278  1.00  0.00     0.162 HD
BRANCH  19  21
HETATM   21  C15 UNL     1      21.669   1.064  52.215  1.00  0.00     0.031 A 
HETATM   22  C16 UNL     1      22.620   0.584  53.120  1.00  0.00     0.029 A 
HETATM   23  C17 UNL     1      22.222  -0.391  54.004  1.00  0.00     0.004 A 
HETATM   24  C18 UNL     1      20.960  -0.929  54.066  1.00  0.00     0.019 A 
HETATM   25  C19 UNL     1      20.025  -0.451  53.171  1.00  0.00     0.013 A 
HETATM   26 BR1  UNL     1      18.276  -1.200  53.260  1.00  0.00    -0.051 Br
HETATM   27  C20 UNL     1      20.408   0.531  52.273  1.00  0.00     0.048 A 
ENDBRANCH  19  21
ENDBRANCH   7  19
TORSDOF 5
ENDMDL
