MODEL 1
REMARK VINA RESULT:      -8.5      0.000      0.000
REMARK  2 active torsions:
REMARK  status: ('A' for Active; 'I' for Inactive)
REMARK    1  A    between atoms: N1_4  and  C3_5 
REMARK    2  A    between atoms: C3_5  and  C4_6 
ROOT
HETATM    1 BR1  UNL     1      20.564   1.415  51.470  1.00  0.00    -0.129 Br
HETATM    2  C1  UNL     1      21.951   0.897  52.684  1.00  0.00     0.046 A 
HETATM    3  C2  UNL     1      22.228   2.017  52.038  1.00  0.00     0.215 A 
HETATM    4  N1  UNL     1      23.296   3.036  51.948  1.00  0.00    -0.384 N 
HETATM    5  C9  UNL     1      24.129   3.520  53.081  1.00  0.00     0.130 C 
HETATM    6  C10 UNL     1      24.760   2.470  52.687  1.00  0.00     0.002 C 
HETATM    7  C11 UNL     1      25.256   1.303  52.066  1.00  0.00     0.026 C 
HETATM    8  C12 UNL     1      26.304   0.675  52.465  1.00  0.00     0.042 C 
HETATM    9  C13 UNL     1      27.214   0.994  53.629  1.00  0.00     0.137 C 
HETATM   10  C14 UNL     1      26.749  -0.143  54.551  1.00  0.00     0.110 C 
HETATM   11  N2  UNL     1      27.253  -1.253  54.124  1.00  0.00    -0.228 NA
HETATM   12  C15 UNL     1      27.280  -1.458  52.673  1.00  0.00     0.235 C 
HETATM   13  N3  UNL     1      26.794  -0.510  51.872  1.00  0.00    -0.246 NA
HETATM   14  N4  UNL     1      25.886  -0.256  55.707  1.00  0.00    -0.354 N 
HETATM   15  C16 UNL     1      24.803  -1.169  55.758  1.00  0.00     0.089 C 
HETATM   16  C17 UNL     1      23.655  -1.267  55.187  1.00  0.00     0.017 C 
HETATM   17  C18 UNL     1      22.427  -1.184  54.442  1.00  0.00    -0.001 C 
HETATM   18  C19 UNL     1      22.162  -0.218  53.601  1.00  0.00    -0.008 C 
HETATM   19  H15 UNL     1      26.476   0.480  56.107  1.00  0.00     0.166 HD
ENDROOT
BRANCH   4  20
HETATM   20  C3  UNL     1      23.223   3.378  50.526  1.00  0.00     0.159 C 
BRANCH  20  21
HETATM   21  C4  UNL     1      24.239   4.345  50.100  1.00  0.00    -0.019 A 
HETATM   22  C5  UNL     1      23.986   5.640  50.244  1.00  0.00     0.143 A 
HETATM   23  O1  UNL     1      24.787   6.720  49.915  1.00  0.00    -0.359 OA
HETATM   24  C6  UNL     1      26.050   6.534  49.325  1.00  0.00     0.202 A 
HETATM   25  C7  UNL     1      26.310   5.086  49.169  1.00  0.00     0.000 A 
HETATM   26  C8  UNL     1      25.530   4.084  49.502  1.00  0.00     0.008 A 
ENDBRANCH  20  21
ENDBRANCH   4  20
TORSDOF 2
ENDMDL
MODEL 2
REMARK VINA RESULT:      -8.5      3.293      6.560
REMARK  2 active torsions:
REMARK  status: ('A' for Active; 'I' for Inactive)
REMARK    1  A    between atoms: N1_4  and  C3_5 
REMARK    2  A    between atoms: C3_5  and  C4_6 
ROOT
HETATM    1 BR1  UNL     1      26.595   3.924  49.333  1.00  0.00    -0.129 Br
HETATM    2  C1  UNL     1      24.803   4.031  49.998  1.00  0.00     0.046 A 
HETATM    3  C2  UNL     1      25.576   3.251  50.734  1.00  0.00     0.215 A 
HETATM    4  N1  UNL     1      25.504   2.406  51.946  1.00  0.00    -0.384 N 
HETATM    5  C9  UNL     1      24.699   2.703  53.162  1.00  0.00     0.130 C 
HETATM    6  C10 UNL     1      23.855   2.104  52.397  1.00  0.00     0.002 C 
HETATM    7  C11 UNL     1      23.139   1.429  51.385  1.00  0.00     0.026 C 
HETATM    8  C12 UNL     1      21.891   1.135  51.472  1.00  0.00     0.042 C 
HETATM    9  C13 UNL     1      20.926   1.423  52.599  1.00  0.00     0.137 C 
HETATM   10  C14 UNL     1      20.138   2.538  51.894  1.00  0.00     0.110 C 
HETATM   11  N2  UNL     1      19.359   2.000  51.016  1.00  0.00    -0.228 NA
HETATM   12  C15 UNL     1      19.904   0.887  50.233  1.00  0.00     0.235 C 
HETATM   13  N3  UNL     1      21.155   0.485  50.455  1.00  0.00    -0.246 NA
HETATM   14  N4  UNL     1      20.100   3.983  51.957  1.00  0.00    -0.354 N 
HETATM   15  C16 UNL     1      20.263   4.796  50.808  1.00  0.00     0.089 C 
HETATM   16  C17 UNL     1      21.235   5.092  50.020  1.00  0.00     0.017 C 
HETATM   17  C18 UNL     1      22.448   5.287  49.271  1.00  0.00    -0.001 C 
HETATM   18  C19 UNL     1      23.583   4.713  49.580  1.00  0.00    -0.008 C 
HETATM   19  H15 UNL     1      19.949   3.845  52.961  1.00  0.00     0.166 HD
ENDROOT
BRANCH   4  20
HETATM   20  C3  UNL     1      26.420   1.326  51.577  1.00  0.00     0.159 C 
BRANCH  20  21
HETATM   21  C4  UNL     1      27.339   0.940  52.651  1.00  0.00    -0.019 A 
HETATM   22  C5  UNL     1      27.309  -0.309  53.099  1.00  0.00     0.143 A 
HETATM   23  O1  UNL     1      28.075  -0.890  54.095  1.00  0.00    -0.359 OA
HETATM   24  C6  UNL     1      29.030  -0.142  54.805  1.00  0.00     0.202 A 
HETATM   25  C7  UNL     1      29.045   1.246  54.295  1.00  0.00     0.000 A 
HETATM   26  C8  UNL     1      28.309   1.763  53.339  1.00  0.00     0.008 A 
ENDBRANCH  20  21
ENDBRANCH   4  20
TORSDOF 2
ENDMDL
MODEL 3
REMARK VINA RESULT:      -8.4      3.046      6.726
REMARK  2 active torsions:
REMARK  status: ('A' for Active; 'I' for Inactive)
REMARK    1  A    between atoms: N1_4  and  C3_5 
REMARK    2  A    between atoms: C3_5  and  C4_6 
ROOT
HETATM    1 BR1  UNL     1      23.010  -0.172  53.074  1.00  0.00    -0.129 Br
HETATM    2  C1  UNL     1      22.650   0.923  51.545  1.00  0.00     0.046 A 
HETATM    3  C2  UNL     1      23.800   1.218  52.126  1.00  0.00     0.215 A 
HETATM    4  N1  UNL     1      24.938   2.149  51.973  1.00  0.00    -0.384 N 
HETATM    5  C9  UNL     1      25.507   2.616  50.679  1.00  0.00     0.130 C 
HETATM    6  C10 UNL     1      24.542   3.442  50.884  1.00  0.00     0.002 C 
HETATM    7  C11 UNL     1      23.446   4.208  51.339  1.00  0.00     0.026 C 
HETATM    8  C12 UNL     1      22.943   5.190  50.682  1.00  0.00     0.042 C 
HETATM    9  C13 UNL     1      23.358   5.741  49.337  1.00  0.00     0.137 C 
HETATM   10  C14 UNL     1      22.166   5.198  48.533  1.00  0.00     0.110 C 
HETATM   11  N2  UNL     1      21.127   5.917  48.800  1.00  0.00    -0.228 NA
HETATM   12  C15 UNL     1      20.938   6.326  50.195  1.00  0.00     0.235 C 
HETATM   13  N3  UNL     1      21.828   5.945  51.111  1.00  0.00    -0.246 NA
HETATM   14  N4  UNL     1      21.943   4.096  47.623  1.00  0.00    -0.354 N 
HETATM   15  C16 UNL     1      20.909   3.148  47.820  1.00  0.00     0.089 C 
HETATM   16  C17 UNL     1      20.680   2.195  48.654  1.00  0.00     0.017 C 
HETATM   17  C18 UNL     1      20.624   1.188  49.680  1.00  0.00    -0.001 C 
HETATM   18  C19 UNL     1      21.559   1.028  50.581  1.00  0.00    -0.008 C 
HETATM   19  H15 UNL     1      22.740   4.480  47.106  1.00  0.00     0.166 HD
ENDROOT
BRANCH   4  20
HETATM   20  C3  UNL     1      25.280   2.391  53.375  1.00  0.00     0.159 C 
BRANCH  20  21
HETATM   21  C4  UNL     1      26.522   1.738  53.800  1.00  0.00    -0.019 A 
HETATM   22  C5  UNL     1      26.445   0.629  54.524  1.00  0.00     0.143 A 
HETATM   23  O1  UNL     1      27.473  -0.147  55.030  1.00  0.00    -0.359 OA
HETATM   24  C6  UNL     1      28.818   0.206  54.825  1.00  0.00     0.202 A 
HETATM   25  C7  UNL     1      28.883   1.446  54.022  1.00  0.00     0.000 A 
HETATM   26  C8  UNL     1      27.884   2.155  53.548  1.00  0.00     0.008 A 
ENDBRANCH  20  21
ENDBRANCH   4  20
TORSDOF 2
ENDMDL
MODEL 4
REMARK VINA RESULT:      -8.4      3.733      6.787
REMARK  2 active torsions:
REMARK  status: ('A' for Active; 'I' for Inactive)
REMARK    1  A    between atoms: N1_4  and  C3_5 
REMARK    2  A    between atoms: C3_5  and  C4_6 
ROOT
HETATM    1 BR1  UNL     1      22.136  -0.702  54.828  1.00  0.00    -0.129 Br
HETATM    2  C1  UNL     1      20.833  -0.414  53.456  1.00  0.00     0.046 A 
HETATM    3  C2  UNL     1      21.974   0.208  53.216  1.00  0.00     0.215 A 
HETATM    4  N1  UNL     1      22.594   1.082  52.196  1.00  0.00    -0.384 N 
HETATM    5  C9  UNL     1      22.369   0.994  50.728  1.00  0.00     0.130 C 
HETATM    6  C10 UNL     1      21.395   1.735  51.124  1.00  0.00     0.002 C 
HETATM    7  C11 UNL     1      20.437   2.517  51.806  1.00  0.00     0.026 C 
HETATM    8  C12 UNL     1      19.429   3.068  51.232  1.00  0.00     0.042 C 
HETATM    9  C13 UNL     1      19.025   3.020  49.776  1.00  0.00     0.137 C 
HETATM   10  C14 UNL     1      17.824   2.076  49.943  1.00  0.00     0.110 C 
HETATM   11  N2  UNL     1      16.846   2.740  50.462  1.00  0.00    -0.228 NA
HETATM   12  C15 UNL     1      17.178   3.692  51.526  1.00  0.00     0.235 C 
HETATM   13  N3  UNL     1      18.448   3.829  51.906  1.00  0.00    -0.246 NA
HETATM   14  N4  UNL     1      17.565   0.673  49.701  1.00  0.00    -0.354 N 
HETATM   15  C16 UNL     1      17.058  -0.188  50.707  1.00  0.00     0.089 C 
HETATM   16  C17 UNL     1      17.515  -0.703  51.793  1.00  0.00     0.017 C 
HETATM   17  C18 UNL     1      18.218  -1.168  52.959  1.00  0.00    -0.001 C 
HETATM   18  C19 UNL     1      19.454  -0.836  53.232  1.00  0.00    -0.008 C 
HETATM   19  H15 UNL     1      17.898   0.867  48.752  1.00  0.00     0.166 HD
ENDROOT
BRANCH   4  20
HETATM   20  C3  UNL     1      23.428   1.936  53.043  1.00  0.00     0.159 C 
BRANCH  20  21
HETATM   21  C4  UNL     1      24.849   1.577  53.026  1.00  0.00    -0.019 A 
HETATM   22  C5  UNL     1      25.694   2.279  53.769  1.00  0.00     0.143 A 
HETATM   23  O1  UNL     1      27.062   2.122  53.907  1.00  0.00    -0.359 OA
HETATM   24  C6  UNL     1      27.754   1.127  53.193  1.00  0.00     0.202 A 
HETATM   25  C7  UNL     1      26.796   0.360  52.367  1.00  0.00     0.000 A 
HETATM   26  C8  UNL     1      25.498   0.530  52.267  1.00  0.00     0.008 A 
ENDBRANCH  20  21
ENDBRANCH   4  20
TORSDOF 2
ENDMDL
MODEL 5
REMARK VINA RESULT:      -7.6      3.277      7.690
REMARK  2 active torsions:
REMARK  status: ('A' for Active; 'I' for Inactive)
REMARK    1  A    between atoms: N1_4  and  C3_5 
REMARK    2  A    between atoms: C3_5  and  C4_6 
ROOT
HETATM    1 BR1  UNL     1      26.603   1.388  51.335  1.00  0.00    -0.129 Br
HETATM    2  C1  UNL     1      25.746   2.956  50.647  1.00  0.00     0.046 A 
HETATM    3  C2  UNL     1      24.921   2.180  51.330  1.00  0.00     0.215 A 
HETATM    4  N1  UNL     1      23.505   2.129  51.752  1.00  0.00    -0.384 N 
HETATM    5  C9  UNL     1      22.674   3.301  52.139  1.00  0.00     0.130 C 
HETATM    6  C10 UNL     1      22.548   3.270  50.859  1.00  0.00     0.002 C 
HETATM    7  C11 UNL     1      22.571   3.016  49.470  1.00  0.00     0.026 C 
HETATM    8  C12 UNL     1      21.974   3.751  48.602  1.00  0.00     0.042 C 
HETATM    9  C13 UNL     1      21.153   5.001  48.824  1.00  0.00     0.137 C 
HETATM   10  C14 UNL     1      22.183   6.003  48.280  1.00  0.00     0.110 C 
HETATM   11  N2  UNL     1      22.193   5.925  46.991  1.00  0.00    -0.228 NA
HETATM   12  C15 UNL     1      22.101   4.585  46.404  1.00  0.00     0.235 C 
HETATM   13  N3  UNL     1      22.013   3.526  47.208  1.00  0.00    -0.246 NA
HETATM   14  N4  UNL     1      23.125   6.940  48.854  1.00  0.00    -0.354 N 
HETATM   15  C16 UNL     1      24.502   6.929  48.521  1.00  0.00     0.089 C 
HETATM   16  C17 UNL     1      25.499   6.150  48.751  1.00  0.00     0.017 C 
HETATM   17  C18 UNL     1      26.465   5.150  49.125  1.00  0.00    -0.001 C 
HETATM   18  C19 UNL     1      26.167   4.098  49.843  1.00  0.00    -0.008 C 
HETATM   19  H15 UNL     1      22.313   7.307  49.360  1.00  0.00     0.166 HD
ENDROOT
BRANCH   4  20
HETATM   20  C3  UNL     1      23.256   0.688  51.688  1.00  0.00     0.159 C 
BRANCH  20  21
HETATM   21  C4  UNL     1      23.091   0.060  53.003  1.00  0.00    -0.019 A 
HETATM   22  C5  UNL     1      24.154  -0.464  53.598  1.00  0.00     0.143 A 
HETATM   23  O1  UNL     1      24.234  -1.100  54.825  1.00  0.00    -0.359 OA
HETATM   24  C6  UNL     1      23.090  -1.286  55.621  1.00  0.00     0.202 A 
HETATM   25  C7  UNL     1      21.916  -0.701  54.939  1.00  0.00     0.000 A 
HETATM   26  C8  UNL     1      21.877  -0.094  53.775  1.00  0.00     0.008 A 
ENDBRANCH  20  21
ENDBRANCH   4  20
TORSDOF 2
ENDMDL
MODEL 6
REMARK VINA RESULT:      -7.6      3.482      5.963
REMARK  2 active torsions:
REMARK  status: ('A' for Active; 'I' for Inactive)
REMARK    1  A    between atoms: N1_4  and  C3_5 
REMARK    2  A    between atoms: C3_5  and  C4_6 
ROOT
HETATM    1 BR1  UNL     1      24.796   2.263  53.002  1.00  0.00    -0.129 Br
HETATM    2  C1  UNL     1      23.167   1.831  52.094  1.00  0.00     0.046 A 
HETATM    3  C2  UNL     1      23.898   2.717  51.439  1.00  0.00     0.215 A 
HETATM    4  N1  UNL     1      23.867   3.507  50.190  1.00  0.00    -0.384 N 
HETATM    5  C9  UNL     1      23.314   3.047  48.888  1.00  0.00     0.130 C 
HETATM    6  C10 UNL     1      22.277   3.509  49.494  1.00  0.00     0.002 C 
HETATM    7  C11 UNL     1      21.314   4.073  50.360  1.00  0.00     0.026 C 
HETATM    8  C12 UNL     1      20.062   4.145  50.082  1.00  0.00     0.042 C 
HETATM    9  C13 UNL     1      19.338   3.667  48.844  1.00  0.00     0.137 C 
HETATM   10  C14 UNL     1      18.652   2.450  49.482  1.00  0.00     0.110 C 
HETATM   11  N2  UNL     1      17.672   2.865  50.213  1.00  0.00    -0.228 NA
HETATM   12  C15 UNL     1      17.900   4.073  51.011  1.00  0.00     0.235 C 
HETATM   13  N3  UNL     1      19.085   4.680  50.950  1.00  0.00    -0.246 NA
HETATM   14  N4  UNL     1      18.867   1.019  49.484  1.00  0.00    -0.354 N 
HETATM   15  C16 UNL     1      18.991   0.273  50.683  1.00  0.00     0.089 C 
HETATM   16  C17 UNL     1      19.871   0.168  51.615  1.00  0.00     0.017 C 
HETATM   17  C18 UNL     1      20.975   0.204  52.538  1.00  0.00    -0.001 C 
HETATM   18  C19 UNL     1      22.029   0.958  52.367  1.00  0.00    -0.008 C 
HETATM   19  H15 UNL     1      18.847   1.105  48.464  1.00  0.00     0.166 HD
ENDROOT
BRANCH   4  20
HETATM   20  C3  UNL     1      24.523   4.739  50.634  1.00  0.00     0.159 C 
BRANCH  20  21
HETATM   21  C4  UNL     1      25.702   5.097  49.840  1.00  0.00    -0.019 A 
HETATM   22  C5  UNL     1      25.887   6.369  49.510  1.00  0.00     0.143 A 
HETATM   23  O1  UNL     1      26.915   6.932  48.775  1.00  0.00    -0.359 OA
HETATM   24  C6  UNL     1      27.945   6.137  48.241  1.00  0.00     0.202 A 
HETATM   25  C7  UNL     1      27.718   4.724  48.614  1.00  0.00     0.000 A 
HETATM   26  C8  UNL     1      26.733   4.224  49.324  1.00  0.00     0.008 A 
ENDBRANCH  20  21
ENDBRANCH   4  20
TORSDOF 2
ENDMDL
MODEL 7
REMARK VINA RESULT:      -7.5      8.942     11.744
REMARK  2 active torsions:
REMARK  status: ('A' for Active; 'I' for Inactive)
REMARK    1  A    between atoms: N1_4  and  C3_5 
REMARK    2  A    between atoms: C3_5  and  C4_6 
ROOT
HETATM    1 BR1  UNL     1      28.073   5.333  48.478  1.00  0.00    -0.129 Br
HETATM    2  C1  UNL     1      28.253   7.069  47.690  1.00  0.00     0.046 A 
HETATM    3  C2  UNL     1      29.403   6.423  47.772  1.00  0.00     0.215 A 
HETATM    4  N1  UNL     1      30.832   6.610  47.440  1.00  0.00    -0.384 N 
HETATM    5  C9  UNL     1      31.357   7.329  46.247  1.00  0.00     0.130 C 
HETATM    6  C10 UNL     1      31.179   8.276  47.100  1.00  0.00     0.002 C 
HETATM    7  C11 UNL     1      30.902   9.115  48.202  1.00  0.00     0.026 C 
HETATM    8  C12 UNL     1      31.038  10.393  48.175  1.00  0.00     0.042 C 
HETATM    9  C13 UNL     1      31.492  11.273  47.033  1.00  0.00     0.137 C 
HETATM   10  C14 UNL     1      30.118  11.878  46.704  1.00  0.00     0.110 C 
HETATM   11  N2  UNL     1      29.826  12.754  47.607  1.00  0.00    -0.228 NA
HETATM   12  C15 UNL     1      30.159  12.417  48.994  1.00  0.00     0.235 C 
HETATM   13  N3  UNL     1      30.737  11.246  49.260  1.00  0.00    -0.246 NA
HETATM   14  N4  UNL     1      29.110  11.674  45.686  1.00  0.00    -0.354 N 
HETATM   15  C16 UNL     1      27.757  11.401  46.005  1.00  0.00     0.089 C 
HETATM   16  C17 UNL     1      27.111  10.409  46.509  1.00  0.00     0.017 C 
HETATM   17  C18 UNL     1      26.592   9.195  47.082  1.00  0.00    -0.001 C 
HETATM   18  C19 UNL     1      27.342   8.167  47.385  1.00  0.00    -0.008 C 
HETATM   19  H15 UNL     1      29.877  11.825  45.024  1.00  0.00     0.166 HD
ENDROOT
BRANCH   4  20
HETATM   20  C3  UNL     1      31.463   5.894  48.550  1.00  0.00     0.159 C 
BRANCH  20  21
HETATM   21  C4  UNL     1      32.521   4.970  48.130  1.00  0.00    -0.019 A 
HETATM   22  C5  UNL     1      33.780   5.263  48.429  1.00  0.00     0.143 A 
HETATM   23  O1  UNL     1      34.928   4.548  48.137  1.00  0.00    -0.359 OA
HETATM   24  C6  UNL     1      34.868   3.343  47.413  1.00  0.00     0.202 A 
HETATM   25  C7  UNL     1      33.459   3.037  47.086  1.00  0.00     0.000 A 
HETATM   26  C8  UNL     1      32.389   3.736  47.388  1.00  0.00     0.008 A 
ENDBRANCH  20  21
ENDBRANCH   4  20
TORSDOF 2
ENDMDL
MODEL 8
REMARK VINA RESULT:      -7.3      3.225      7.578
REMARK  2 active torsions:
REMARK  status: ('A' for Active; 'I' for Inactive)
REMARK    1  A    between atoms: N1_4  and  C3_5 
REMARK    2  A    between atoms: C3_5  and  C4_6 
ROOT
HETATM    1 BR1  UNL     1      21.597   0.995  49.687  1.00  0.00    -0.129 Br
HETATM    2  C1  UNL     1      22.175   2.658  48.934  1.00  0.00     0.046 A 
HETATM    3  C2  UNL     1      22.832   2.339  50.036  1.00  0.00     0.215 A 
HETATM    4  N1  UNL     1      23.907   2.866  50.904  1.00  0.00    -0.384 N 
HETATM    5  C9  UNL     1      25.109   3.610  50.440  1.00  0.00     0.130 C 
HETATM    6  C10 UNL     1      24.224   4.537  50.558  1.00  0.00     0.002 C 
HETATM    7  C11 UNL     1      23.090   5.352  50.771  1.00  0.00     0.026 C 
HETATM    8  C12 UNL     1      23.069   6.616  50.540  1.00  0.00     0.042 C 
HETATM    9  C13 UNL     1      24.173   7.500  50.009  1.00  0.00     0.137 C 
HETATM   10  C14 UNL     1      23.593   7.704  48.601  1.00  0.00     0.110 C 
HETATM   11  N2  UNL     1      22.608   8.536  48.678  1.00  0.00    -0.228 NA
HETATM   12  C15 UNL     1      21.705   8.396  49.824  1.00  0.00     0.235 C 
HETATM   13  N3  UNL     1      21.933   7.437  50.721  1.00  0.00    -0.246 NA
HETATM   14  N4  UNL     1      23.858   7.174  47.282  1.00  0.00    -0.354 N 
HETATM   15  C16 UNL     1      22.846   6.583  46.485  1.00  0.00     0.089 C 
HETATM   16  C17 UNL     1      22.160   5.496  46.525  1.00  0.00     0.017 C 
HETATM   17  C18 UNL     1      21.511   4.233  46.760  1.00  0.00    -0.001 C 
HETATM   18  C19 UNL     1      21.794   3.458  47.775  1.00  0.00    -0.008 C 
HETATM   19  H15 UNL     1      24.823   7.471  47.454  1.00  0.00     0.166 HD
ENDROOT
BRANCH   4  20
HETATM   20  C3  UNL     1      23.437   2.419  52.217  1.00  0.00     0.159 C 
BRANCH  20  21
HETATM   21  C4  UNL     1      24.433   1.651  52.969  1.00  0.00    -0.019 A 
HETATM   22  C5  UNL     1      25.364   2.308  53.649  1.00  0.00     0.143 A 
HETATM   23  O1  UNL     1      26.394   1.798  54.422  1.00  0.00    -0.359 OA
HETATM   24  C6  UNL     1      26.582   0.411  54.556  1.00  0.00     0.202 A 
HETATM   25  C7  UNL     1      25.539  -0.302  53.787  1.00  0.00     0.000 A 
HETATM   26  C8  UNL     1      24.568   0.214  53.071  1.00  0.00     0.008 A 
ENDBRANCH  20  21
ENDBRANCH   4  20
TORSDOF 2
ENDMDL
MODEL 9
REMARK VINA RESULT:      -7.3     10.033     11.822
REMARK  2 active torsions:
REMARK  status: ('A' for Active; 'I' for Inactive)
REMARK    1  A    between atoms: N1_4  and  C3_5 
REMARK    2  A    between atoms: C3_5  and  C4_6 
ROOT
HETATM    1 BR1  UNL     1      32.918  10.959  46.363  1.00  0.00    -0.129 Br
HETATM    2  C1  UNL     1      32.922   9.120  45.828  1.00  0.00     0.046 A 
HETATM    3  C2  UNL     1      32.050   9.371  46.789  1.00  0.00     0.215 A 
HETATM    4  N1  UNL     1      31.041   8.670  47.612  1.00  0.00    -0.384 N 
HETATM    5  C9  UNL     1      30.164   7.562  47.148  1.00  0.00     0.130 C 
HETATM    6  C10 UNL     1      31.238   6.949  47.506  1.00  0.00     0.002 C 
HETATM    7  C11 UNL     1      32.504   6.526  47.964  1.00  0.00     0.026 C 
HETATM    8  C12 UNL     1      32.897   5.303  47.942  1.00  0.00     0.042 C 
HETATM    9  C13 UNL     1      32.160   4.080  47.445  1.00  0.00     0.137 C 
HETATM   10  C14 UNL     1      32.973   3.879  46.157  1.00  0.00     0.110 C 
HETATM   11  N2  UNL     1      34.123   3.380  46.469  1.00  0.00    -0.228 NA
HETATM   12  C15 UNL     1      34.778   3.913  47.667  1.00  0.00     0.235 C 
HETATM   13  N3  UNL     1      34.172   4.870  48.370  1.00  0.00    -0.246 NA
HETATM   14  N4  UNL     1      32.771   4.143  44.749  1.00  0.00    -0.354 N 
HETATM   15  C16 UNL     1      33.694   4.896  43.980  1.00  0.00     0.089 C 
HETATM   16  C17 UNL     1      34.050   6.130  43.919  1.00  0.00     0.017 C 
HETATM   17  C18 UNL     1      34.295   7.545  44.016  1.00  0.00    -0.001 C 
HETATM   18  C19 UNL     1      33.669   8.326  44.858  1.00  0.00    -0.008 C 
HETATM   19  H15 UNL     1      31.907   3.606  44.864  1.00  0.00     0.166 HD
ENDROOT
BRANCH   4  20
HETATM   20  C3  UNL     1      31.177   9.392  48.879  1.00  0.00     0.159 C 
BRANCH  20  21
HETATM   21  C4  UNL     1      30.342  10.594  48.965  1.00  0.00    -0.019 A 
HETATM   22  C5  UNL     1      29.023  10.457  48.943  1.00  0.00     0.143 A 
HETATM   23  O1  UNL     1      28.049  11.438  49.010  1.00  0.00    -0.359 OA
HETATM   24  C6  UNL     1      28.395  12.799  49.096  1.00  0.00     0.202 A 
HETATM   25  C7  UNL     1      29.868  12.930  49.114  1.00  0.00     0.000 A 
HETATM   26  C8  UNL     1      30.766  11.974  49.058  1.00  0.00     0.008 A 
ENDBRANCH  20  21
ENDBRANCH   4  20
TORSDOF 2
ENDMDL
