MODEL 1
REMARK VINA RESULT:      -7.9      0.000      0.000
REMARK  4 active torsions:
REMARK  status: ('A' for Active; 'I' for Inactive)
REMARK    1  A    between atoms: C2_2  and  N1_3 
REMARK    2  A    between atoms: C2_2  and  P1_14 
REMARK    3  A    between atoms: N1_3  and  C3_4 
REMARK    4  A    between atoms: P1_14  and  C12_15 
ROOT
HETATM    1  N1  UNL     1      26.465   1.132  51.817  1.00  0.00    -0.392 N 
HETATM    2  H5  UNL     1      26.223   0.335  51.228  1.00  0.00     0.156 HD
ENDROOT
BRANCH   1   3
HETATM    3  C2  UNL     1      25.597   2.249  51.822  1.00  0.00     0.105 C 
HETATM    4  C1  UNL     1      25.981   3.311  50.844  1.00  0.00     0.037 C 
BRANCH   3   5
HETATM    5  P1  UNL     1      23.892   1.643  51.396  1.00  0.00    -0.072 P 
HETATM    6  H16 UNL     1      23.859   0.849  50.193  1.00  0.00     0.064 HD
BRANCH   5   7
HETATM    7  C12 UNL     1      23.092   0.727  52.729  1.00  0.00    -0.032 A 
HETATM    8  C13 UNL     1      21.783   1.017  53.121  1.00  0.00     0.012 A 
HETATM    9  C14 UNL     1      21.146   0.334  54.136  1.00  0.00     0.001 A 
HETATM   10  C15 UNL     1      21.824  -0.673  54.791  1.00  0.00     0.000 A 
HETATM   11  C16 UNL     1      23.115  -0.989  54.435  1.00  0.00     0.001 A 
HETATM   12  C17 UNL     1      23.728  -0.289  53.414  1.00  0.00     0.012 A 
ENDBRANCH   5   7
ENDBRANCH   3   5
ENDBRANCH   1   3
BRANCH   1  13
HETATM   13  C3  UNL     1      27.291   0.939  52.920  1.00  0.00     0.082 A 
HETATM   14  C4  UNL     1      26.799   1.129  54.278  1.00  0.00     0.006 A 
HETATM   15  C5  UNL     1      27.936   0.553  54.293  1.00  0.00     0.035 A 
HETATM   16  C6  UNL     1      28.858   1.712  54.443  1.00  0.00     0.107 C 
HETATM   17  C7  UNL     1      28.761  -0.495  53.770  1.00  0.00    -0.002 A 
HETATM   18  C8  UNL     1      27.611  -0.562  53.122  1.00  0.00     0.024 A 
HETATM   19  N2  UNL     1      28.509   1.819  52.888  1.00  0.00    -0.297 NA
HETATM   20  H9  UNL     1      29.243   1.171  52.532  1.00  0.00     0.124 HD
HETATM   21  C11 UNL     1      29.367  -1.656  53.054  1.00  0.00     0.012 C 
HETATM   22  C10 UNL     1      28.297  -2.723  52.998  1.00  0.00     0.002 C 
HETATM   23  C9  UNL     1      27.046  -1.923  52.719  1.00  0.00     0.016 C 
ENDBRANCH   1  13
TORSDOF 4
ENDMDL
MODEL 2
REMARK VINA RESULT:      -7.7      1.677      4.775
REMARK  4 active torsions:
REMARK  status: ('A' for Active; 'I' for Inactive)
REMARK    1  A    between atoms: C2_2  and  N1_3 
REMARK    2  A    between atoms: C2_2  and  P1_14 
REMARK    3  A    between atoms: N1_3  and  C3_4 
REMARK    4  A    between atoms: P1_14  and  C12_15 
ROOT
HETATM    1  N1  UNL     1      25.076   1.257  53.412  1.00  0.00    -0.392 N 
HETATM    2  H5  UNL     1      25.231   1.997  54.096  1.00  0.00     0.156 HD
ENDROOT
BRANCH   1   3
HETATM    3  C2  UNL     1      24.074   1.448  52.432  1.00  0.00     0.105 C 
HETATM    4  C1  UNL     1      22.750   0.868  52.808  1.00  0.00     0.037 C 
BRANCH   3   5
HETATM    5  P1  UNL     1      23.867   3.279  52.185  1.00  0.00    -0.072 P 
HETATM    6  H16 UNL     1      24.028   4.035  53.403  1.00  0.00     0.064 HD
BRANCH   5   7
HETATM    7  C12 UNL     1      24.947   3.969  50.915  1.00  0.00    -0.032 A 
HETATM    8  C13 UNL     1      25.989   3.218  50.367  1.00  0.00     0.012 A 
HETATM    9  C14 UNL     1      26.830   3.718  49.395  1.00  0.00     0.001 A 
HETATM   10  C15 UNL     1      26.639   5.008  48.946  1.00  0.00     0.000 A 
HETATM   11  C16 UNL     1      25.623   5.781  49.461  1.00  0.00     0.001 A 
HETATM   12  C17 UNL     1      24.796   5.254  50.433  1.00  0.00     0.012 A 
ENDBRANCH   5   7
ENDBRANCH   3   5
ENDBRANCH   1   3
BRANCH   1  13
HETATM   13  C3  UNL     1      26.105   0.362  53.131  1.00  0.00     0.082 A 
HETATM   14  C4  UNL     1      26.423  -0.020  51.762  1.00  0.00     0.006 A 
HETATM   15  C5  UNL     1      27.340  -0.410  52.557  1.00  0.00     0.035 A 
HETATM   16  C6  UNL     1      26.901  -1.798  52.865  1.00  0.00     0.107 C 
HETATM   17  C7  UNL     1      28.228  -0.069  53.630  1.00  0.00    -0.002 A 
HETATM   18  C8  UNL     1      27.489   1.002  53.397  1.00  0.00     0.024 A 
HETATM   19  N2  UNL     1      25.912  -0.967  53.805  1.00  0.00    -0.297 NA
HETATM   20  H9  UNL     1      26.537  -0.888  54.635  1.00  0.00     0.124 HD
HETATM   21  C11 UNL     1      29.017   0.568  54.724  1.00  0.00     0.012 C 
HETATM   22  C10 UNL     1      29.371   1.955  54.238  1.00  0.00     0.002 C 
HETATM   23  C9  UNL     1      28.107   2.393  53.537  1.00  0.00     0.016 C 
ENDBRANCH   1  13
TORSDOF 4
ENDMDL
MODEL 3
REMARK VINA RESULT:      -7.6      1.717      5.844
REMARK  4 active torsions:
REMARK  status: ('A' for Active; 'I' for Inactive)
REMARK    1  A    between atoms: C2_2  and  N1_3 
REMARK    2  A    between atoms: C2_2  and  P1_14 
REMARK    3  A    between atoms: N1_3  and  C3_4 
REMARK    4  A    between atoms: P1_14  and  C12_15 
ROOT
HETATM    1  N1  UNL     1      24.085   2.277  52.732  1.00  0.00    -0.392 N 
HETATM    2  H5  UNL     1      24.204   2.708  53.649  1.00  0.00     0.156 HD
ENDROOT
BRANCH   1   3
HETATM    3  C2  UNL     1      25.236   1.806  52.057  1.00  0.00     0.105 C 
HETATM    4  C1  UNL     1      25.748   2.749  51.017  1.00  0.00     0.037 C 
BRANCH   3   5
HETATM    5  P1  UNL     1      26.570   1.547  53.326  1.00  0.00    -0.072 P 
HETATM    6  H16 UNL     1      26.102   1.716  54.680  1.00  0.00     0.064 HD
BRANCH   5   7
HETATM    7  C12 UNL     1      27.407  -0.045  53.185  1.00  0.00    -0.032 A 
HETATM    8  C13 UNL     1      28.745  -0.194  53.558  1.00  0.00     0.012 A 
HETATM    9  C14 UNL     1      29.410  -1.397  53.461  1.00  0.00     0.001 A 
HETATM   10  C15 UNL     1      28.734  -2.498  52.978  1.00  0.00     0.000 A 
HETATM   11  C16 UNL     1      27.415  -2.393  52.599  1.00  0.00     0.001 A 
HETATM   12  C17 UNL     1      26.773  -1.175  52.707  1.00  0.00     0.012 A 
ENDBRANCH   5   7
ENDBRANCH   3   5
ENDBRANCH   1   3
BRANCH   1  13
HETATM   13  C3  UNL     1      22.855   1.718  52.397  1.00  0.00     0.082 A 
HETATM   14  C4  UNL     1      22.651   1.045  51.122  1.00  0.00     0.006 A 
HETATM   15  C5  UNL     1      21.671   0.820  51.906  1.00  0.00     0.035 A 
HETATM   16  C6  UNL     1      20.719   1.894  51.514  1.00  0.00     0.107 C 
HETATM   17  C7  UNL     1      21.244   0.423  53.215  1.00  0.00    -0.002 A 
HETATM   18  C8  UNL     1      22.566   0.455  53.243  1.00  0.00     0.024 A 
HETATM   19  N2  UNL     1      21.741   2.728  52.416  1.00  0.00    -0.297 NA
HETATM   20  H9  UNL     1      21.294   2.549  53.340  1.00  0.00     0.124 HD
HETATM   21  C11 UNL     1      21.108  -0.013  54.636  1.00  0.00     0.012 C 
HETATM   22  C10 UNL     1      22.142  -1.095  54.848  1.00  0.00     0.002 C 
HETATM   23  C9  UNL     1      23.331  -0.572  54.076  1.00  0.00     0.016 C 
ENDBRANCH   1  13
TORSDOF 4
ENDMDL
MODEL 4
REMARK VINA RESULT:      -7.4      2.009      5.564
REMARK  4 active torsions:
REMARK  status: ('A' for Active; 'I' for Inactive)
REMARK    1  A    between atoms: C2_2  and  N1_3 
REMARK    2  A    between atoms: C2_2  and  P1_14 
REMARK    3  A    between atoms: N1_3  and  C3_4 
REMARK    4  A    between atoms: P1_14  and  C12_15 
ROOT
HETATM    1  N1  UNL     1      23.397   2.429  52.642  1.00  0.00    -0.392 N 
HETATM    2  H5  UNL     1      24.095   2.210  53.352  1.00  0.00     0.156 HD
ENDROOT
BRANCH   1   3
HETATM    3  C2  UNL     1      23.768   3.287  51.580  1.00  0.00     0.105 C 
HETATM    4  C1  UNL     1      23.621   4.738  51.902  1.00  0.00     0.037 C 
BRANCH   3   5
HETATM    5  P1  UNL     1      25.552   2.951  51.179  1.00  0.00    -0.072 P 
HETATM    6  H16 UNL     1      26.376   4.132  51.237  1.00  0.00     0.064 HD
BRANCH   5   7
HETATM    7  C12 UNL     1      26.296   1.662  52.199  1.00  0.00    -0.032 A 
HETATM    8  C13 UNL     1      26.416   0.350  51.734  1.00  0.00     0.012 A 
HETATM    9  C14 UNL     1      26.980  -0.655  52.491  1.00  0.00     0.001 A 
HETATM   10  C15 UNL     1      27.444  -0.359  53.756  1.00  0.00     0.000 A 
HETATM   11  C16 UNL     1      27.344   0.921  54.251  1.00  0.00     0.001 A 
HETATM   12  C17 UNL     1      26.775   1.909  53.471  1.00  0.00     0.012 A 
ENDBRANCH   5   7
ENDBRANCH   3   5
ENDBRANCH   1   3
BRANCH   1  13
HETATM   13  C3  UNL     1      22.335   1.554  52.436  1.00  0.00     0.082 A 
HETATM   14  C4  UNL     1      22.179   0.834  51.180  1.00  0.00     0.006 A 
HETATM   15  C5  UNL     1      21.392   0.361  52.065  1.00  0.00     0.035 A 
HETATM   16  C6  UNL     1      20.147   1.131  51.802  1.00  0.00     0.107 C 
HETATM   17  C7  UNL     1      21.239  -0.119  53.407  1.00  0.00    -0.002 A 
HETATM   18  C8  UNL     1      22.497   0.271  53.287  1.00  0.00     0.024 A 
HETATM   19  N2  UNL     1      20.999   2.223  52.598  1.00  0.00    -0.297 NA
HETATM   20  H9  UNL     1      20.724   1.942  53.563  1.00  0.00     0.124 HD
HETATM   21  C11 UNL     1      21.387  -0.557  54.825  1.00  0.00     0.012 C 
HETATM   22  C10 UNL     1      22.693  -1.315  54.902  1.00  0.00     0.002 C 
HETATM   23  C9  UNL     1      23.601  -0.499  54.010  1.00  0.00     0.016 C 
ENDBRANCH   1  13
TORSDOF 4
ENDMDL
MODEL 5
REMARK VINA RESULT:      -6.8      3.936      6.855
REMARK  4 active torsions:
REMARK  status: ('A' for Active; 'I' for Inactive)
REMARK    1  A    between atoms: C2_2  and  N1_3 
REMARK    2  A    between atoms: C2_2  and  P1_14 
REMARK    3  A    between atoms: N1_3  and  C3_4 
REMARK    4  A    between atoms: P1_14  and  C12_15 
ROOT
HETATM    1  N1  UNL     1      22.580   2.311  51.312  1.00  0.00    -0.392 N 
HETATM    2  H5  UNL     1      22.989   2.215  50.384  1.00  0.00     0.156 HD
ENDROOT
BRANCH   1   3
HETATM    3  C2  UNL     1      22.799   3.515  52.021  1.00  0.00     0.105 C 
HETATM    4  C1  UNL     1      23.959   3.454  52.961  1.00  0.00     0.037 C 
BRANCH   3   5
HETATM    5  P1  UNL     1      23.120   4.855  50.774  1.00  0.00    -0.072 P 
HETATM    6  H16 UNL     1      22.917   6.181  51.304  1.00  0.00     0.064 HD
BRANCH   5   7
HETATM    7  C12 UNL     1      24.756   4.767  50.017  1.00  0.00    -0.032 A 
HETATM    8  C13 UNL     1      25.334   5.884  49.410  1.00  0.00     0.012 A 
HETATM    9  C14 UNL     1      26.581   5.846  48.824  1.00  0.00     0.001 A 
HETATM   10  C15 UNL     1      27.288   4.662  48.834  1.00  0.00     0.000 A 
HETATM   11  C16 UNL     1      26.754   3.538  49.421  1.00  0.00     0.001 A 
HETATM   12  C17 UNL     1      25.502   3.605  50.002  1.00  0.00     0.012 A 
ENDBRANCH   5   7
ENDBRANCH   3   5
ENDBRANCH   1   3
BRANCH   1  13
HETATM   13  C3  UNL     1      21.465   1.547  51.648  1.00  0.00     0.082 A 
HETATM   14  C4  UNL     1      20.862   0.627  50.692  1.00  0.00     0.006 A 
HETATM   15  C5  UNL     1      20.391   0.428  51.861  1.00  0.00     0.035 A 
HETATM   16  C6  UNL     1      19.172   1.279  51.842  1.00  0.00     0.107 C 
HETATM   17  C7  UNL     1      20.670   0.231  53.253  1.00  0.00    -0.002 A 
HETATM   18  C8  UNL     1      21.834   0.437  52.661  1.00  0.00     0.024 A 
HETATM   19  N2  UNL     1      20.296   2.391  52.072  1.00  0.00    -0.297 NA
HETATM   20  H9  UNL     1      20.344   2.332  53.111  1.00  0.00     0.124 HD
HETATM   21  C11 UNL     1      21.258   0.054  54.612  1.00  0.00     0.012 C 
HETATM   22  C10 UNL     1      22.474  -0.828  54.436  1.00  0.00     0.002 C 
HETATM   23  C9  UNL     1      23.074  -0.310  53.149  1.00  0.00     0.016 C 
ENDBRANCH   1  13
TORSDOF 4
ENDMDL
MODEL 6
REMARK VINA RESULT:      -6.7      7.279      9.265
REMARK  4 active torsions:
REMARK  status: ('A' for Active; 'I' for Inactive)
REMARK    1  A    between atoms: C2_2  and  N1_3 
REMARK    2  A    between atoms: C2_2  and  P1_14 
REMARK    3  A    between atoms: N1_3  and  C3_4 
REMARK    4  A    between atoms: P1_14  and  C12_15 
ROOT
HETATM    1  N1  UNL     1      31.738   5.904  47.191  1.00  0.00    -0.392 N 
HETATM    2  H5  UNL     1      31.377   6.135  46.266  1.00  0.00     0.156 HD
ENDROOT
BRANCH   1   3
HETATM    3  C2  UNL     1      30.898   6.110  48.310  1.00  0.00     0.105 C 
HETATM    4  C1  UNL     1      31.473   7.040  49.329  1.00  0.00     0.037 C 
BRANCH   3   5
HETATM    5  P1  UNL     1      29.299   6.830  47.692  1.00  0.00    -0.072 P 
HETATM    6  H16 UNL     1      29.195   6.822  46.254  1.00  0.00     0.064 HD
BRANCH   5   7
HETATM    7  C12 UNL     1      27.832   6.049  48.394  1.00  0.00    -0.032 A 
HETATM    8  C13 UNL     1      26.688   6.793  48.692  1.00  0.00     0.012 A 
HETATM    9  C14 UNL     1      25.553   6.224  49.228  1.00  0.00     0.001 A 
HETATM   10  C15 UNL     1      25.542   4.869  49.484  1.00  0.00     0.000 A 
HETATM   11  C16 UNL     1      26.649   4.100  49.205  1.00  0.00     0.001 A 
HETATM   12  C17 UNL     1      27.772   4.696  48.667  1.00  0.00     0.012 A 
ENDBRANCH   5   7
ENDBRANCH   3   5
ENDBRANCH   1   3
BRANCH   1  13
HETATM   13  C3  UNL     1      32.769   4.976  47.308  1.00  0.00     0.082 A 
HETATM   14  C4  UNL     1      33.308   4.293  46.140  1.00  0.00     0.006 A 
HETATM   15  C5  UNL     1      34.058   4.100  47.154  1.00  0.00     0.035 A 
HETATM   16  C6  UNL     1      33.523   2.817  47.684  1.00  0.00     0.107 C 
HETATM   17  C7  UNL     1      34.755   4.683  48.262  1.00  0.00    -0.002 A 
HETATM   18  C8  UNL     1      34.106   5.668  47.666  1.00  0.00     0.024 A 
HETATM   19  N2  UNL     1      32.415   3.835  48.220  1.00  0.00    -0.297 NA
HETATM   20  H9  UNL     1      32.887   4.105  49.108  1.00  0.00     0.124 HD
HETATM   21  C11 UNL     1      35.362   5.558  49.307  1.00  0.00     0.012 C 
HETATM   22  C10 UNL     1      35.844   6.800  48.592  1.00  0.00     0.002 C 
HETATM   23  C9  UNL     1      34.737   7.058  47.595  1.00  0.00     0.016 C 
ENDBRANCH   1  13
TORSDOF 4
ENDMDL
MODEL 7
REMARK VINA RESULT:      -6.7      7.412     10.985
REMARK  4 active torsions:
REMARK  status: ('A' for Active; 'I' for Inactive)
REMARK    1  A    between atoms: C2_2  and  N1_3 
REMARK    2  A    between atoms: C2_2  and  P1_14 
REMARK    3  A    between atoms: N1_3  and  C3_4 
REMARK    4  A    between atoms: P1_14  and  C12_15 
ROOT
HETATM    1  N1  UNL     1      30.230   7.151  48.888  1.00  0.00    -0.392 N 
HETATM    2  H5  UNL     1      30.203   6.669  49.786  1.00  0.00     0.156 HD
ENDROOT
BRANCH   1   3
HETATM    3  C2  UNL     1      31.384   7.008  48.083  1.00  0.00     0.105 C 
HETATM    4  C1  UNL     1      32.387   8.099  48.274  1.00  0.00     0.037 C 
BRANCH   3   5
HETATM    5  P1  UNL     1      32.183   5.388  48.523  1.00  0.00    -0.072 P 
HETATM    6  H16 UNL     1      31.229   4.356  48.843  1.00  0.00     0.064 HD
BRANCH   5   7
HETATM    7  C12 UNL     1      33.318   4.772  47.263  1.00  0.00    -0.032 A 
HETATM    8  C13 UNL     1      33.326   5.306  45.973  1.00  0.00     0.012 A 
HETATM    9  C14 UNL     1      34.182   4.855  44.991  1.00  0.00     0.001 A 
HETATM   10  C15 UNL     1      35.065   3.838  45.288  1.00  0.00     0.000 A 
HETATM   11  C16 UNL     1      35.089   3.285  46.548  1.00  0.00     0.001 A 
HETATM   12  C17 UNL     1      34.220   3.756  47.513  1.00  0.00     0.012 A 
ENDBRANCH   5   7
ENDBRANCH   3   5
ENDBRANCH   1   3
BRANCH   1  13
HETATM   13  C3  UNL     1      29.034   7.495  48.264  1.00  0.00     0.082 A 
HETATM   14  C4  UNL     1      28.940   7.602  46.814  1.00  0.00     0.006 A 
HETATM   15  C5  UNL     1      27.777   7.618  47.338  1.00  0.00     0.035 A 
HETATM   16  C6  UNL     1      27.533   9.078  47.484  1.00  0.00     0.107 C 
HETATM   17  C7  UNL     1      26.865   7.009  48.260  1.00  0.00    -0.002 A 
HETATM   18  C8  UNL     1      28.003   6.344  48.362  1.00  0.00     0.024 A 
HETATM   19  N2  UNL     1      28.504   8.823  48.726  1.00  0.00    -0.297 NA
HETATM   20  H9  UNL     1      27.779   8.545  49.419  1.00  0.00     0.124 HD
HETATM   21  C11 UNL     1      26.152   6.176  49.272  1.00  0.00     0.012 C 
HETATM   22  C10 UNL     1      26.516   4.739  48.971  1.00  0.00     0.002 C 
HETATM   23  C9  UNL     1      27.981   4.837  48.614  1.00  0.00     0.016 C 
ENDBRANCH   1  13
TORSDOF 4
ENDMDL
MODEL 8
REMARK VINA RESULT:      -6.7      7.788      9.905
REMARK  4 active torsions:
REMARK  status: ('A' for Active; 'I' for Inactive)
REMARK    1  A    between atoms: C2_2  and  N1_3 
REMARK    2  A    between atoms: C2_2  and  P1_14 
REMARK    3  A    between atoms: N1_3  and  C3_4 
REMARK    4  A    between atoms: P1_14  and  C12_15 
ROOT
HETATM    1  N1  UNL     1      32.934   6.323  47.637  1.00  0.00    -0.392 N 
HETATM    2  H5  UNL     1      33.165   7.072  46.985  1.00  0.00     0.156 HD
ENDROOT
BRANCH   1   3
HETATM    3  C2  UNL     1      31.781   6.467  48.443  1.00  0.00     0.105 C 
HETATM    4  C1  UNL     1      31.929   7.488  49.524  1.00  0.00     0.037 C 
BRANCH   3   5
HETATM    5  P1  UNL     1      30.377   6.978  47.338  1.00  0.00    -0.072 P 
HETATM    6  H16 UNL     1      30.553   6.556  45.970  1.00  0.00     0.064 HD
BRANCH   5   7
HETATM    7  C12 UNL     1      28.758   6.432  47.919  1.00  0.00    -0.032 A 
HETATM    8  C13 UNL     1      28.559   5.131  48.387  1.00  0.00     0.012 A 
HETATM    9  C14 UNL     1      27.334   4.686  48.838  1.00  0.00     0.001 A 
HETATM   10  C15 UNL     1      26.262   5.555  48.827  1.00  0.00     0.000 A 
HETATM   11  C16 UNL     1      26.418   6.845  48.373  1.00  0.00     0.001 A 
HETATM   12  C17 UNL     1      27.656   7.264  47.928  1.00  0.00     0.012 A 
ENDBRANCH   5   7
ENDBRANCH   3   5
ENDBRANCH   1   3
BRANCH   1  13
HETATM   13  C3  UNL     1      33.404   5.036  47.389  1.00  0.00     0.082 A 
HETATM   14  C4  UNL     1      32.595   3.863  47.693  1.00  0.00     0.006 A 
HETATM   15  C5  UNL     1      33.604   3.537  46.984  1.00  0.00     0.035 A 
HETATM   16  C6  UNL     1      34.592   3.152  48.027  1.00  0.00     0.107 C 
HETATM   17  C7  UNL     1      34.398   3.812  45.823  1.00  0.00    -0.002 A 
HETATM   18  C8  UNL     1      33.464   4.746  45.870  1.00  0.00     0.024 A 
HETATM   19  N2  UNL     1      34.689   4.744  48.113  1.00  0.00    -0.297 NA
HETATM   20  H9  UNL     1      35.402   4.884  47.366  1.00  0.00     0.124 HD
HETATM   21  C11 UNL     1      35.019   4.330  44.569  1.00  0.00     0.012 C 
HETATM   22  C10 UNL     1      33.876   4.667  43.638  1.00  0.00     0.002 C 
HETATM   23  C9  UNL     1      32.857   5.278  44.572  1.00  0.00     0.016 C 
ENDBRANCH   1  13
TORSDOF 4
ENDMDL
MODEL 9
REMARK VINA RESULT:      -6.7      2.750      6.368
REMARK  4 active torsions:
REMARK  status: ('A' for Active; 'I' for Inactive)
REMARK    1  A    between atoms: C2_2  and  N1_3 
REMARK    2  A    between atoms: C2_2  and  P1_14 
REMARK    3  A    between atoms: N1_3  and  C3_4 
REMARK    4  A    between atoms: P1_14  and  C12_15 
ROOT
HETATM    1  N1  UNL     1      24.342   1.153  52.228  1.00  0.00    -0.392 N 
HETATM    2  H5  UNL     1      24.770   0.363  51.745  1.00  0.00     0.156 HD
ENDROOT
BRANCH   1   3
HETATM    3  C2  UNL     1      25.145   2.282  52.510  1.00  0.00     0.105 C 
HETATM    4  C1  UNL     1      26.093   2.076  53.646  1.00  0.00     0.037 C 
BRANCH   3   5
HETATM    5  P1  UNL     1      26.131   2.671  50.982  1.00  0.00    -0.072 P 
HETATM    6  H16 UNL     1      26.417   1.505  50.183  1.00  0.00     0.064 HD
BRANCH   5   7
HETATM    7  C12 UNL     1      25.382   3.935  49.936  1.00  0.00    -0.032 A 
HETATM    8  C13 UNL     1      26.084   5.087  49.577  1.00  0.00     0.012 A 
HETATM    9  C14 UNL     1      25.538   6.070  48.779  1.00  0.00     0.001 A 
HETATM   10  C15 UNL     1      24.248   5.913  48.316  1.00  0.00     0.000 A 
HETATM   11  C16 UNL     1      23.522   4.792  48.646  1.00  0.00     0.001 A 
HETATM   12  C17 UNL     1      24.094   3.824  49.447  1.00  0.00     0.012 A 
ENDBRANCH   5   7
ENDBRANCH   3   5
ENDBRANCH   1   3
BRANCH   1  13
HETATM   13  C3  UNL     1      22.963   1.330  52.153  1.00  0.00     0.082 A 
HETATM   14  C4  UNL     1      22.236   1.094  50.914  1.00  0.00     0.006 A 
HETATM   15  C5  UNL     1      21.424   1.223  51.888  1.00  0.00     0.035 A 
HETATM   16  C6  UNL     1      21.105   2.675  51.823  1.00  0.00     0.107 C 
HETATM   17  C7  UNL     1      21.079   0.841  53.226  1.00  0.00    -0.002 A 
HETATM   18  C8  UNL     1      22.215   0.227  52.940  1.00  0.00     0.024 A 
HETATM   19  N2  UNL     1      22.543   2.726  52.518  1.00  0.00    -0.297 NA
HETATM   20  H9  UNL     1      22.228   2.613  53.504  1.00  0.00     0.124 HD
HETATM   21  C11 UNL     1      20.978   0.265  54.598  1.00  0.00     0.012 C 
HETATM   22  C10 UNL     1      21.333  -1.200  54.471  1.00  0.00     0.002 C 
HETATM   23  C9  UNL     1      22.474  -1.178  53.481  1.00  0.00     0.016 C 
ENDBRANCH   1  13
TORSDOF 4
ENDMDL
