MODEL 1
REMARK VINA RESULT:     -10.0      0.000      0.000
REMARK  5 active torsions:
REMARK  status: ('A' for Active; 'I' for Inactive)
REMARK    1  A    between atoms: C7_7  and  N1_8 
REMARK    2  A    between atoms: N1_8  and  C8_9 
REMARK    3  A    between atoms: N4_19  and  C16_20 
REMARK    4  A    between atoms: C16_20  and  C17_21 
REMARK    5  A    between atoms: C17_21  and  C18_22 
ROOT
HETATM    1  C1  UNL     1      25.631   9.044  48.078  1.00  0.00     0.018 C 
HETATM    2  C2  UNL     1      25.895   7.923  48.431  1.00  0.00    -0.078 C 
HETATM    3  C3  UNL     1      26.208   6.571  48.861  1.00  0.00     0.019 A 
HETATM    4  C4  UNL     1      27.285   5.862  48.367  1.00  0.00     0.021 A 
HETATM    5  C5  UNL     1      27.519   4.594  48.813  1.00  0.00     0.004 A 
HETATM    6  C6  UNL     1      26.682   4.033  49.755  1.00  0.00     0.029 A 
HETATM    7  C7  UNL     1      25.588   4.666  50.303  1.00  0.00     0.035 A 
HETATM    8  C25 UNL     1      25.430   5.935  49.792  1.00  0.00     0.050 A 
ENDROOT
BRANCH   7   9
HETATM    9  N1  UNL     1      24.731   4.109  51.277  1.00  0.00    -0.340 N 
HETATM   10  H5  UNL     1      25.272   3.597  51.975  1.00  0.00     0.167 HD
BRANCH   9  11
HETATM   11  C8  UNL     1      23.330   4.190  51.378  1.00  0.00     0.142 A 
HETATM   12  N2  UNL     1      22.643   5.223  50.864  1.00  0.00    -0.224 NA
HETATM   13  C9  UNL     1      21.310   5.302  50.927  1.00  0.00     0.236 A 
HETATM   14  N3  UNL     1      20.615   4.322  51.521  1.00  0.00    -0.241 NA
HETATM   15  C10 UNL     1      21.237   3.243  52.066  1.00  0.00     0.075 A 
HETATM   16  C11 UNL     1      20.463   2.276  52.652  1.00  0.00     0.071 A 
HETATM   17  C15 UNL     1      22.624   3.182  51.991  1.00  0.00     0.041 A 
HETATM   18  C12 UNL     1      21.142   1.209  53.178  1.00  0.00     0.097 A 
HETATM   19  C13 UNL     1      22.534   1.014  53.176  1.00  0.00     0.065 A 
HETATM   20  O1  UNL     1      20.347   0.222  53.772  1.00  0.00    -0.347 OA
HETATM   21  C14 UNL     1      23.179   2.062  52.556  1.00  0.00     0.050 A 
HETATM   22  N4  UNL     1      23.134  -0.169  53.757  1.00  0.00    -0.377 N 
HETATM   23  C23 UNL     1      22.248  -0.830  54.685  1.00  0.00     0.149 C 
HETATM   24  C24 UNL     1      20.914  -1.072  54.002  1.00  0.00     0.195 C 
BRANCH  22  25
HETATM   25  C16 UNL     1      24.451  -0.455  53.275  1.00  0.00     0.125 C 
BRANCH  25  26
HETATM   26  C17 UNL     1      25.458  -0.524  54.362  1.00  0.00     0.055 C 
BRANCH  26  27
HETATM   27  C18 UNL     1      26.482   0.571  54.440  1.00  0.00     0.222 C 
HETATM   28  C19 UNL     1      26.597   1.183  53.080  1.00  0.00     0.036 C 
HETATM   29  C20 UNL     1      27.829   2.028  52.871  1.00  0.00     0.004 C 
HETATM   30  C21 UNL     1      28.796   1.945  54.016  1.00  0.00     0.030 C 
HETATM   31  C22 UNL     1      28.914   0.509  54.419  1.00  0.00     0.270 C 
HETATM   32  N5  UNL     1      27.713  -0.089  54.859  1.00  0.00     0.088 N 
HETATM   33  H22 UNL     1      27.690  -0.158  55.907  1.00  0.00     0.316 HD
ENDBRANCH  26  27
ENDBRANCH  25  26
ENDBRANCH  22  25
ENDBRANCH   9  11
ENDBRANCH   7   9
TORSDOF 5
ENDMDL
MODEL 2
REMARK VINA RESULT:     -10.0      1.550      4.848
REMARK  5 active torsions:
REMARK  status: ('A' for Active; 'I' for Inactive)
REMARK    1  A    between atoms: C7_7  and  N1_8 
REMARK    2  A    between atoms: N1_8  and  C8_9 
REMARK    3  A    between atoms: N4_19  and  C16_20 
REMARK    4  A    between atoms: C16_20  and  C17_21 
REMARK    5  A    between atoms: C17_21  and  C18_22 
ROOT
HETATM    1  C1  UNL     1      23.618   7.893  50.261  1.00  0.00     0.018 C 
HETATM    2  C2  UNL     1      24.449   7.066  49.988  1.00  0.00    -0.078 C 
HETATM    3  C3  UNL     1      25.449   6.063  49.661  1.00  0.00     0.019 A 
HETATM    4  C4  UNL     1      26.491   6.305  48.789  1.00  0.00     0.021 A 
HETATM    5  C5  UNL     1      27.393   5.317  48.526  1.00  0.00     0.004 A 
HETATM    6  C6  UNL     1      27.259   4.086  49.134  1.00  0.00     0.029 A 
HETATM    7  C7  UNL     1      26.253   3.756  50.016  1.00  0.00     0.035 A 
HETATM    8  C25 UNL     1      25.392   4.812  50.218  1.00  0.00     0.050 A 
ENDROOT
BRANCH   7   9
HETATM    9  N1  UNL     1      26.111   2.505  50.656  1.00  0.00    -0.340 N 
HETATM   10  H5  UNL     1      25.518   1.888  50.101  1.00  0.00     0.167 HD
BRANCH   9  11
HETATM   11  C8  UNL     1      26.665   2.062  51.870  1.00  0.00     0.142 A 
HETATM   12  N2  UNL     1      27.887   2.446  52.272  1.00  0.00    -0.224 NA
HETATM   13  C9  UNL     1      28.416   2.057  53.436  1.00  0.00     0.236 A 
HETATM   14  N3  UNL     1      27.716   1.252  54.247  1.00  0.00    -0.241 NA
HETATM   15  C10 UNL     1      26.472   0.819  53.912  1.00  0.00     0.075 A 
HETATM   16  C11 UNL     1      25.810   0.003  54.793  1.00  0.00     0.071 A 
HETATM   17  C15 UNL     1      25.940   1.235  52.696  1.00  0.00     0.041 A 
HETATM   18  C12 UNL     1      24.558  -0.396  54.407  1.00  0.00     0.097 A 
HETATM   19  C13 UNL     1      23.897  -0.057  53.213  1.00  0.00     0.065 A 
HETATM   20  O1  UNL     1      23.885  -1.226  55.310  1.00  0.00    -0.347 OA
HETATM   21  C14 UNL     1      24.681   0.763  52.431  1.00  0.00     0.050 A 
HETATM   22  N4  UNL     1      22.561  -0.537  52.924  1.00  0.00    -0.377 N 
HETATM   23  C23 UNL     1      22.215  -1.694  53.715  1.00  0.00     0.149 C 
HETATM   24  C24 UNL     1      22.469  -1.381  55.179  1.00  0.00     0.195 C 
BRANCH  22  25
HETATM   25  C16 UNL     1      21.857   0.241  51.952  1.00  0.00     0.125 C 
BRANCH  25  26
HETATM   26  C17 UNL     1      21.299   1.495  52.515  1.00  0.00     0.055 C 
BRANCH  26  27
HETATM   27  C18 UNL     1      21.007   2.621  51.567  1.00  0.00     0.222 C 
HETATM   28  C19 UNL     1      21.930   2.482  50.398  1.00  0.00     0.036 C 
HETATM   29  C20 UNL     1      22.048   3.716  49.538  1.00  0.00     0.004 C 
HETATM   30  C21 UNL     1      21.349   4.907  50.126  1.00  0.00     0.030 C 
HETATM   31  C22 UNL     1      21.673   4.961  51.585  1.00  0.00     0.270 C 
HETATM   32  N5  UNL     1      21.255   3.837  52.332  1.00  0.00     0.088 N 
HETATM   33  H22 UNL     1      20.381   4.050  52.873  1.00  0.00     0.316 HD
ENDBRANCH  26  27
ENDBRANCH  25  26
ENDBRANCH  22  25
ENDBRANCH   9  11
ENDBRANCH   7   9
TORSDOF 5
ENDMDL
MODEL 3
REMARK VINA RESULT:      -9.9      1.612      2.141
REMARK  5 active torsions:
REMARK  status: ('A' for Active; 'I' for Inactive)
REMARK    1  A    between atoms: C7_7  and  N1_8 
REMARK    2  A    between atoms: N1_8  and  C8_9 
REMARK    3  A    between atoms: N4_19  and  C16_20 
REMARK    4  A    between atoms: C16_20  and  C17_21 
REMARK    5  A    between atoms: C17_21  and  C18_22 
ROOT
HETATM    1  C1  UNL     1      28.388   6.045  48.145  1.00  0.00     0.018 C 
HETATM    2  C2  UNL     1      27.332   5.856  48.692  1.00  0.00    -0.078 C 
HETATM    3  C3  UNL     1      26.058   5.621  49.351  1.00  0.00     0.019 A 
HETATM    4  C4  UNL     1      25.415   6.587  50.098  1.00  0.00     0.021 A 
HETATM    5  C5  UNL     1      24.222   6.298  50.691  1.00  0.00     0.004 A 
HETATM    6  C6  UNL     1      23.666   5.045  50.538  1.00  0.00     0.029 A 
HETATM    7  C7  UNL     1      24.235   4.021  49.812  1.00  0.00     0.035 A 
HETATM    8  C25 UNL     1      25.434   4.405  49.253  1.00  0.00     0.050 A 
ENDROOT
BRANCH   7   9
HETATM    9  N1  UNL     1      23.670   2.739  49.635  1.00  0.00    -0.340 N 
HETATM   10  H5  UNL     1      24.400   2.055  49.432  1.00  0.00     0.167 HD
BRANCH   9  11
HETATM   11  C8  UNL     1      22.322   2.345  49.712  1.00  0.00     0.142 A 
HETATM   12  N2  UNL     1      21.415   2.748  48.809  1.00  0.00    -0.224 NA
HETATM   13  C9  UNL     1      20.136   2.359  48.852  1.00  0.00     0.236 A 
HETATM   14  N3  UNL     1      19.726   1.537  49.827  1.00  0.00    -0.241 NA
HETATM   15  C10 UNL     1      20.583   1.085  50.780  1.00  0.00     0.075 A 
HETATM   16  C11 UNL     1      20.097   0.240  51.743  1.00  0.00     0.071 A 
HETATM   17  C15 UNL     1      21.908   1.502  50.717  1.00  0.00     0.041 A 
HETATM   18  C12 UNL     1      21.006  -0.190  52.673  1.00  0.00     0.097 A 
HETATM   19  C13 UNL     1      22.370   0.148  52.734  1.00  0.00     0.065 A 
HETATM   20  O1  UNL     1      20.506  -1.054  53.652  1.00  0.00    -0.347 OA
HETATM   21  C14 UNL     1      22.714   1.000  51.706  1.00  0.00     0.050 A 
HETATM   22  N4  UNL     1      23.237  -0.383  53.765  1.00  0.00    -0.377 N 
HETATM   23  C23 UNL     1      22.494  -0.871  54.903  1.00  0.00     0.149 C 
HETATM   24  C24 UNL     1      21.428  -1.836  54.417  1.00  0.00     0.195 C 
BRANCH  22  25
HETATM   25  C16 UNL     1      24.629  -0.348  53.436  1.00  0.00     0.125 C 
BRANCH  25  26
HETATM   26  C17 UNL     1      25.503  -0.534  54.619  1.00  0.00     0.055 C 
BRANCH  26  27
HETATM   27  C18 UNL     1      26.724   0.332  54.732  1.00  0.00     0.222 C 
HETATM   28  C19 UNL     1      26.603   1.424  53.717  1.00  0.00     0.036 C 
HETATM   29  C20 UNL     1      27.888   2.156  53.422  1.00  0.00     0.004 C 
HETATM   30  C21 UNL     1      29.083   1.527  54.078  1.00  0.00     0.030 C 
HETATM   31  C22 UNL     1      28.989   0.046  53.890  1.00  0.00     0.270 C 
HETATM   32  N5  UNL     1      27.847  -0.558  54.463  1.00  0.00     0.088 N 
HETATM   33  H22 UNL     1      28.090  -1.038  55.365  1.00  0.00     0.316 HD
ENDBRANCH  26  27
ENDBRANCH  25  26
ENDBRANCH  22  25
ENDBRANCH   9  11
ENDBRANCH   7   9
TORSDOF 5
ENDMDL
MODEL 4
REMARK VINA RESULT:      -9.8      2.152      5.295
REMARK  5 active torsions:
REMARK  status: ('A' for Active; 'I' for Inactive)
REMARK    1  A    between atoms: C7_7  and  N1_8 
REMARK    2  A    between atoms: N1_8  and  C8_9 
REMARK    3  A    between atoms: N4_19  and  C16_20 
REMARK    4  A    between atoms: C16_20  and  C17_21 
REMARK    5  A    between atoms: C17_21  and  C18_22 
ROOT
HETATM    1  C1  UNL     1      27.990   6.994  47.650  1.00  0.00     0.018 C 
HETATM    2  C2  UNL     1      27.276   6.383  48.402  1.00  0.00    -0.078 C 
HETATM    3  C3  UNL     1      26.417   5.641  49.310  1.00  0.00     0.019 A 
HETATM    4  C4  UNL     1      25.310   6.202  49.916  1.00  0.00     0.021 A 
HETATM    5  C5  UNL     1      24.550   5.446  50.760  1.00  0.00     0.004 A 
HETATM    6  C6  UNL     1      24.889   4.131  50.998  1.00  0.00     0.029 A 
HETATM    7  C7  UNL     1      25.973   3.491  50.438  1.00  0.00     0.035 A 
HETATM    8  C25 UNL     1      26.680   4.329  49.605  1.00  0.00     0.050 A 
ENDROOT
BRANCH   7   9
HETATM    9  N1  UNL     1      26.324   2.141  50.662  1.00  0.00    -0.340 N 
HETATM   10  H5  UNL     1      26.281   1.614  49.790  1.00  0.00     0.167 HD
BRANCH   9  11
HETATM   11  C8  UNL     1      26.704   1.511  51.861  1.00  0.00     0.142 A 
HETATM   12  N2  UNL     1      27.969   1.548  52.309  1.00  0.00    -0.224 NA
HETATM   13  C9  UNL     1      28.340   0.977  53.460  1.00  0.00     0.236 A 
HETATM   14  N3  UNL     1      27.429   0.340  54.208  1.00  0.00    -0.241 NA
HETATM   15  C10 UNL     1      26.129   0.257  53.823  1.00  0.00     0.075 A 
HETATM   16  C11 UNL     1      25.250  -0.405  54.641  1.00  0.00     0.071 A 
HETATM   17  C15 UNL     1      25.764   0.856  52.622  1.00  0.00     0.041 A 
HETATM   18  C12 UNL     1      23.952  -0.450  54.206  1.00  0.00     0.097 A 
HETATM   19  C13 UNL     1      23.442   0.106  53.021  1.00  0.00     0.065 A 
HETATM   20  O1  UNL     1      23.059  -1.124  55.046  1.00  0.00    -0.347 OA
HETATM   21  C14 UNL     1      24.436   0.737  52.304  1.00  0.00     0.050 A 
HETATM   22  N4  UNL     1      22.039   0.000  52.676  1.00  0.00    -0.377 N 
HETATM   23  C23 UNL     1      21.382  -1.067  53.392  1.00  0.00     0.149 C 
HETATM   24  C24 UNL     1      21.655  -0.904  54.875  1.00  0.00     0.195 C 
BRANCH  22  25
HETATM   25  C16 UNL     1      21.591   0.981  51.736  1.00  0.00     0.125 C 
BRANCH  25  26
HETATM   26  C17 UNL     1      21.057   0.380  50.489  1.00  0.00     0.055 C 
BRANCH  26  27
HETATM   27  C18 UNL     1      21.463   0.998  49.183  1.00  0.00     0.222 C 
HETATM   28  C19 UNL     1      22.538   1.999  49.467  1.00  0.00     0.036 C 
HETATM   29  C20 UNL     1      22.799   2.979  48.351  1.00  0.00     0.004 C 
HETATM   30  C21 UNL     1      21.802   2.870  47.233  1.00  0.00     0.030 C 
HETATM   31  C22 UNL     1      20.439   2.747  47.837  1.00  0.00     0.270 C 
HETATM   32  N5  UNL     1      20.250   1.615  48.660  1.00  0.00     0.088 N 
HETATM   33  H22 UNL     1      19.712   0.869  48.154  1.00  0.00     0.316 HD
ENDBRANCH  26  27
ENDBRANCH  25  26
ENDBRANCH  22  25
ENDBRANCH   9  11
ENDBRANCH   7   9
TORSDOF 5
ENDMDL
MODEL 5
REMARK VINA RESULT:      -9.8      2.286      5.807
REMARK  5 active torsions:
REMARK  status: ('A' for Active; 'I' for Inactive)
REMARK    1  A    between atoms: C7_7  and  N1_8 
REMARK    2  A    between atoms: N1_8  and  C8_9 
REMARK    3  A    between atoms: N4_19  and  C16_20 
REMARK    4  A    between atoms: C16_20  and  C17_21 
REMARK    5  A    between atoms: C17_21  and  C18_22 
ROOT
HETATM    1  C1  UNL     1      22.774   5.740  48.494  1.00  0.00     0.018 C 
HETATM    2  C2  UNL     1      22.423   4.622  48.770  1.00  0.00    -0.078 C 
HETATM    3  C3  UNL     1      21.997   3.275  49.110  1.00  0.00     0.019 A 
HETATM    4  C4  UNL     1      21.881   2.270  48.170  1.00  0.00     0.021 A 
HETATM    5  C5  UNL     1      21.474   1.028  48.558  1.00  0.00     0.004 A 
HETATM    6  C6  UNL     1      21.185   0.784  49.885  1.00  0.00     0.029 A 
HETATM    7  C7  UNL     1      21.273   1.724  50.889  1.00  0.00     0.035 A 
HETATM    8  C25 UNL     1      21.688   2.945  50.403  1.00  0.00     0.050 A 
ENDROOT
BRANCH   7   9
HETATM    9  N1  UNL     1      20.994   1.485  52.252  1.00  0.00    -0.340 N 
HETATM   10  H5  UNL     1      20.282   2.135  52.588  1.00  0.00     0.167 HD
BRANCH   9  11
HETATM   11  C8  UNL     1      21.544   0.520  53.115  1.00  0.00     0.142 A 
HETATM   12  N2  UNL     1      20.776  -0.373  53.758  1.00  0.00    -0.224 NA
HETATM   13  C9  UNL     1      21.285  -1.315  54.559  1.00  0.00     0.236 A 
HETATM   14  N3  UNL     1      22.611  -1.384  54.740  1.00  0.00    -0.241 NA
HETATM   15  C10 UNL     1      23.456  -0.516  54.125  1.00  0.00     0.075 A 
HETATM   16  C11 UNL     1      24.801  -0.650  54.351  1.00  0.00     0.071 A 
HETATM   17  C15 UNL     1      22.906   0.456  53.297  1.00  0.00     0.041 A 
HETATM   18  C12 UNL     1      25.606   0.248  53.700  1.00  0.00     0.097 A 
HETATM   19  C13 UNL     1      25.192   1.278  52.838  1.00  0.00     0.065 A 
HETATM   20  O1  UNL     1      26.979   0.105  53.931  1.00  0.00    -0.347 OA
HETATM   21  C14 UNL     1      23.820   1.291  52.708  1.00  0.00     0.050 A 
HETATM   22  N4  UNL     1      26.145   2.160  52.198  1.00  0.00    -0.377 N 
HETATM   23  C23 UNL     1      27.422   2.162  52.871  1.00  0.00     0.149 C 
HETATM   24  C24 UNL     1      27.897   0.729  53.028  1.00  0.00     0.195 C 
BRANCH  22  25
HETATM   25  C16 UNL     1      25.645   2.814  51.027  1.00  0.00     0.125 C 
BRANCH  25  26
HETATM   26  C17 UNL     1      26.725   3.271  50.120  1.00  0.00     0.055 C 
BRANCH  26  27
HETATM   27  C18 UNL     1      26.454   4.466  49.253  1.00  0.00     0.222 C 
HETATM   28  C19 UNL     1      27.759   4.916  48.677  1.00  0.00     0.036 C 
HETATM   29  C20 UNL     1      27.746   6.308  48.097  1.00  0.00     0.004 C 
HETATM   30  C21 UNL     1      26.466   7.044  48.371  1.00  0.00     0.030 C 
HETATM   31  C22 UNL     1      26.094   6.810  49.801  1.00  0.00     0.270 C 
HETATM   32  N5  UNL     1      25.867   5.459  50.145  1.00  0.00     0.088 N 
HETATM   33  H22 UNL     1      24.839   5.255  50.207  1.00  0.00     0.316 HD
ENDBRANCH  26  27
ENDBRANCH  25  26
ENDBRANCH  22  25
ENDBRANCH   9  11
ENDBRANCH   7   9
TORSDOF 5
ENDMDL
MODEL 6
REMARK VINA RESULT:      -9.7      1.661      5.181
REMARK  5 active torsions:
REMARK  status: ('A' for Active; 'I' for Inactive)
REMARK    1  A    between atoms: C7_7  and  N1_8 
REMARK    2  A    between atoms: N1_8  and  C8_9 
REMARK    3  A    between atoms: N4_19  and  C16_20 
REMARK    4  A    between atoms: C16_20  and  C17_21 
REMARK    5  A    between atoms: C17_21  and  C18_22 
ROOT
HETATM    1  C1  UNL     1      28.001   6.996  47.775  1.00  0.00     0.018 C 
HETATM    2  C2  UNL     1      27.235   6.321  48.412  1.00  0.00    -0.078 C 
HETATM    3  C3  UNL     1      26.314   5.503  49.183  1.00  0.00     0.019 A 
HETATM    4  C4  UNL     1      25.033   5.913  49.496  1.00  0.00     0.021 A 
HETATM    5  C5  UNL     1      24.223   5.094  50.225  1.00  0.00     0.004 A 
HETATM    6  C6  UNL     1      24.686   3.864  50.641  1.00  0.00     0.029 A 
HETATM    7  C7  UNL     1      25.946   3.373  50.375  1.00  0.00     0.035 A 
HETATM    8  C25 UNL     1      26.691   4.267  49.638  1.00  0.00     0.050 A 
ENDROOT
BRANCH   7   9
HETATM    9  N1  UNL     1      26.428   2.109  50.782  1.00  0.00    -0.340 N 
HETATM   10  H5  UNL     1      26.410   1.454  50.000  1.00  0.00     0.167 HD
BRANCH   9  11
HETATM   11  C8  UNL     1      26.898   1.704  52.044  1.00  0.00     0.142 A 
HETATM   12  N2  UNL     1      28.114   2.056  52.492  1.00  0.00    -0.224 NA
HETATM   13  C9  UNL     1      28.564   1.702  53.700  1.00  0.00     0.236 A 
HETATM   14  N3  UNL     1      27.788   0.968  54.509  1.00  0.00    -0.241 NA
HETATM   15  C10 UNL     1      26.545   0.571  54.128  1.00  0.00     0.075 A 
HETATM   16  C11 UNL     1      25.803  -0.173  55.008  1.00  0.00     0.071 A 
HETATM   17  C15 UNL     1      26.096   0.948  52.867  1.00  0.00     0.041 A 
HETATM   18  C12 UNL     1      24.557  -0.539  54.575  1.00  0.00     0.097 A 
HETATM   19  C13 UNL     1      23.974  -0.232  53.333  1.00  0.00     0.065 A 
HETATM   20  O1  UNL     1      23.802  -1.295  55.478  1.00  0.00    -0.347 OA
HETATM   21  C14 UNL     1      24.833   0.517  52.557  1.00  0.00     0.050 A 
HETATM   22  N4  UNL     1      22.636  -0.669  52.994  1.00  0.00    -0.377 N 
HETATM   23  C23 UNL     1      22.198  -1.771  53.819  1.00  0.00     0.149 C 
HETATM   24  C24 UNL     1      22.389  -1.398  55.278  1.00  0.00     0.195 C 
BRANCH  22  25
HETATM   25  C16 UNL     1      22.017   0.089  51.951  1.00  0.00     0.125 C 
BRANCH  25  26
HETATM   26  C17 UNL     1      20.909   0.944  52.441  1.00  0.00     0.055 C 
BRANCH  26  27
HETATM   27  C18 UNL     1      20.418   2.041  51.542  1.00  0.00     0.222 C 
HETATM   28  C19 UNL     1      21.233   2.000  50.288  1.00  0.00     0.036 C 
HETATM   29  C20 UNL     1      21.147   3.244  49.440  1.00  0.00     0.004 C 
HETATM   30  C21 UNL     1      20.394   4.357  50.109  1.00  0.00     0.030 C 
HETATM   31  C22 UNL     1      20.850   4.435  51.532  1.00  0.00     0.270 C 
HETATM   32  N5  UNL     1      20.618   3.271  52.298  1.00  0.00     0.088 N 
HETATM   33  H22 UNL     1      19.784   3.394  52.923  1.00  0.00     0.316 HD
ENDBRANCH  26  27
ENDBRANCH  25  26
ENDBRANCH  22  25
ENDBRANCH   9  11
ENDBRANCH   7   9
TORSDOF 5
ENDMDL
MODEL 7
REMARK VINA RESULT:      -9.6      2.486      7.081
REMARK  5 active torsions:
REMARK  status: ('A' for Active; 'I' for Inactive)
REMARK    1  A    between atoms: C7_7  and  N1_8 
REMARK    2  A    between atoms: N1_8  and  C8_9 
REMARK    3  A    between atoms: N4_19  and  C16_20 
REMARK    4  A    between atoms: C16_20  and  C17_21 
REMARK    5  A    between atoms: C17_21  and  C18_22 
ROOT
HETATM    1  C1  UNL     1      16.495  -0.325  49.527  1.00  0.00     0.018 C 
HETATM    2  C2  UNL     1      17.377   0.269  50.092  1.00  0.00    -0.078 C 
HETATM    3  C3  UNL     1      18.446   0.981  50.772  1.00  0.00     0.019 A 
HETATM    4  C4  UNL     1      18.340   2.307  51.144  1.00  0.00     0.021 A 
HETATM    5  C5  UNL     1      19.384   2.914  51.779  1.00  0.00     0.004 A 
HETATM    6  C6  UNL     1      20.533   2.200  52.046  1.00  0.00     0.029 A 
HETATM    7  C7  UNL     1      20.726   0.876  51.713  1.00  0.00     0.035 A 
HETATM    8  C25 UNL     1      19.623   0.350  51.076  1.00  0.00     0.050 A 
ENDROOT
BRANCH   7   9
HETATM    9  N1  UNL     1      21.891   0.129  51.993  1.00  0.00    -0.340 N 
HETATM   10  H5  UNL     1      22.475   0.057  51.160  1.00  0.00     0.167 HD
BRANCH   9  11
HETATM   11  C8  UNL     1      22.294  -0.466  53.203  1.00  0.00     0.142 A 
HETATM   12  N2  UNL     1      21.452  -1.204  53.943  1.00  0.00    -0.224 NA
HETATM   13  C9  UNL     1      21.827  -1.799  55.080  1.00  0.00     0.236 A 
HETATM   14  N3  UNL     1      23.088  -1.665  55.513  1.00  0.00    -0.241 NA
HETATM   15  C10 UNL     1      24.000  -0.933  54.822  1.00  0.00     0.075 A 
HETATM   16  C11 UNL     1      25.273  -0.844  55.321  1.00  0.00     0.071 A 
HETATM   17  C15 UNL     1      23.589  -0.322  53.643  1.00  0.00     0.041 A 
HETATM   18  C12 UNL     1      26.153  -0.101  54.579  1.00  0.00     0.097 A 
HETATM   19  C13 UNL     1      25.879   0.571  53.375  1.00  0.00     0.065 A 
HETATM   20  O1  UNL     1      27.452  -0.015  55.091  1.00  0.00    -0.347 OA
HETATM   21  C14 UNL     1      24.565   0.393  52.998  1.00  0.00     0.050 A 
HETATM   22  N4  UNL     1      26.902   1.320  52.675  1.00  0.00    -0.377 N 
HETATM   23  C23 UNL     1      28.009   1.664  53.535  1.00  0.00     0.149 C 
HETATM   24  C24 UNL     1      28.508   0.406  54.222  1.00  0.00     0.195 C 
BRANCH  22  25
HETATM   25  C16 UNL     1      26.627   1.533  51.287  1.00  0.00     0.125 C 
BRANCH  25  26
HETATM   26  C17 UNL     1      26.383   2.959  50.962  1.00  0.00     0.055 C 
BRANCH  26  27
HETATM   27  C18 UNL     1      24.974   3.468  51.055  1.00  0.00     0.222 C 
HETATM   28  C19 UNL     1      24.181   2.810  49.971  1.00  0.00     0.036 C 
HETATM   29  C20 UNL     1      22.859   3.471  49.667  1.00  0.00     0.004 C 
HETATM   30  C21 UNL     1      22.676   4.773  50.392  1.00  0.00     0.030 C 
HETATM   31  C22 UNL     1      23.955   5.542  50.293  1.00  0.00     0.270 C 
HETATM   32  N5  UNL     1      25.079   4.911  50.871  1.00  0.00     0.088 N 
HETATM   33  H22 UNL     1      25.304   5.330  51.807  1.00  0.00     0.316 HD
ENDBRANCH  26  27
ENDBRANCH  25  26
ENDBRANCH  22  25
ENDBRANCH   9  11
ENDBRANCH   7   9
TORSDOF 5
ENDMDL
MODEL 8
REMARK VINA RESULT:      -9.6      2.184      5.744
REMARK  5 active torsions:
REMARK  status: ('A' for Active; 'I' for Inactive)
REMARK    1  A    between atoms: C7_7  and  N1_8 
REMARK    2  A    between atoms: N1_8  and  C8_9 
REMARK    3  A    between atoms: N4_19  and  C16_20 
REMARK    4  A    between atoms: C16_20  and  C17_21 
REMARK    5  A    between atoms: C17_21  and  C18_22 
ROOT
HETATM    1  C1  UNL     1      23.792   8.033  50.424  1.00  0.00     0.018 C 
HETATM    2  C2  UNL     1      24.575   7.171  50.120  1.00  0.00    -0.078 C 
HETATM    3  C3  UNL     1      25.516   6.125  49.756  1.00  0.00     0.019 A 
HETATM    4  C4  UNL     1      26.536   6.323  48.847  1.00  0.00     0.021 A 
HETATM    5  C5  UNL     1      27.383   5.295  48.550  1.00  0.00     0.004 A 
HETATM    6  C6  UNL     1      27.215   4.070  49.160  1.00  0.00     0.029 A 
HETATM    7  C7  UNL     1      26.228   3.783  50.078  1.00  0.00     0.035 A 
HETATM    8  C25 UNL     1      25.423   4.876  50.312  1.00  0.00     0.050 A 
ENDROOT
BRANCH   7   9
HETATM    9  N1  UNL     1      26.053   2.538  50.721  1.00  0.00    -0.340 N 
HETATM   10  H5  UNL     1      25.403   1.955  50.195  1.00  0.00     0.167 HD
BRANCH   9  11
HETATM   11  C8  UNL     1      26.643   2.061  51.906  1.00  0.00     0.142 A 
HETATM   12  N2  UNL     1      27.878   2.431  52.280  1.00  0.00    -0.224 NA
HETATM   13  C9  UNL     1      28.442   2.009  53.416  1.00  0.00     0.236 A 
HETATM   14  N3  UNL     1      27.763   1.185  54.227  1.00  0.00    -0.241 NA
HETATM   15  C10 UNL     1      26.508   0.765  53.919  1.00  0.00     0.075 A 
HETATM   16  C11 UNL     1      25.871  -0.072  54.798  1.00  0.00     0.071 A 
HETATM   17  C15 UNL     1      25.941   1.214  52.732  1.00  0.00     0.041 A 
HETATM   18  C12 UNL     1      24.606  -0.458  54.441  1.00  0.00     0.097 A 
HETATM   19  C13 UNL     1      23.910  -0.085  53.277  1.00  0.00     0.065 A 
HETATM   20  O1  UNL     1      23.958  -1.310  55.342  1.00  0.00    -0.347 OA
HETATM   21  C14 UNL     1      24.672   0.754  52.493  1.00  0.00     0.050 A 
HETATM   22  N4  UNL     1      22.564  -0.553  53.017  1.00  0.00    -0.377 N 
HETATM   23  C23 UNL     1      22.238  -1.730  53.787  1.00  0.00     0.149 C 
HETATM   24  C24 UNL     1      22.538  -1.457  55.250  1.00  0.00     0.195 C 
BRANCH  22  25
HETATM   25  C16 UNL     1      21.833   0.253  52.088  1.00  0.00     0.125 C 
BRANCH  25  26
HETATM   26  C17 UNL     1      20.501   0.655  52.602  1.00  0.00     0.055 C 
BRANCH  26  27
HETATM   27  C18 UNL     1      19.297  -0.066  52.071  1.00  0.00     0.222 C 
HETATM   28  C19 UNL     1      18.289   0.965  51.672  1.00  0.00     0.036 C 
HETATM   29  C20 UNL     1      16.890   0.436  51.477  1.00  0.00     0.004 C 
HETATM   30  C21 UNL     1      16.743  -0.998  51.897  1.00  0.00     0.030 C 
HETATM   31  C22 UNL     1      17.449  -1.173  53.204  1.00  0.00     0.270 C 
HETATM   32  N5  UNL     1      18.835  -0.899  53.175  1.00  0.00     0.088 N 
HETATM   33  H22 UNL     1      19.393  -1.788  53.151  1.00  0.00     0.316 HD
ENDBRANCH  26  27
ENDBRANCH  25  26
ENDBRANCH  22  25
ENDBRANCH   9  11
ENDBRANCH   7   9
TORSDOF 5
ENDMDL
MODEL 9
REMARK VINA RESULT:      -8.8      2.599      7.231
REMARK  5 active torsions:
REMARK  status: ('A' for Active; 'I' for Inactive)
REMARK    1  A    between atoms: C7_7  and  N1_8 
REMARK    2  A    between atoms: N1_8  and  C8_9 
REMARK    3  A    between atoms: N4_19  and  C16_20 
REMARK    4  A    between atoms: C16_20  and  C17_21 
REMARK    5  A    between atoms: C17_21  and  C18_22 
ROOT
HETATM    1  C1  UNL     1      23.084  -0.558  53.559  1.00  0.00     0.018 C 
HETATM    2  C2  UNL     1      24.044   0.114  53.287  1.00  0.00    -0.078 C 
HETATM    3  C3  UNL     1      25.201   0.928  52.953  1.00  0.00     0.019 A 
HETATM    4  C4  UNL     1      26.195   1.222  53.865  1.00  0.00     0.021 A 
HETATM    5  C5  UNL     1      27.253   1.994  53.483  1.00  0.00     0.004 A 
HETATM    6  C6  UNL     1      27.323   2.472  52.192  1.00  0.00     0.029 A 
HETATM    7  C7  UNL     1      26.380   2.229  51.217  1.00  0.00     0.035 A 
HETATM    8  C25 UNL     1      25.351   1.446  51.693  1.00  0.00     0.050 A 
ENDROOT
BRANCH   7   9
HETATM    9  N1  UNL     1      26.445   2.700  49.887  1.00  0.00    -0.340 N 
HETATM   10  H5  UNL     1      26.261   1.940  49.232  1.00  0.00     0.167 HD
BRANCH   9  11
HETATM   11  C8  UNL     1      26.708   4.000  49.418  1.00  0.00     0.142 A 
HETATM   12  N2  UNL     1      27.883   4.325  48.856  1.00  0.00    -0.224 NA
HETATM   13  C9  UNL     1      28.138   5.549  48.380  1.00  0.00     0.236 A 
HETATM   14  N3  UNL     1      27.197   6.499  48.459  1.00  0.00    -0.241 NA
HETATM   15  C10 UNL     1      25.982   6.250  49.014  1.00  0.00     0.075 A 
HETATM   16  C11 UNL     1      25.065   7.268  49.055  1.00  0.00     0.071 A 
HETATM   17  C15 UNL     1      25.738   4.972  49.504  1.00  0.00     0.041 A 
HETATM   18  C12 UNL     1      23.856   6.958  49.619  1.00  0.00     0.097 A 
HETATM   19  C13 UNL     1      23.472   5.716  50.153  1.00  0.00     0.065 A 
HETATM   20  O1  UNL     1      22.923   7.999  49.655  1.00  0.00    -0.347 OA
HETATM   21  C14 UNL     1      24.490   4.794  50.043  1.00  0.00     0.050 A 
HETATM   22  N4  UNL     1      22.153   5.508  50.715  1.00  0.00    -0.377 N 
HETATM   23  C23 UNL     1      21.510   6.751  51.069  1.00  0.00     0.149 C 
HETATM   24  C24 UNL     1      21.544   7.681  49.870  1.00  0.00     0.195 C 
BRANCH  22  25
HETATM   25  C16 UNL     1      21.749   4.137  50.773  1.00  0.00     0.125 C 
BRANCH  25  26
HETATM   26  C17 UNL     1      20.885   3.841  51.941  1.00  0.00     0.055 C 
BRANCH  26  27
HETATM   27  C18 UNL     1      19.865   2.749  51.801  1.00  0.00     0.222 C 
HETATM   28  C19 UNL     1      20.347   1.573  52.589  1.00  0.00     0.036 C 
HETATM   29  C20 UNL     1      19.658   0.271  52.264  1.00  0.00     0.004 C 
HETATM   30  C21 UNL     1      18.740   0.375  51.081  1.00  0.00     0.030 C 
HETATM   31  C22 UNL     1      19.446   1.151  50.014  1.00  0.00     0.270 C 
HETATM   32  N5  UNL     1      19.798   2.472  50.371  1.00  0.00     0.088 N 
HETATM   33  H22 UNL     1      19.132   3.165  49.949  1.00  0.00     0.316 HD
ENDBRANCH  26  27
ENDBRANCH  25  26
ENDBRANCH  22  25
ENDBRANCH   9  11
ENDBRANCH   7   9
TORSDOF 5
ENDMDL
