MODEL 1
REMARK VINA RESULT:      -7.9      0.000      0.000
REMARK  7 active torsions:
REMARK  status: ('A' for Active; 'I' for Inactive)
REMARK       I    between atoms: C1_2  and  N1_3 
REMARK       I    between atoms: C1_2  and  N2_11 
REMARK    1  A    between atoms: N1_3  and  C2_4 
REMARK    2  A    between atoms: C3_5  and  C4_6 
REMARK    3  A    between atoms: C5_7  and  S1_8 
REMARK    4  A    between atoms: S1_8  and  C6_9 
REMARK    5  A    between atoms: N2_11  and  C7_12 
REMARK    6  A    between atoms: C10_15  and  O2_16 
REMARK    7  A    between atoms: O2_16  and  C11_17 
ROOT
HETATM    1  C7  UNL     1      22.201   2.328  51.535  1.00  0.00     0.036 A 
HETATM    2  C8  UNL     1      23.043   3.258  52.161  1.00  0.00     0.032 A 
HETATM    3  C9  UNL     1      24.127   2.842  52.941  1.00  0.00     0.039 A 
HETATM    4  C10 UNL     1      24.390   1.508  53.111  1.00  0.00     0.078 A 
HETATM    5  C18 UNL     1      23.543   0.595  52.481  1.00  0.00     0.039 A 
HETATM    6  C19 UNL     1      22.464   0.988  51.705  1.00  0.00     0.032 A 
ENDROOT
BRANCH   1   7
HETATM    7  N2  UNL     1      21.208   3.037  50.829  1.00  0.00    -0.309 N 
HETATM    8  C1  UNL     1      19.908   3.296  51.342  1.00  0.00     0.324 C 
HETATM    9  O1  UNL     1      19.489   2.938  52.472  1.00  0.00    -0.247 OA
HETATM   10  N1  UNL     1      19.054   4.019  50.470  1.00  0.00    -0.319 N 
HETATM   11  H1  UNL     1      19.364   4.346  49.519  1.00  0.00     0.170 HD
HETATM   12  H8  UNL     1      21.530   3.349  49.890  1.00  0.00     0.170 HD
BRANCH  10  13
HETATM   13  C2  UNL     1      17.693   4.377  50.791  1.00  0.00     0.092 C 
HETATM   14  C3  UNL     1      16.788   3.484  50.437  1.00  0.00     0.018 C 
BRANCH  14  15
HETATM   15  C4  UNL     1      15.364   3.679  50.683  1.00  0.00     0.008 C 
HETATM   16  C5  UNL     1      14.873   4.000  51.876  1.00  0.00     0.047 C 
BRANCH  16  17
HETATM   17  S1  UNL     1      13.186   4.265  52.310  1.00  0.00    -0.110 SA
BRANCH  17  18
HETATM   18  C6  UNL     1      12.926   4.235  54.105  1.00  0.00     0.300 C 
HETATM   19  F1  UNL     1      11.694   4.833  54.343  1.00  0.00    -0.244 F 
ENDBRANCH  17  18
ENDBRANCH  16  17
ENDBRANCH  14  15
ENDBRANCH  10  13
ENDBRANCH   1   7
BRANCH   4  20
HETATM   20  O2  UNL     1      25.358   0.850  53.804  1.00  0.00    -0.291 OA
BRANCH  20  21
HETATM   21  C11 UNL     1      26.708   1.016  53.762  1.00  0.00     0.181 A 
HETATM   22  N3  UNL     1      27.321   2.186  53.914  1.00  0.00    -0.217 NA
HETATM   23  C12 UNL     1      28.650   2.325  53.870  1.00  0.00     0.236 A 
HETATM   24  N4  UNL     1      29.436   1.253  53.667  1.00  0.00    -0.241 NA
HETATM   25  C13 UNL     1      28.842   0.064  53.511  1.00  0.00     0.072 A 
HETATM   26  C14 UNL     1      27.478  -0.137  53.547  1.00  0.00     0.048 A 
HETATM   27  C17 UNL     1      29.701  -1.092  53.292  1.00  0.00     0.056 A 
HETATM   28  C15 UNL     1      26.793  -1.435  53.380  1.00  0.00     0.220 A 
HETATM   29  O3  UNL     1      27.745  -2.451  53.178  1.00  0.00    -0.358 OA
HETATM   30  C16 UNL     1      29.115  -2.265  53.140  1.00  0.00     0.137 A 
ENDBRANCH  20  21
ENDBRANCH   4  20
TORSDOF 7
ENDMDL
MODEL 2
REMARK VINA RESULT:      -7.8      3.392      3.961
REMARK  7 active torsions:
REMARK  status: ('A' for Active; 'I' for Inactive)
REMARK       I    between atoms: C1_2  and  N1_3 
REMARK       I    between atoms: C1_2  and  N2_11 
REMARK    1  A    between atoms: N1_3  and  C2_4 
REMARK    2  A    between atoms: C3_5  and  C4_6 
REMARK    3  A    between atoms: C5_7  and  S1_8 
REMARK    4  A    between atoms: S1_8  and  C6_9 
REMARK    5  A    between atoms: N2_11  and  C7_12 
REMARK    6  A    between atoms: C10_15  and  O2_16 
REMARK    7  A    between atoms: O2_16  and  C11_17 
ROOT
HETATM    1  C7  UNL     1      20.723  -0.362  53.405  1.00  0.00     0.036 A 
HETATM    2  C8  UNL     1      21.636  -0.971  54.277  1.00  0.00     0.032 A 
HETATM    3  C9  UNL     1      23.008  -0.716  54.181  1.00  0.00     0.039 A 
HETATM    4  C10 UNL     1      23.492   0.140  53.227  1.00  0.00     0.078 A 
HETATM    5  C18 UNL     1      22.571   0.738  52.366  1.00  0.00     0.039 A 
HETATM    6  C19 UNL     1      21.208   0.497  52.445  1.00  0.00     0.032 A 
ENDROOT
BRANCH   1   7
HETATM    7  N2  UNL     1      19.429  -0.808  53.738  1.00  0.00    -0.309 N 
HETATM    8  C1  UNL     1      18.334  -0.802  52.831  1.00  0.00     0.324 C 
HETATM    9  O1  UNL     1      18.382  -0.409  51.638  1.00  0.00    -0.247 OA
HETATM   10  N1  UNL     1      17.112  -1.285  53.365  1.00  0.00    -0.319 N 
HETATM   11  H1  UNL     1      17.026  -1.631  54.355  1.00  0.00     0.170 HD
HETATM   12  H8  UNL     1      19.361  -1.143  54.721  1.00  0.00     0.170 HD
BRANCH  10  13
HETATM   13  C2  UNL     1      15.878  -1.354  52.619  1.00  0.00     0.092 C 
HETATM   14  C3  UNL     1      15.089  -0.305  52.759  1.00  0.00     0.018 C 
BRANCH  14  15
HETATM   15  C4  UNL     1      13.803  -0.203  52.078  1.00  0.00     0.008 C 
HETATM   16  C5  UNL     1      12.654  -0.561  52.645  1.00  0.00     0.047 C 
BRANCH  16  17
HETATM   17  S1  UNL     1      11.040  -0.490  51.942  1.00  0.00    -0.110 SA
BRANCH  17  18
HETATM   18  C6  UNL     1      10.173   1.047  52.365  1.00  0.00     0.300 C 
HETATM   19  F1  UNL     1      11.149   2.017  52.562  1.00  0.00    -0.244 F 
ENDBRANCH  17  18
ENDBRANCH  16  17
ENDBRANCH  14  15
ENDBRANCH  10  13
ENDBRANCH   1   7
BRANCH   4  20
HETATM   20  O2  UNL     1      24.752   0.551  52.924  1.00  0.00    -0.291 OA
BRANCH  20  21
HETATM   21  C11 UNL     1      25.926  -0.132  53.023  1.00  0.00     0.181 A 
HETATM   22  N3  UNL     1      26.065  -1.421  52.732  1.00  0.00    -0.217 NA
HETATM   23  C12 UNL     1      27.229  -2.072  52.835  1.00  0.00     0.236 A 
HETATM   24  N4  UNL     1      28.332  -1.423  53.248  1.00  0.00    -0.241 NA
HETATM   25  C13 UNL     1      28.217  -0.123  53.548  1.00  0.00     0.072 A 
HETATM   26  C14 UNL     1      27.043   0.596  53.460  1.00  0.00     0.048 A 
HETATM   27  C17 UNL     1      29.416   0.572  53.994  1.00  0.00     0.056 A 
HETATM   28  C15 UNL     1      26.884   2.028  53.781  1.00  0.00     0.220 A 
HETATM   29  O3  UNL     1      28.119   2.562  54.194  1.00  0.00    -0.358 OA
HETATM   30  C16 UNL     1      29.303   1.854  54.288  1.00  0.00     0.137 A 
ENDBRANCH  20  21
ENDBRANCH   4  20
TORSDOF 7
ENDMDL
MODEL 3
REMARK VINA RESULT:      -7.8      2.148      2.775
REMARK  7 active torsions:
REMARK  status: ('A' for Active; 'I' for Inactive)
REMARK       I    between atoms: C1_2  and  N1_3 
REMARK       I    between atoms: C1_2  and  N2_11 
REMARK    1  A    between atoms: N1_3  and  C2_4 
REMARK    2  A    between atoms: C3_5  and  C4_6 
REMARK    3  A    between atoms: C5_7  and  S1_8 
REMARK    4  A    between atoms: S1_8  and  C6_9 
REMARK    5  A    between atoms: N2_11  and  C7_12 
REMARK    6  A    between atoms: C10_15  and  O2_16 
REMARK    7  A    between atoms: O2_16  and  C11_17 
ROOT
HETATM    1  C7  UNL     1      20.978   0.914  51.277  1.00  0.00     0.036 A 
HETATM    2  C8  UNL     1      21.357   0.339  52.497  1.00  0.00     0.032 A 
HETATM    3  C9  UNL     1      22.677   0.411  52.953  1.00  0.00     0.039 A 
HETATM    4  C10 UNL     1      23.635   1.052  52.211  1.00  0.00     0.078 A 
HETATM    5  C18 UNL     1      23.242   1.620  50.998  1.00  0.00     0.039 A 
HETATM    6  C19 UNL     1      21.939   1.557  50.530  1.00  0.00     0.032 A 
ENDROOT
BRANCH   1   7
HETATM    7  N2  UNL     1      19.601   0.679  51.085  1.00  0.00    -0.309 N 
HETATM    8  C1  UNL     1      18.586   1.615  51.423  1.00  0.00     0.324 C 
HETATM    9  O1  UNL     1      18.784   2.752  51.922  1.00  0.00    -0.247 OA
HETATM   10  N1  UNL     1      17.261   1.182  51.159  1.00  0.00    -0.319 N 
HETATM   11  H1  UNL     1      17.049   0.242  50.736  1.00  0.00     0.170 HD
HETATM   12  H8  UNL     1      19.409  -0.255  50.670  1.00  0.00     0.170 HD
BRANCH  10  13
HETATM   13  C2  UNL     1      16.086   1.972  51.437  1.00  0.00     0.092 C 
HETATM   14  C3  UNL     1      15.465   1.663  52.560  1.00  0.00     0.018 C 
BRANCH  14  15
HETATM   15  C4  UNL     1      14.260   2.357  53.000  1.00  0.00     0.008 C 
HETATM   16  C5  UNL     1      13.145   1.722  53.347  1.00  0.00     0.047 C 
BRANCH  16  17
HETATM   17  S1  UNL     1      11.628   2.432  53.893  1.00  0.00    -0.110 SA
BRANCH  17  18
HETATM   18  C6  UNL     1      11.867   4.062  54.655  1.00  0.00     0.300 C 
HETATM   19  F1  UNL     1      12.232   4.932  53.634  1.00  0.00    -0.244 F 
ENDBRANCH  17  18
ENDBRANCH  16  17
ENDBRANCH  14  15
ENDBRANCH  10  13
ENDBRANCH   1   7
BRANCH   4  20
HETATM   20  O2  UNL     1      24.962   1.261  52.419  1.00  0.00    -0.291 OA
BRANCH  20  21
HETATM   21  C11 UNL     1      25.942   0.357  52.693  1.00  0.00     0.181 A 
HETATM   22  N3  UNL     1      25.856  -0.941  52.421  1.00  0.00    -0.217 NA
HETATM   23  C12 UNL     1      26.833  -1.811  52.699  1.00  0.00     0.236 A 
HETATM   24  N4  UNL     1      27.970  -1.389  53.279  1.00  0.00    -0.241 NA
HETATM   25  C13 UNL     1      28.079  -0.086  53.563  1.00  0.00     0.072 A 
HETATM   26  C14 UNL     1      27.105   0.854  53.299  1.00  0.00     0.048 A 
HETATM   27  C17 UNL     1      29.315   0.363  54.191  1.00  0.00     0.056 A 
HETATM   28  C15 UNL     1      27.196   2.298  53.599  1.00  0.00     0.220 A 
HETATM   29  O3  UNL     1      28.437   2.580  54.199  1.00  0.00    -0.358 OA
HETATM   30  C16 UNL     1      29.424   1.649  54.470  1.00  0.00     0.137 A 
ENDBRANCH  20  21
ENDBRANCH   4  20
TORSDOF 7
ENDMDL
MODEL 4
REMARK VINA RESULT:      -7.8      1.934      2.570
REMARK  7 active torsions:
REMARK  status: ('A' for Active; 'I' for Inactive)
REMARK       I    between atoms: C1_2  and  N1_3 
REMARK       I    between atoms: C1_2  and  N2_11 
REMARK    1  A    between atoms: N1_3  and  C2_4 
REMARK    2  A    between atoms: C3_5  and  C4_6 
REMARK    3  A    between atoms: C5_7  and  S1_8 
REMARK    4  A    between atoms: S1_8  and  C6_9 
REMARK    5  A    between atoms: N2_11  and  C7_12 
REMARK    6  A    between atoms: C10_15  and  O2_16 
REMARK    7  A    between atoms: O2_16  and  C11_17 
ROOT
HETATM    1  C7  UNL     1      21.386   3.786  51.355  1.00  0.00     0.036 A 
HETATM    2  C8  UNL     1      21.673   2.677  50.548  1.00  0.00     0.032 A 
HETATM    3  C9  UNL     1      22.891   1.998  50.658  1.00  0.00     0.039 A 
HETATM    4  C10 UNL     1      23.836   2.406  51.563  1.00  0.00     0.078 A 
HETATM    5  C18 UNL     1      23.535   3.512  52.359  1.00  0.00     0.039 A 
HETATM    6  C19 UNL     1      22.334   4.197  52.264  1.00  0.00     0.032 A 
ENDROOT
BRANCH   1   7
HETATM    7  N2  UNL     1      20.101   4.257  51.018  1.00  0.00    -0.309 N 
HETATM    8  C1  UNL     1      18.897   3.681  51.507  1.00  0.00     0.324 C 
HETATM    9  O1  UNL     1      18.826   2.700  52.290  1.00  0.00    -0.247 OA
HETATM   10  N1  UNL     1      17.706   4.297  51.041  1.00  0.00    -0.319 N 
HETATM   11  H1  UNL     1      17.717   5.125  50.392  1.00  0.00     0.170 HD
HETATM   12  H8  UNL     1      20.129   5.072  50.373  1.00  0.00     0.170 HD
BRANCH  10  13
HETATM   13  C2  UNL     1      16.379   3.863  51.406  1.00  0.00     0.092 C 
HETATM   14  C3  UNL     1      15.931   4.353  52.547  1.00  0.00     0.018 C 
BRANCH  14  15
HETATM   15  C4  UNL     1      14.611   4.022  53.071  1.00  0.00     0.008 C 
HETATM   16  C5  UNL     1      13.734   3.277  52.405  1.00  0.00     0.047 C 
BRANCH  16  17
HETATM   17  S1  UNL     1      12.116   2.803  52.918  1.00  0.00    -0.110 SA
BRANCH  17  18
HETATM   18  C6  UNL     1      11.723   3.397  54.586  1.00  0.00     0.300 C 
HETATM   19  F1  UNL     1      11.860   4.780  54.563  1.00  0.00    -0.244 F 
ENDBRANCH  17  18
ENDBRANCH  16  17
ENDBRANCH  14  15
ENDBRANCH  10  13
ENDBRANCH   1   7
BRANCH   4  20
HETATM   20  O2  UNL     1      25.074   1.933  51.865  1.00  0.00    -0.291 OA
BRANCH  20  21
HETATM   21  C11 UNL     1      25.444   1.043  52.826  1.00  0.00     0.181 A 
HETATM   22  N3  UNL     1      24.638   0.116  53.334  1.00  0.00    -0.217 NA
HETATM   23  C12 UNL     1      25.023  -0.749  54.277  1.00  0.00     0.236 A 
HETATM   24  N4  UNL     1      26.278  -0.710  54.759  1.00  0.00    -0.241 NA
HETATM   25  C13 UNL     1      27.109   0.215  54.263  1.00  0.00     0.072 A 
HETATM   26  C14 UNL     1      26.764   1.131  53.291  1.00  0.00     0.048 A 
HETATM   27  C17 UNL     1      28.466   0.250  54.790  1.00  0.00     0.056 A 
HETATM   28  C15 UNL     1      27.657   2.162  52.723  1.00  0.00     0.220 A 
HETATM   29  O3  UNL     1      28.926   2.074  53.324  1.00  0.00    -0.358 OA
HETATM   30  C16 UNL     1      29.286   1.162  54.300  1.00  0.00     0.137 A 
ENDBRANCH  20  21
ENDBRANCH   4  20
TORSDOF 7
ENDMDL
MODEL 5
REMARK VINA RESULT:      -7.4      7.801     10.846
REMARK  7 active torsions:
REMARK  status: ('A' for Active; 'I' for Inactive)
REMARK       I    between atoms: C1_2  and  N1_3 
REMARK       I    between atoms: C1_2  and  N2_11 
REMARK    1  A    between atoms: N1_3  and  C2_4 
REMARK    2  A    between atoms: C3_5  and  C4_6 
REMARK    3  A    between atoms: C5_7  and  S1_8 
REMARK    4  A    between atoms: S1_8  and  C6_9 
REMARK    5  A    between atoms: N2_11  and  C7_12 
REMARK    6  A    between atoms: C10_15  and  O2_16 
REMARK    7  A    between atoms: O2_16  and  C11_17 
ROOT
HETATM    1  C7  UNL     1      25.332   4.852  49.665  1.00  0.00     0.036 A 
HETATM    2  C8  UNL     1      24.769   5.391  50.830  1.00  0.00     0.032 A 
HETATM    3  C9  UNL     1      23.967   4.614  51.672  1.00  0.00     0.039 A 
HETATM    4  C10 UNL     1      23.713   3.301  51.374  1.00  0.00     0.078 A 
HETATM    5  C18 UNL     1      24.280   2.779  50.210  1.00  0.00     0.039 A 
HETATM    6  C19 UNL     1      25.077   3.534  49.364  1.00  0.00     0.032 A 
ENDROOT
BRANCH   1   7
HETATM    7  N2  UNL     1      26.079   5.863  49.027  1.00  0.00    -0.309 N 
HETATM    8  C1  UNL     1      27.410   5.686  48.562  1.00  0.00     0.324 C 
HETATM    9  O1  UNL     1      28.077   4.624  48.654  1.00  0.00    -0.247 OA
HETATM   10  N1  UNL     1      27.989   6.830  47.954  1.00  0.00    -0.319 N 
HETATM   11  H1  UNL     1      27.467   7.737  47.848  1.00  0.00     0.170 HD
HETATM   12  H8  UNL     1      25.549   6.754  48.934  1.00  0.00     0.170 HD
BRANCH  10  13
HETATM   13  C2  UNL     1      29.332   6.868  47.425  1.00  0.00     0.092 C 
HETATM   14  C3  UNL     1      30.248   7.297  48.274  1.00  0.00     0.018 C 
BRANCH  14  15
HETATM   15  C4  UNL     1      31.656   7.401  47.910  1.00  0.00     0.008 C 
HETATM   16  C5  UNL     1      32.581   6.553  48.350  1.00  0.00     0.047 C 
BRANCH  16  17
HETATM   17  S1  UNL     1      34.306   6.563  47.992  1.00  0.00    -0.110 SA
BRANCH  17  18
HETATM   18  C6  UNL     1      35.242   5.465  49.093  1.00  0.00     0.300 C 
HETATM   19  F1  UNL     1      35.217   4.201  48.515  1.00  0.00    -0.244 F 
ENDBRANCH  17  18
ENDBRANCH  16  17
ENDBRANCH  14  15
ENDBRANCH  10  13
ENDBRANCH   1   7
BRANCH   4  20
HETATM   20  O2  UNL     1      22.982   2.346  52.009  1.00  0.00    -0.291 OA
BRANCH  20  21
HETATM   21  C11 UNL     1      23.408   1.309  52.781  1.00  0.00     0.181 A 
HETATM   22  N3  UNL     1      24.676   1.107  53.124  1.00  0.00    -0.217 NA
HETATM   23  C12 UNL     1      25.072   0.082  53.886  1.00  0.00     0.236 A 
HETATM   24  N4  UNL     1      24.173  -0.806  54.345  1.00  0.00    -0.241 NA
HETATM   25  C13 UNL     1      22.889  -0.624  54.013  1.00  0.00     0.072 A 
HETATM   26  C14 UNL     1      22.426   0.415  53.232  1.00  0.00     0.048 A 
HETATM   27  C17 UNL     1      21.922  -1.590  54.515  1.00  0.00     0.056 A 
HETATM   28  C15 UNL     1      21.018   0.644  52.849  1.00  0.00     0.220 A 
HETATM   29  O3  UNL     1      20.206  -0.362  53.404  1.00  0.00    -0.358 OA
HETATM   30  C16 UNL     1      20.655  -1.409  54.189  1.00  0.00     0.137 A 
ENDBRANCH  20  21
ENDBRANCH   4  20
TORSDOF 7
ENDMDL
MODEL 6
REMARK VINA RESULT:      -7.4      5.291      5.842
REMARK  7 active torsions:
REMARK  status: ('A' for Active; 'I' for Inactive)
REMARK       I    between atoms: C1_2  and  N1_3 
REMARK       I    between atoms: C1_2  and  N2_11 
REMARK    1  A    between atoms: N1_3  and  C2_4 
REMARK    2  A    between atoms: C3_5  and  C4_6 
REMARK    3  A    between atoms: C5_7  and  S1_8 
REMARK    4  A    between atoms: S1_8  and  C6_9 
REMARK    5  A    between atoms: N2_11  and  C7_12 
REMARK    6  A    between atoms: C10_15  and  O2_16 
REMARK    7  A    between atoms: O2_16  and  C11_17 
ROOT
HETATM    1  C7  UNL     1      23.769   3.936  50.801  1.00  0.00     0.036 A 
HETATM    2  C8  UNL     1      23.397   3.988  52.151  1.00  0.00     0.032 A 
HETATM    3  C9  UNL     1      23.973   3.131  53.094  1.00  0.00     0.039 A 
HETATM    4  C10 UNL     1      24.920   2.215  52.714  1.00  0.00     0.078 A 
HETATM    5  C18 UNL     1      25.280   2.176  51.367  1.00  0.00     0.039 A 
HETATM    6  C19 UNL     1      24.718   3.017  50.419  1.00  0.00     0.032 A 
ENDROOT
BRANCH   1   7
HETATM    7  N2  UNL     1      23.025   4.907  50.100  1.00  0.00    -0.309 N 
HETATM    8  C1  UNL     1      23.463   6.244  49.899  1.00  0.00     0.324 C 
HETATM    9  O1  UNL     1      24.551   6.720  50.309  1.00  0.00    -0.247 OA
HETATM   10  N1  UNL     1      22.562   7.066  49.174  1.00  0.00    -0.319 N 
HETATM   11  H1  UNL     1      21.644   6.708  48.805  1.00  0.00     0.170 HD
HETATM   12  H8  UNL     1      22.118   4.537  49.746  1.00  0.00     0.170 HD
BRANCH  10  13
HETATM   13  C2  UNL     1      22.808   8.455  48.870  1.00  0.00     0.092 C 
HETATM   14  C3  UNL     1      21.721   9.176  48.664  1.00  0.00     0.018 C 
BRANCH  14  15
HETATM   15  C4  UNL     1      21.780  10.598  48.345  1.00  0.00     0.008 C 
HETATM   16  C5  UNL     1      20.936  11.489  48.855  1.00  0.00     0.047 C 
BRANCH  16  17
HETATM   17  S1  UNL     1      20.894  13.226  48.557  1.00  0.00    -0.110 SA
BRANCH  17  18
HETATM   18  C6  UNL     1      20.842  14.186  50.096  1.00  0.00     0.300 C 
HETATM   19  F1  UNL     1      19.931  15.216  49.896  1.00  0.00    -0.244 F 
ENDBRANCH  17  18
ENDBRANCH  16  17
ENDBRANCH  14  15
ENDBRANCH  10  13
ENDBRANCH   1   7
BRANCH   4  20
HETATM   20  O2  UNL     1      25.622   1.285  53.415  1.00  0.00    -0.291 OA
BRANCH  20  21
HETATM   21  C11 UNL     1      26.967   1.176  53.590  1.00  0.00     0.181 A 
HETATM   22  N3  UNL     1      27.762   2.191  53.914  1.00  0.00    -0.217 NA
HETATM   23  C12 UNL     1      29.082   2.060  54.083  1.00  0.00     0.236 A 
HETATM   24  N4  UNL     1      29.668   0.860  53.927  1.00  0.00    -0.241 NA
HETATM   25  C13 UNL     1      28.888  -0.179  53.601  1.00  0.00     0.072 A 
HETATM   26  C14 UNL     1      27.523  -0.100  53.414  1.00  0.00     0.048 A 
HETATM   27  C17 UNL     1      29.531  -1.475  53.434  1.00  0.00     0.056 A 
HETATM   28  C15 UNL     1      26.637  -1.225  53.056  1.00  0.00     0.220 A 
HETATM   29  O3  UNL     1      27.394  -2.405  52.931  1.00  0.00    -0.358 OA
HETATM   30  C16 UNL     1      28.761  -2.499  53.114  1.00  0.00     0.137 A 
ENDBRANCH  20  21
ENDBRANCH   4  20
TORSDOF 7
ENDMDL
MODEL 7
REMARK VINA RESULT:      -7.3      6.009     12.461
REMARK  7 active torsions:
REMARK  status: ('A' for Active; 'I' for Inactive)
REMARK       I    between atoms: C1_2  and  N1_3 
REMARK       I    between atoms: C1_2  and  N2_11 
REMARK    1  A    between atoms: N1_3  and  C2_4 
REMARK    2  A    between atoms: C3_5  and  C4_6 
REMARK    3  A    between atoms: C5_7  and  S1_8 
REMARK    4  A    between atoms: S1_8  and  C6_9 
REMARK    5  A    between atoms: N2_11  and  C7_12 
REMARK    6  A    between atoms: C10_15  and  O2_16 
REMARK    7  A    between atoms: O2_16  and  C11_17 
ROOT
HETATM    1  C7  UNL     1      18.498   0.144  51.952  1.00  0.00     0.036 A 
HETATM    2  C8  UNL     1      18.165   1.409  51.446  1.00  0.00     0.032 A 
HETATM    3  C9  UNL     1      16.842   1.860  51.443  1.00  0.00     0.039 A 
HETATM    4  C10 UNL     1      15.836   1.072  51.937  1.00  0.00     0.078 A 
HETATM    5  C18 UNL     1      16.183  -0.184  52.437  1.00  0.00     0.039 A 
HETATM    6  C19 UNL     1      17.489  -0.649  52.447  1.00  0.00     0.032 A 
ENDROOT
BRANCH   1   7
HETATM    7  N2  UNL     1      19.891  -0.031  51.820  1.00  0.00    -0.309 N 
HETATM    8  C1  UNL     1      20.773  -0.195  52.923  1.00  0.00     0.324 C 
HETATM    9  O1  UNL     1      20.429  -0.209  54.132  1.00  0.00    -0.247 OA
HETATM   10  N1  UNL     1      22.140  -0.349  52.577  1.00  0.00    -0.319 N 
HETATM   11  H1  UNL     1      22.473  -0.352  51.579  1.00  0.00     0.170 HD
HETATM   12  H8  UNL     1      20.203  -0.027  50.828  1.00  0.00     0.170 HD
BRANCH  10  13
HETATM   13  C2  UNL     1      23.200  -0.518  53.542  1.00  0.00     0.092 C 
HETATM   14  C3  UNL     1      24.398  -0.163  53.115  1.00  0.00     0.018 C 
BRANCH  14  15
HETATM   15  C4  UNL     1      25.585  -0.265  53.955  1.00  0.00     0.008 C 
HETATM   16  C5  UNL     1      26.759   0.258  53.615  1.00  0.00     0.047 C 
BRANCH  16  17
HETATM   17  S1  UNL     1      28.265   0.209  54.530  1.00  0.00    -0.110 SA
BRANCH  17  18
HETATM   18  C6  UNL     1      29.502  -0.871  53.759  1.00  0.00     0.300 C 
HETATM   19  F1  UNL     1      30.643  -0.101  53.566  1.00  0.00    -0.244 F 
ENDBRANCH  17  18
ENDBRANCH  16  17
ENDBRANCH  14  15
ENDBRANCH  10  13
ENDBRANCH   1   7
BRANCH   4  20
HETATM   20  O2  UNL     1      14.495   1.266  52.048  1.00  0.00    -0.291 OA
BRANCH  20  21
HETATM   21  C11 UNL     1      13.817   2.154  52.825  1.00  0.00     0.181 A 
HETATM   22  N3  UNL     1      13.929   3.474  52.720  1.00  0.00    -0.217 NA
HETATM   23  C12 UNL     1      13.251   4.329  53.495  1.00  0.00     0.236 A 
HETATM   24  N4  UNL     1      12.407   3.867  54.433  1.00  0.00    -0.241 NA
HETATM   25  C13 UNL     1      12.277   2.540  54.559  1.00  0.00     0.072 A 
HETATM   26  C14 UNL     1      12.950   1.615  53.788  1.00  0.00     0.048 A 
HETATM   27  C17 UNL     1      11.360   2.048  55.578  1.00  0.00     0.056 A 
HETATM   28  C15 UNL     1      12.828   0.148  53.901  1.00  0.00     0.220 A 
HETATM   29  O3  UNL     1      11.913  -0.175  54.920  1.00  0.00    -0.358 OA
HETATM   30  C16 UNL     1      11.231   0.740  55.700  1.00  0.00     0.137 A 
ENDBRANCH  20  21
ENDBRANCH   4  20
TORSDOF 7
ENDMDL
MODEL 8
REMARK VINA RESULT:      -7.2      7.279     10.018
REMARK  7 active torsions:
REMARK  status: ('A' for Active; 'I' for Inactive)
REMARK       I    between atoms: C1_2  and  N1_3 
REMARK       I    between atoms: C1_2  and  N2_11 
REMARK    1  A    between atoms: N1_3  and  C2_4 
REMARK    2  A    between atoms: C3_5  and  C4_6 
REMARK    3  A    between atoms: C5_7  and  S1_8 
REMARK    4  A    between atoms: S1_8  and  C6_9 
REMARK    5  A    between atoms: N2_11  and  C7_12 
REMARK    6  A    between atoms: C10_15  and  O2_16 
REMARK    7  A    between atoms: O2_16  and  C11_17 
ROOT
HETATM    1  C7  UNL     1      24.003   4.571  51.588  1.00  0.00     0.036 A 
HETATM    2  C8  UNL     1      22.636   4.484  51.884  1.00  0.00     0.032 A 
HETATM    3  C9  UNL     1      21.979   3.250  51.915  1.00  0.00     0.039 A 
HETATM    4  C10 UNL     1      22.663   2.091  51.656  1.00  0.00     0.078 A 
HETATM    5  C18 UNL     1      24.024   2.194  51.363  1.00  0.00     0.039 A 
HETATM    6  C19 UNL     1      24.691   3.408  51.326  1.00  0.00     0.032 A 
ENDROOT
BRANCH   1   7
HETATM    7  N2  UNL     1      24.379   5.929  51.627  1.00  0.00    -0.309 N 
HETATM    8  C1  UNL     1      25.048   6.594  50.564  1.00  0.00     0.324 C 
HETATM    9  O1  UNL     1      25.379   6.067  49.472  1.00  0.00    -0.247 OA
HETATM   10  N1  UNL     1      25.344   7.960  50.805  1.00  0.00    -0.319 N 
HETATM   11  H1  UNL     1      25.080   8.446  51.700  1.00  0.00     0.170 HD
HETATM   12  H8  UNL     1      24.113   6.392  52.520  1.00  0.00     0.170 HD
BRANCH  10  13
HETATM   13  C2  UNL     1      26.027   8.814  49.863  1.00  0.00     0.092 C 
HETATM   14  C3  UNL     1      27.279   9.093  50.176  1.00  0.00     0.018 C 
BRANCH  14  15
HETATM   15  C4  UNL     1      28.120   9.941  49.340  1.00  0.00     0.008 C 
HETATM   16  C5  UNL     1      29.441   9.806  49.271  1.00  0.00     0.047 C 
BRANCH  16  17
HETATM   17  S1  UNL     1      30.571  10.755  48.307  1.00  0.00    -0.110 SA
BRANCH  17  18
HETATM   18  C6  UNL     1      30.824  12.419  48.986  1.00  0.00     0.300 C 
HETATM   19  F1  UNL     1      29.649  13.127  48.763  1.00  0.00    -0.244 F 
ENDBRANCH  17  18
ENDBRANCH  16  17
ENDBRANCH  14  15
ENDBRANCH  10  13
ENDBRANCH   1   7
BRANCH   4  20
HETATM   20  O2  UNL     1      22.273   0.789  51.621  1.00  0.00    -0.291 OA
BRANCH  20  21
HETATM   21  C11 UNL     1      21.894  -0.022  52.646  1.00  0.00     0.181 A 
HETATM   22  N3  UNL     1      22.721  -0.477  53.582  1.00  0.00    -0.217 NA
HETATM   23  C12 UNL     1      22.326  -1.273  54.581  1.00  0.00     0.236 A 
HETATM   24  N4  UNL     1      21.040  -1.650  54.677  1.00  0.00    -0.241 NA
HETATM   25  C13 UNL     1      20.187  -1.204  53.746  1.00  0.00     0.072 A 
HETATM   26  C14 UNL     1      20.540  -0.383  52.695  1.00  0.00     0.048 A 
HETATM   27  C17 UNL     1      18.795  -1.618  53.858  1.00  0.00     0.056 A 
HETATM   28  C15 UNL     1      19.624   0.125  51.654  1.00  0.00     0.220 A 
HETATM   29  O3  UNL     1      18.322  -0.354  51.892  1.00  0.00    -0.358 OA
HETATM   30  C16 UNL     1      17.954  -1.177  52.940  1.00  0.00     0.137 A 
ENDBRANCH  20  21
ENDBRANCH   4  20
TORSDOF 7
ENDMDL
MODEL 9
REMARK VINA RESULT:      -7.2      5.119      5.841
REMARK  7 active torsions:
REMARK  status: ('A' for Active; 'I' for Inactive)
REMARK       I    between atoms: C1_2  and  N1_3 
REMARK       I    between atoms: C1_2  and  N2_11 
REMARK    1  A    between atoms: N1_3  and  C2_4 
REMARK    2  A    between atoms: C3_5  and  C4_6 
REMARK    3  A    between atoms: C5_7  and  S1_8 
REMARK    4  A    between atoms: S1_8  and  C6_9 
REMARK    5  A    between atoms: N2_11  and  C7_12 
REMARK    6  A    between atoms: C10_15  and  O2_16 
REMARK    7  A    between atoms: O2_16  and  C11_17 
ROOT
HETATM    1  C7  UNL     1      21.896   4.305  50.586  1.00  0.00     0.036 A 
HETATM    2  C8  UNL     1      22.335   4.385  51.915  1.00  0.00     0.032 A 
HETATM    3  C9  UNL     1      23.427   3.636  52.363  1.00  0.00     0.039 A 
HETATM    4  C10 UNL     1      24.096   2.801  51.506  1.00  0.00     0.078 A 
HETATM    5  C18 UNL     1      23.647   2.731  50.187  1.00  0.00     0.039 A 
HETATM    6  C19 UNL     1      22.566   3.466  49.726  1.00  0.00     0.032 A 
ENDROOT
BRANCH   1   7
HETATM    7  N2  UNL     1      20.787   5.162  50.434  1.00  0.00    -0.309 N 
HETATM    8  C1  UNL     1      20.836   6.400  49.737  1.00  0.00     0.324 C 
HETATM    9  O1  UNL     1      21.855   6.876  49.175  1.00  0.00    -0.247 OA
HETATM   10  N1  UNL     1      19.613   7.118  49.705  1.00  0.00    -0.319 N 
HETATM   11  H1  UNL     1      18.734   6.755  50.155  1.00  0.00     0.170 HD
HETATM   12  H8  UNL     1      19.928   4.790  50.888  1.00  0.00     0.170 HD
BRANCH  10  13
HETATM   13  C2  UNL     1      19.448   8.399  49.061  1.00  0.00     0.092 C 
HETATM   14  C3  UNL     1      19.589   9.441  49.859  1.00  0.00     0.018 C 
BRANCH  14  15
HETATM   15  C4  UNL     1      19.457  10.812  49.379  1.00  0.00     0.008 C 
HETATM   16  C5  UNL     1      20.486  11.648  49.285  1.00  0.00     0.047 C 
BRANCH  16  17
HETATM   17  S1  UNL     1      20.467  13.319  48.725  1.00  0.00    -0.110 SA
BRANCH  17  18
HETATM   18  C6  UNL     1      21.067  14.473  49.990  1.00  0.00     0.300 C 
HETATM   19  F1  UNL     1      20.957  13.822  51.213  1.00  0.00    -0.244 F 
ENDBRANCH  17  18
ENDBRANCH  16  17
ENDBRANCH  14  15
ENDBRANCH  10  13
ENDBRANCH   1   7
BRANCH   4  20
HETATM   20  O2  UNL     1      25.164   1.979  51.682  1.00  0.00    -0.291 OA
BRANCH  20  21
HETATM   21  C11 UNL     1      25.421   1.108  52.697  1.00  0.00     0.181 A 
HETATM   22  N3  UNL     1      24.522   0.274  53.209  1.00  0.00    -0.217 NA
HETATM   23  C12 UNL     1      24.797  -0.575  54.205  1.00  0.00     0.236 A 
HETATM   24  N4  UNL     1      26.030  -0.615  54.738  1.00  0.00    -0.241 NA
HETATM   25  C13 UNL     1      26.954   0.216  54.239  1.00  0.00     0.072 A 
HETATM   26  C14 UNL     1      26.725   1.110  53.214  1.00  0.00     0.048 A 
HETATM   27  C17 UNL     1      28.287   0.166  54.822  1.00  0.00     0.056 A 
HETATM   28  C15 UNL     1      27.721   2.038  52.641  1.00  0.00     0.220 A 
HETATM   29  O3  UNL     1      28.954   1.876  53.300  1.00  0.00    -0.358 OA
HETATM   30  C16 UNL     1      29.198   0.985  54.329  1.00  0.00     0.137 A 
ENDBRANCH  20  21
ENDBRANCH   4  20
TORSDOF 7
ENDMDL
