MODEL 1
REMARK VINA RESULT:      -6.8      0.000      0.000
REMARK  7 active torsions:
REMARK  status: ('A' for Active; 'I' for Inactive)
REMARK    1  A    between atoms: C2_2  and  C3_4 
REMARK    2  A    between atoms: C3_4  and  C4_5 
REMARK    3  A    between atoms: C4_5  and  C5_6 
REMARK    4  A    between atoms: C5_6  and  C6_7 
REMARK    5  A    between atoms: C6_7  and  C7_8 
REMARK    6  A    between atoms: C7_8  and  O1_9 
REMARK    7  A    between atoms: O1_9  and  C8_10 
ROOT
HETATM    1  C8  UNL     1      25.821   1.063  52.351  1.00  0.00     0.284 C 
HETATM    2  C9  UNL     1      26.797   2.111  52.623  1.00  0.00     0.031 C 
HETATM    3  C10 UNL     1      27.873   2.046  53.324  1.00  0.00    -0.003 C 
HETATM    4  C11 UNL     1      29.069   2.077  54.068  1.00  0.00     0.258 C 
HETATM    5  N1  UNL     1      29.242   0.881  54.639  1.00  0.00    -0.294 NA
HETATM    6  C12 UNL     1      28.298  -0.137  54.426  1.00  0.00     0.193 C 
HETATM    7  N2  UNL     1      28.988  -0.990  53.694  1.00  0.00    -0.152 NA
HETATM    8  N3  UNL     1      28.409  -2.203  53.210  1.00  0.00    -0.164 NA
HETATM    9  C13 UNL     1      27.214  -2.254  52.789  1.00  0.00     0.140 C 
HETATM   10  C14 UNL     1      26.291  -1.071  52.754  1.00  0.00     0.220 C 
HETATM   11  O2  UNL     1      26.644  -0.107  51.901  1.00  0.00    -0.353 OA
ENDROOT
BRANCH   1  12
HETATM   12  O1  UNL     1      24.876   1.271  51.460  1.00  0.00    -0.357 OA
BRANCH  12  13
HETATM   13  C7  UNL     1      24.257   2.383  51.249  1.00  0.00     0.176 C 
BRANCH  13  14
HETATM   14  C6  UNL     1      23.149   2.884  52.075  1.00  0.00     0.036 C 
BRANCH  14  15
HETATM   15  C5  UNL     1      22.299   1.902  52.572  1.00  0.00    -0.027 C 
BRANCH  15  16
HETATM   16  C4  UNL     1      21.430   0.723  53.166  1.00  0.00     0.016 C 
BRANCH  16  17
HETATM   17  C3  UNL     1      21.980  -0.513  52.867  1.00  0.00     0.022 C 
BRANCH  17  18
HETATM   18  C2  UNL     1      22.890  -0.694  53.971  1.00  0.00     0.059 A 
HETATM   19  C1  UNL     1      21.786  -1.305  54.612  1.00  0.00     0.125 A 
HETATM   20 CL1  UNL     1      23.056  -1.421  55.524  1.00  0.00    -0.208 Cl
ENDBRANCH  17  18
ENDBRANCH  16  17
ENDBRANCH  15  16
ENDBRANCH  14  15
ENDBRANCH  13  14
ENDBRANCH  12  13
ENDBRANCH   1  12
TORSDOF 7
ENDMDL
MODEL 2
REMARK VINA RESULT:      -6.8      1.208      2.554
REMARK  7 active torsions:
REMARK  status: ('A' for Active; 'I' for Inactive)
REMARK    1  A    between atoms: C2_2  and  C3_4 
REMARK    2  A    between atoms: C3_4  and  C4_5 
REMARK    3  A    between atoms: C4_5  and  C5_6 
REMARK    4  A    between atoms: C5_6  and  C6_7 
REMARK    5  A    between atoms: C6_7  and  C7_8 
REMARK    6  A    between atoms: C7_8  and  O1_9 
REMARK    7  A    between atoms: O1_9  and  C8_10 
ROOT
HETATM    1  C8  UNL     1      26.818   1.827  51.764  1.00  0.00     0.284 C 
HETATM    2  C9  UNL     1      26.171   0.524  51.683  1.00  0.00     0.031 C 
HETATM    3  C10 UNL     1      26.556  -0.597  52.183  1.00  0.00    -0.003 C 
HETATM    4  C11 UNL     1      26.889  -1.869  52.689  1.00  0.00     0.258 C 
HETATM    5  N1  UNL     1      28.067  -1.779  53.315  1.00  0.00    -0.294 NA
HETATM    6  C12 UNL     1      28.731  -0.543  53.376  1.00  0.00     0.193 C 
HETATM    7  N2  UNL     1      28.641  -0.256  54.660  1.00  0.00    -0.152 NA
HETATM    8  N3  UNL     1      29.175   0.955  55.198  1.00  0.00    -0.164 NA
HETATM    9  C13 UNL     1      29.093   2.057  54.576  1.00  0.00     0.140 C 
HETATM   10  C14 UNL     1      28.440   2.212  53.233  1.00  0.00     0.220 C 
HETATM   11  O2  UNL     1      27.121   2.005  53.222  1.00  0.00    -0.353 OA
ENDROOT
BRANCH   1  12
HETATM   12  O1  UNL     1      26.179   2.897  51.342  1.00  0.00    -0.357 OA
BRANCH  12  13
HETATM   13  C7  UNL     1      24.918   2.980  51.083  1.00  0.00     0.176 C 
BRANCH  13  14
HETATM   14  C6  UNL     1      23.894   3.367  52.064  1.00  0.00     0.036 C 
BRANCH  14  15
HETATM   15  C5  UNL     1      23.084   2.327  52.506  1.00  0.00    -0.027 C 
BRANCH  15  16
HETATM   16  C4  UNL     1      22.263   1.077  53.016  1.00  0.00     0.016 C 
BRANCH  16  17
HETATM   17  C3  UNL     1      23.097   0.091  53.517  1.00  0.00     0.022 C 
BRANCH  17  18
HETATM   18  C2  UNL     1      22.220  -1.054  53.511  1.00  0.00     0.059 A 
HETATM   19  C1  UNL     1      21.717  -0.513  54.717  1.00  0.00     0.125 A 
HETATM   20 CL1  UNL     1      20.882  -1.778  54.319  1.00  0.00    -0.208 Cl
ENDBRANCH  17  18
ENDBRANCH  16  17
ENDBRANCH  15  16
ENDBRANCH  14  15
ENDBRANCH  13  14
ENDBRANCH  12  13
ENDBRANCH   1  12
TORSDOF 7
ENDMDL
MODEL 3
REMARK VINA RESULT:      -6.7      2.322      3.599
REMARK  7 active torsions:
REMARK  status: ('A' for Active; 'I' for Inactive)
REMARK    1  A    between atoms: C2_2  and  C3_4 
REMARK    2  A    between atoms: C3_4  and  C4_5 
REMARK    3  A    between atoms: C4_5  and  C5_6 
REMARK    4  A    between atoms: C5_6  and  C6_7 
REMARK    5  A    between atoms: C6_7  and  C7_8 
REMARK    6  A    between atoms: C7_8  and  O1_9 
REMARK    7  A    between atoms: O1_9  and  C8_10 
ROOT
HETATM    1  C8  UNL     1      25.291  -0.231  54.193  1.00  0.00     0.284 C 
HETATM    2  C9  UNL     1      24.940   0.246  52.862  1.00  0.00     0.031 C 
HETATM    3  C10 UNL     1      25.564   1.092  52.121  1.00  0.00    -0.003 C 
HETATM    4  C11 UNL     1      26.171   2.004  51.235  1.00  0.00     0.258 C 
HETATM    5  N1  UNL     1      27.250   2.518  51.833  1.00  0.00    -0.294 NA
HETATM    6  C12 UNL     1      27.591   2.105  53.131  1.00  0.00     0.193 C 
HETATM    7  N2  UNL     1      28.704   1.431  52.912  1.00  0.00    -0.152 NA
HETATM    8  N3  UNL     1      29.415   0.792  53.973  1.00  0.00    -0.164 NA
HETATM    9  C13 UNL     1      28.816   0.199  54.919  1.00  0.00     0.140 C 
HETATM   10  C14 UNL     1      27.322   0.102  55.031  1.00  0.00     0.220 C 
HETATM   11  O2  UNL     1      26.733  -0.628  54.081  1.00  0.00    -0.353 OA
ENDROOT
BRANCH   1  12
HETATM   12  O1  UNL     1      24.626  -1.237  54.719  1.00  0.00    -0.357 OA
BRANCH  12  13
HETATM   13  C7  UNL     1      23.552  -1.153  55.429  1.00  0.00     0.176 C 
BRANCH  13  14
HETATM   14  C6  UNL     1      22.201  -1.437  54.925  1.00  0.00     0.036 C 
BRANCH  14  15
HETATM   15  C5  UNL     1      21.608  -0.394  54.221  1.00  0.00    -0.027 C 
BRANCH  15  16
HETATM   16  C4  UNL     1      21.035   0.799  53.357  1.00  0.00     0.016 C 
BRANCH  16  17
HETATM   17  C3  UNL     1      20.439   0.342  52.193  1.00  0.00     0.022 C 
BRANCH  17  18
HETATM   18  C2  UNL     1      21.548   0.377  51.272  1.00  0.00     0.059 A 
HETATM   19  C1  UNL     1      21.031   1.641  50.900  1.00  0.00     0.125 A 
HETATM   20 CL1  UNL     1      22.374   1.376  50.137  1.00  0.00    -0.208 Cl
ENDBRANCH  17  18
ENDBRANCH  16  17
ENDBRANCH  15  16
ENDBRANCH  14  15
ENDBRANCH  13  14
ENDBRANCH  12  13
ENDBRANCH   1  12
TORSDOF 7
ENDMDL
MODEL 4
REMARK VINA RESULT:      -6.7      2.802      4.168
REMARK  7 active torsions:
REMARK  status: ('A' for Active; 'I' for Inactive)
REMARK    1  A    between atoms: C2_2  and  C3_4 
REMARK    2  A    between atoms: C3_4  and  C4_5 
REMARK    3  A    between atoms: C4_5  and  C5_6 
REMARK    4  A    between atoms: C5_6  and  C6_7 
REMARK    5  A    between atoms: C6_7  and  C7_8 
REMARK    6  A    between atoms: C7_8  and  O1_9 
REMARK    7  A    between atoms: O1_9  and  C8_10 
ROOT
HETATM    1  C8  UNL     1      26.554   1.921  51.614  1.00  0.00     0.284 C 
HETATM    2  C9  UNL     1      25.120   1.784  51.832  1.00  0.00     0.031 C 
HETATM    3  C10 UNL     1      24.497   0.935  52.571  1.00  0.00    -0.003 C 
HETATM    4  C11 UNL     1      23.723   0.052  53.351  1.00  0.00     0.258 C 
HETATM    5  N1  UNL     1      24.544  -0.826  53.935  1.00  0.00    -0.294 NA
HETATM    6  C12 UNL     1      25.928  -0.741  53.712  1.00  0.00     0.193 C 
HETATM    7  N2  UNL     1      26.365  -0.365  54.898  1.00  0.00    -0.152 NA
HETATM    8  N3  UNL     1      27.752  -0.127  55.146  1.00  0.00    -0.164 NA
HETATM    9  C13 UNL     1      28.497   0.442  54.292  1.00  0.00     0.140 C 
HETATM   10  C14 UNL     1      28.018   0.919  52.952  1.00  0.00     0.220 C 
HETATM   11  O2  UNL     1      27.144   1.927  52.993  1.00  0.00    -0.353 OA
ENDROOT
BRANCH   1  12
HETATM   12  O1  UNL     1      27.015   2.968  50.964  1.00  0.00    -0.357 OA
BRANCH  12  13
HETATM   13  C7  UNL     1      26.646   3.361  49.791  1.00  0.00     0.176 C 
BRANCH  13  14
HETATM   14  C6  UNL     1      25.826   4.554  49.537  1.00  0.00     0.036 C 
BRANCH  14  15
HETATM   15  C5  UNL     1      24.505   4.292  49.190  1.00  0.00    -0.027 C 
BRANCH  15  16
HETATM   16  C4  UNL     1      22.981   3.980  48.912  1.00  0.00     0.016 C 
BRANCH  16  17
HETATM   17  C3  UNL     1      22.809   2.705  48.398  1.00  0.00     0.022 C 
BRANCH  17  18
HETATM   18  C2  UNL     1      22.349   1.988  49.562  1.00  0.00     0.059 A 
HETATM   19  C1  UNL     1      21.585   1.237  48.637  1.00  0.00     0.125 A 
HETATM   20 CL1  UNL     1      21.410   0.638  50.074  1.00  0.00    -0.208 Cl
ENDBRANCH  17  18
ENDBRANCH  16  17
ENDBRANCH  15  16
ENDBRANCH  14  15
ENDBRANCH  13  14
ENDBRANCH  12  13
ENDBRANCH   1  12
TORSDOF 7
ENDMDL
MODEL 5
REMARK VINA RESULT:      -6.5      3.329      4.784
REMARK  7 active torsions:
REMARK  status: ('A' for Active; 'I' for Inactive)
REMARK    1  A    between atoms: C2_2  and  C3_4 
REMARK    2  A    between atoms: C3_4  and  C4_5 
REMARK    3  A    between atoms: C4_5  and  C5_6 
REMARK    4  A    between atoms: C5_6  and  C6_7 
REMARK    5  A    between atoms: C6_7  and  C7_8 
REMARK    6  A    between atoms: C7_8  and  O1_9 
REMARK    7  A    between atoms: O1_9  and  C8_10 
ROOT
HETATM    1  C8  UNL     1      25.761   1.006  52.337  1.00  0.00     0.284 C 
HETATM    2  C9  UNL     1      26.651   2.132  52.592  1.00  0.00     0.031 C 
HETATM    3  C10 UNL     1      27.728   2.163  53.294  1.00  0.00    -0.003 C 
HETATM    4  C11 UNL     1      28.917   2.300  54.037  1.00  0.00     0.258 C 
HETATM    5  N1  UNL     1      29.183   1.130  54.627  1.00  0.00    -0.294 NA
HETATM    6  C12 UNL     1      28.322   0.038  54.431  1.00  0.00     0.193 C 
HETATM    7  N2  UNL     1      29.078  -0.770  53.713  1.00  0.00    -0.152 NA
HETATM    8  N3  UNL     1      28.597  -2.032  53.248  1.00  0.00    -0.164 NA
HETATM    9  C13 UNL     1      27.411  -2.183  52.828  1.00  0.00     0.140 C 
HETATM   10  C14 UNL     1      26.397  -1.078  52.774  1.00  0.00     0.220 C 
HETATM   11  O2  UNL     1      26.674  -0.102  51.906  1.00  0.00    -0.353 OA
ENDROOT
BRANCH   1  12
HETATM   12  O1  UNL     1      24.804   1.124  51.443  1.00  0.00    -0.357 OA
BRANCH  12  13
HETATM   13  C7  UNL     1      23.851   1.994  51.455  1.00  0.00     0.176 C 
BRANCH  13  14
HETATM   14  C6  UNL     1      23.369   2.713  50.267  1.00  0.00     0.036 C 
BRANCH  14  15
HETATM   15  C5  UNL     1      24.270   3.626  49.731  1.00  0.00    -0.027 C 
BRANCH  15  16
HETATM   16  C4  UNL     1      25.366   4.572  49.096  1.00  0.00     0.016 C 
BRANCH  16  17
HETATM   17  C3  UNL     1      26.622   4.319  49.624  1.00  0.00     0.022 C 
BRANCH  17  18
HETATM   18  C2  UNL     1      27.475   4.911  48.624  1.00  0.00     0.059 A 
HETATM   19  C1  UNL     1      26.875   6.130  49.020  1.00  0.00     0.125 A 
HETATM   20 CL1  UNL     1      27.997   6.414  47.962  1.00  0.00    -0.208 Cl
ENDBRANCH  17  18
ENDBRANCH  16  17
ENDBRANCH  15  16
ENDBRANCH  14  15
ENDBRANCH  13  14
ENDBRANCH  12  13
ENDBRANCH   1  12
TORSDOF 7
ENDMDL
MODEL 6
REMARK VINA RESULT:      -6.4      5.024      7.015
REMARK  7 active torsions:
REMARK  status: ('A' for Active; 'I' for Inactive)
REMARK    1  A    between atoms: C2_2  and  C3_4 
REMARK    2  A    between atoms: C3_4  and  C4_5 
REMARK    3  A    between atoms: C4_5  and  C5_6 
REMARK    4  A    between atoms: C5_6  and  C6_7 
REMARK    5  A    between atoms: C6_7  and  C7_8 
REMARK    6  A    between atoms: C7_8  and  O1_9 
REMARK    7  A    between atoms: O1_9  and  C8_10 
ROOT
HETATM    1  C8  UNL     1      26.505   1.894  51.522  1.00  0.00     0.284 C 
HETATM    2  C9  UNL     1      25.075   1.786  51.783  1.00  0.00     0.031 C 
HETATM    3  C10 UNL     1      24.460   0.969  52.563  1.00  0.00    -0.003 C 
HETATM    4  C11 UNL     1      23.694   0.121  53.388  1.00  0.00     0.258 C 
HETATM    5  N1  UNL     1      24.517  -0.754  53.974  1.00  0.00    -0.294 NA
HETATM    6  C12 UNL     1      25.896  -0.698  53.711  1.00  0.00     0.193 C 
HETATM    7  N2  UNL     1      26.372  -0.296  54.874  1.00  0.00    -0.152 NA
HETATM    8  N3  UNL     1      27.768  -0.074  55.077  1.00  0.00    -0.164 NA
HETATM    9  C13 UNL     1      28.498   0.458  54.187  1.00  0.00     0.140 C 
HETATM   10  C14 UNL     1      27.989   0.905  52.847  1.00  0.00     0.220 C 
HETATM   11  O2  UNL     1      27.133   1.928  52.883  1.00  0.00    -0.353 OA
ENDROOT
BRANCH   1  12
HETATM   12  O1  UNL     1      26.964   2.914  50.830  1.00  0.00    -0.357 OA
BRANCH  12  13
HETATM   13  C7  UNL     1      26.610   3.246  49.634  1.00  0.00     0.176 C 
BRANCH  13  14
HETATM   14  C6  UNL     1      26.186   4.597  49.240  1.00  0.00     0.036 C 
BRANCH  14  15
HETATM   15  C5  UNL     1      27.201   5.407  48.745  1.00  0.00    -0.027 C 
BRANCH  15  16
HETATM   16  C4  UNL     1      28.379   6.243  48.102  1.00  0.00     0.016 C 
BRANCH  16  17
HETATM   17  C3  UNL     1      29.564   5.526  48.091  1.00  0.00     0.022 C 
BRANCH  17  18
HETATM   18  C2  UNL     1      30.500   6.515  48.567  1.00  0.00     0.059 A 
HETATM   19  C1  UNL     1      31.027   6.458  47.256  1.00  0.00     0.125 A 
HETATM   20 CL1  UNL     1      31.770   7.569  48.075  1.00  0.00    -0.208 Cl
ENDBRANCH  17  18
ENDBRANCH  16  17
ENDBRANCH  15  16
ENDBRANCH  14  15
ENDBRANCH  13  14
ENDBRANCH  12  13
ENDBRANCH   1  12
TORSDOF 7
ENDMDL
MODEL 7
REMARK VINA RESULT:      -6.2      4.717      6.533
REMARK  7 active torsions:
REMARK  status: ('A' for Active; 'I' for Inactive)
REMARK    1  A    between atoms: C2_2  and  C3_4 
REMARK    2  A    between atoms: C3_4  and  C4_5 
REMARK    3  A    between atoms: C4_5  and  C5_6 
REMARK    4  A    between atoms: C5_6  and  C6_7 
REMARK    5  A    between atoms: C6_7  and  C7_8 
REMARK    6  A    between atoms: C7_8  and  O1_9 
REMARK    7  A    between atoms: O1_9  and  C8_10 
ROOT
HETATM    1  C8  UNL     1      26.540   1.998  51.510  1.00  0.00     0.284 C 
HETATM    2  C9  UNL     1      25.112   1.967  51.795  1.00  0.00     0.031 C 
HETATM    3  C10 UNL     1      24.464   1.170  52.570  1.00  0.00    -0.003 C 
HETATM    4  C11 UNL     1      23.666   0.350  53.393  1.00  0.00     0.258 C 
HETATM    5  N1  UNL     1      24.448  -0.581  53.946  1.00  0.00    -0.294 NA
HETATM    6  C12 UNL     1      25.823  -0.599  53.659  1.00  0.00     0.193 C 
HETATM    7  N2  UNL     1      26.341  -0.249  54.820  1.00  0.00    -0.152 NA
HETATM    8  N3  UNL     1      27.751  -0.110  55.001  1.00  0.00    -0.164 NA
HETATM    9  C13 UNL     1      28.494   0.398  54.109  1.00  0.00     0.140 C 
HETATM   10  C14 UNL     1      27.989   0.900  52.787  1.00  0.00     0.220 C 
HETATM   11  O2  UNL     1      27.193   1.969  52.859  1.00  0.00    -0.353 OA
ENDROOT
BRANCH   1  12
HETATM   12  O1  UNL     1      27.045   3.005  50.829  1.00  0.00    -0.357 OA
BRANCH  12  13
HETATM   13  C7  UNL     1      26.622   3.445  49.692  1.00  0.00     0.176 C 
BRANCH  13  14
HETATM   14  C6  UNL     1      27.280   4.506  48.917  1.00  0.00     0.036 C 
BRANCH  14  15
HETATM   15  C5  UNL     1      26.494   5.627  48.674  1.00  0.00    -0.027 C 
BRANCH  15  16
HETATM   16  C4  UNL     1      25.504   6.828  48.397  1.00  0.00     0.016 C 
BRANCH  16  17
HETATM   17  C3  UNL     1      26.184   7.957  47.970  1.00  0.00     0.022 C 
BRANCH  17  18
HETATM   18  C2  UNL     1      27.041   8.217  49.100  1.00  0.00     0.059 A 
HETATM   19  C1  UNL     1      26.346   9.448  49.180  1.00  0.00     0.125 A 
HETATM   20 CL1  UNL     1      27.343   9.326  50.384  1.00  0.00    -0.208 Cl
ENDBRANCH  17  18
ENDBRANCH  16  17
ENDBRANCH  15  16
ENDBRANCH  14  15
ENDBRANCH  13  14
ENDBRANCH  12  13
ENDBRANCH   1  12
TORSDOF 7
ENDMDL
MODEL 8
REMARK VINA RESULT:      -6.2      2.942      4.750
REMARK  7 active torsions:
REMARK  status: ('A' for Active; 'I' for Inactive)
REMARK    1  A    between atoms: C2_2  and  C3_4 
REMARK    2  A    between atoms: C3_4  and  C4_5 
REMARK    3  A    between atoms: C4_5  and  C5_6 
REMARK    4  A    between atoms: C5_6  and  C6_7 
REMARK    5  A    between atoms: C6_7  and  C7_8 
REMARK    6  A    between atoms: C7_8  and  O1_9 
REMARK    7  A    between atoms: O1_9  and  C8_10 
ROOT
HETATM    1  C8  UNL     1      26.116   2.033  51.734  1.00  0.00     0.284 C 
HETATM    2  C9  UNL     1      24.858   1.460  52.196  1.00  0.00     0.031 C 
HETATM    3  C10 UNL     1      24.671   0.506  53.038  1.00  0.00    -0.003 C 
HETATM    4  C11 UNL     1      24.361  -0.526  53.946  1.00  0.00     0.258 C 
HETATM    5  N1  UNL     1      25.505  -1.059  54.387  1.00  0.00    -0.294 NA
HETATM    6  C12 UNL     1      26.732  -0.552  53.928  1.00  0.00     0.193 C 
HETATM    7  N2  UNL     1      27.208   0.017  55.019  1.00  0.00    -0.152 NA
HETATM    8  N3  UNL     1      28.463   0.700  55.023  1.00  0.00    -0.164 NA
HETATM    9  C13 UNL     1      28.836   1.421  54.049  1.00  0.00     0.140 C 
HETATM   10  C14 UNL     1      28.020   1.635  52.807  1.00  0.00     0.220 C 
HETATM   11  O2  UNL     1      26.885   2.313  52.990  1.00  0.00    -0.353 OA
ENDROOT
BRANCH   1  12
HETATM   12  O1  UNL     1      26.101   3.128  51.006  1.00  0.00    -0.357 OA
BRANCH  12  13
HETATM   13  C7  UNL     1      26.565   3.255  49.808  1.00  0.00     0.176 C 
BRANCH  13  14
HETATM   14  C6  UNL     1      26.707   4.538  49.106  1.00  0.00     0.036 C 
BRANCH  14  15
HETATM   15  C5  UNL     1      25.831   5.534  49.524  1.00  0.00    -0.027 C 
BRANCH  15  16
HETATM   16  C4  UNL     1      24.930   6.737  50.014  1.00  0.00     0.016 C 
BRANCH  16  17
HETATM   17  C3  UNL     1      24.294   6.441  51.209  1.00  0.00     0.022 C 
BRANCH  17  18
HETATM   18  C2  UNL     1      23.439   5.349  50.813  1.00  0.00     0.059 A 
HETATM   19  C1  UNL     1      23.398   5.051  52.196  1.00  0.00     0.125 A 
HETATM   20 CL1  UNL     1      22.444   4.080  51.420  1.00  0.00    -0.208 Cl
ENDBRANCH  17  18
ENDBRANCH  16  17
ENDBRANCH  15  16
ENDBRANCH  14  15
ENDBRANCH  13  14
ENDBRANCH  12  13
ENDBRANCH   1  12
TORSDOF 7
ENDMDL
MODEL 9
REMARK VINA RESULT:      -6.2      3.644      6.204
REMARK  7 active torsions:
REMARK  status: ('A' for Active; 'I' for Inactive)
REMARK    1  A    between atoms: C2_2  and  C3_4 
REMARK    2  A    between atoms: C3_4  and  C4_5 
REMARK    3  A    between atoms: C4_5  and  C5_6 
REMARK    4  A    between atoms: C5_6  and  C6_7 
REMARK    5  A    between atoms: C6_7  and  C7_8 
REMARK    6  A    between atoms: C7_8  and  O1_9 
REMARK    7  A    between atoms: O1_9  and  C8_10 
ROOT
HETATM    1  C8  UNL     1      23.809   1.094  52.805  1.00  0.00     0.284 C 
HETATM    2  C9  UNL     1      24.084  -0.117  53.567  1.00  0.00     0.031 C 
HETATM    3  C10 UNL     1      23.264  -0.855  54.227  1.00  0.00    -0.003 C 
HETATM    4  C11 UNL     1      22.447  -1.727  54.975  1.00  0.00     0.258 C 
HETATM    5  N1  UNL     1      21.200  -1.248  54.967  1.00  0.00    -0.294 NA
HETATM    6  C12 UNL     1      20.913  -0.061  54.272  1.00  0.00     0.193 C 
HETATM    7  N2  UNL     1      20.168  -0.509  53.279  1.00  0.00    -0.152 NA
HETATM    8  N3  UNL     1      19.650   0.367  52.277  1.00  0.00    -0.164 NA
HETATM    9  C13 UNL     1      20.332   1.328  51.810  1.00  0.00     0.140 C 
HETATM   10  C14 UNL     1      21.731   1.651  52.249  1.00  0.00     0.220 C 
HETATM   11  O2  UNL     1      22.646   0.731  51.932  1.00  0.00    -0.353 OA
ENDROOT
BRANCH   1  12
HETATM   12  O1  UNL     1      24.750   1.611  52.045  1.00  0.00    -0.357 OA
BRANCH  12  13
HETATM   13  C7  UNL     1      25.738   2.340  52.443  1.00  0.00     0.176 C 
BRANCH  13  14
HETATM   14  C6  UNL     1      27.135   2.140  52.032  1.00  0.00     0.036 C 
BRANCH  14  15
HETATM   15  C5  UNL     1      27.940   1.520  52.981  1.00  0.00    -0.027 C 
BRANCH  15  16
HETATM   16  C4  UNL     1      28.940   0.897  54.035  1.00  0.00     0.016 C 
BRANCH  16  17
HETATM   17  C3  UNL     1      29.308  -0.393  53.686  1.00  0.00     0.022 C 
BRANCH  17  18
HETATM   18  C2  UNL     1      28.078  -0.900  53.130  1.00  0.00     0.059 A 
HETATM   19  C1  UNL     1      28.749  -2.145  53.115  1.00  0.00     0.125 A 
HETATM   20 CL1  UNL     1      27.265  -2.341  52.653  1.00  0.00    -0.208 Cl
ENDBRANCH  17  18
ENDBRANCH  16  17
ENDBRANCH  15  16
ENDBRANCH  14  15
ENDBRANCH  13  14
ENDBRANCH  12  13
ENDBRANCH   1  12
TORSDOF 7
ENDMDL
