MODEL 1
REMARK VINA RESULT:      -7.8      0.000      0.000
REMARK  5 active torsions:
REMARK  status: ('A' for Active; 'I' for Inactive)
REMARK    1  A    between atoms: O1_2  and  C2_3 
REMARK    2  A    between atoms: C5_6  and  O2_7 
REMARK    3  A    between atoms: O2_7  and  C6_8 
REMARK    4  A    between atoms: C8_10  and  N1_11 
REMARK    5  A    between atoms: N1_11  and  C9_12 
ROOT
HETATM    1  C6  UNL     1      26.827   1.944  51.442  1.00  0.00     0.174 A 
HETATM    2  C7  UNL     1      25.987   0.935  51.849  1.00  0.00     0.108 A 
HETATM    3  C8  UNL     1      25.981   0.366  53.104  1.00  0.00     0.133 A 
HETATM    4  N2  UNL     1      26.898   0.906  53.916  1.00  0.00    -0.224 NA
HETATM    5  C15 UNL     1      27.738   1.888  53.571  1.00  0.00     0.238 A 
HETATM    6  N3  UNL     1      27.713   2.418  52.335  1.00  0.00    -0.217 NA
ENDROOT
BRANCH   1   7
HETATM    7  O2  UNL     1      26.758   2.447  50.171  1.00  0.00    -0.292 OA
BRANCH   7   8
HETATM    8  C5  UNL     1      26.479   3.741  49.836  1.00  0.00     0.078 A 
HETATM    9  C4  UNL     1      27.308   4.453  48.967  1.00  0.00     0.040 A 
HETATM   10  C3  UNL     1      27.018   5.763  48.633  1.00  0.00     0.039 A 
HETATM   11  C2  UNL     1      25.910   6.387  49.149  1.00  0.00     0.068 A 
HETATM   12  C17 UNL     1      25.082   5.698  50.008  1.00  0.00     0.039 A 
HETATM   13  C16 UNL     1      25.357   4.395  50.350  1.00  0.00     0.040 A 
BRANCH  11  14
HETATM   14  O1  UNL     1      25.496   7.689  48.904  1.00  0.00    -0.356 OA
HETATM   15  C1  UNL     1      24.614   8.395  49.754  1.00  0.00     0.210 C 
ENDBRANCH  11  14
ENDBRANCH   7   8
ENDBRANCH   1   7
BRANCH   3  16
HETATM   16  N1  UNL     1      25.074  -0.663  53.405  1.00  0.00    -0.341 N 
HETATM   17  H7  UNL     1      25.467  -1.634  53.500  1.00  0.00     0.167 HD
BRANCH  16  18
HETATM   18  C9  UNL     1      23.675  -0.557  53.600  1.00  0.00     0.034 A 
HETATM   19  C10 UNL     1      22.989  -0.937  54.731  1.00  0.00     0.029 A 
HETATM   20  C11 UNL     1      21.627  -0.832  54.914  1.00  0.00     0.004 A 
HETATM   21  C12 UNL     1      20.867  -0.303  53.893  1.00  0.00     0.019 A 
HETATM   22  C13 UNL     1      21.506   0.093  52.737  1.00  0.00     0.013 A 
HETATM   23 BR1  UNL     1      20.465   0.825  51.318  1.00  0.00    -0.051 Br
HETATM   24  C14 UNL     1      22.859  -0.038  52.616  1.00  0.00     0.048 A 
ENDBRANCH  16  18
ENDBRANCH   3  16
TORSDOF 5
ENDMDL
MODEL 2
REMARK VINA RESULT:      -7.8      2.803      7.264
REMARK  5 active torsions:
REMARK  status: ('A' for Active; 'I' for Inactive)
REMARK    1  A    between atoms: O1_2  and  C2_3 
REMARK    2  A    between atoms: C5_6  and  O2_7 
REMARK    3  A    between atoms: O2_7  and  C6_8 
REMARK    4  A    between atoms: C8_10  and  N1_11 
REMARK    5  A    between atoms: N1_11  and  C9_12 
ROOT
HETATM    1  C6  UNL     1      26.028   0.471  53.140  1.00  0.00     0.174 A 
HETATM    2  C7  UNL     1      25.917   1.053  51.900  1.00  0.00     0.108 A 
HETATM    3  C8  UNL     1      26.723   2.063  51.423  1.00  0.00     0.133 A 
HETATM    4  N2  UNL     1      27.656   2.436  52.308  1.00  0.00    -0.224 NA
HETATM    5  C15 UNL     1      27.808   1.903  53.526  1.00  0.00     0.238 A 
HETATM    6  N3  UNL     1      27.000   0.918  53.955  1.00  0.00    -0.217 NA
ENDROOT
BRANCH   1   7
HETATM    7  O2  UNL     1      25.178  -0.529  53.527  1.00  0.00    -0.292 OA
BRANCH   7   8
HETATM    8  C5  UNL     1      23.821  -0.427  53.643  1.00  0.00     0.078 A 
HETATM    9  C4  UNL     1      23.140  -1.050  54.689  1.00  0.00     0.040 A 
HETATM   10  C3  UNL     1      21.766  -0.942  54.799  1.00  0.00     0.039 A 
HETATM   11  C2  UNL     1      21.047  -0.218  53.881  1.00  0.00     0.068 A 
HETATM   12  C17 UNL     1      21.704   0.404  52.842  1.00  0.00     0.039 A 
HETATM   13  C16 UNL     1      23.070   0.305  52.719  1.00  0.00     0.040 A 
BRANCH  11  14
HETATM   14  O1  UNL     1      19.673  -0.023  53.864  1.00  0.00    -0.356 OA
HETATM   15  C1  UNL     1      18.776  -0.880  53.185  1.00  0.00     0.210 C 
ENDBRANCH  11  14
ENDBRANCH   7   8
ENDBRANCH   1   7
BRANCH   3  16
HETATM   16  N1  UNL     1      26.513   2.581  50.134  1.00  0.00    -0.341 N 
HETATM   17  H7  UNL     1      26.348   1.887  49.362  1.00  0.00     0.167 HD
BRANCH  16  18
HETATM   18  C9  UNL     1      26.495   3.941  49.738  1.00  0.00     0.034 A 
HETATM   19  C10 UNL     1      27.374   4.536  48.862  1.00  0.00     0.029 A 
HETATM   20  C11 UNL     1      27.351   5.860  48.481  1.00  0.00     0.004 A 
HETATM   21  C12 UNL     1      26.374   6.677  49.007  1.00  0.00     0.019 A 
HETATM   22  C13 UNL     1      25.467   6.130  49.890  1.00  0.00     0.013 A 
HETATM   23 BR1  UNL     1      24.110   7.250  50.625  1.00  0.00    -0.051 Br
HETATM   24  C14 UNL     1      25.543   4.810  50.230  1.00  0.00     0.048 A 
ENDBRANCH  16  18
ENDBRANCH   3  16
TORSDOF 5
ENDMDL
MODEL 3
REMARK VINA RESULT:      -7.7      4.001      7.950
REMARK  5 active torsions:
REMARK  status: ('A' for Active; 'I' for Inactive)
REMARK    1  A    between atoms: O1_2  and  C2_3 
REMARK    2  A    between atoms: C5_6  and  O2_7 
REMARK    3  A    between atoms: O2_7  and  C6_8 
REMARK    4  A    between atoms: C8_10  and  N1_11 
REMARK    5  A    between atoms: N1_11  and  C9_12 
ROOT
HETATM    1  C6  UNL     1      24.125   3.148  52.322  1.00  0.00     0.174 A 
HETATM    2  C7  UNL     1      24.752   3.298  51.108  1.00  0.00     0.108 A 
HETATM    3  C8  UNL     1      24.779   4.459  50.367  1.00  0.00     0.133 A 
HETATM    4  N2  UNL     1      24.117   5.461  50.958  1.00  0.00    -0.224 NA
HETATM    5  C15 UNL     1      23.491   5.369  52.137  1.00  0.00     0.238 A 
HETATM    6  N3  UNL     1      23.488   4.217  52.831  1.00  0.00    -0.217 NA
ENDROOT
BRANCH   1   7
HETATM    7  O2  UNL     1      24.154   1.952  52.985  1.00  0.00    -0.292 OA
BRANCH   7   8
HETATM    8  C5  UNL     1      25.264   1.192  53.219  1.00  0.00     0.078 A 
HETATM    9  C4  UNL     1      26.330   1.688  53.971  1.00  0.00     0.040 A 
HETATM   10  C3  UNL     1      27.450   0.912  54.203  1.00  0.00     0.039 A 
HETATM   11  C2  UNL     1      27.534  -0.361  53.698  1.00  0.00     0.068 A 
HETATM   12  C17 UNL     1      26.491  -0.867  52.955  1.00  0.00     0.039 A 
HETATM   13  C16 UNL     1      25.370  -0.107  52.715  1.00  0.00     0.040 A 
BRANCH  11  14
HETATM   14  O1  UNL     1      28.590  -1.250  53.849  1.00  0.00    -0.356 OA
HETATM   15  C1  UNL     1      29.939  -0.898  53.614  1.00  0.00     0.210 C 
ENDBRANCH  11  14
ENDBRANCH   7   8
ENDBRANCH   1   7
BRANCH   3  16
HETATM   16  N1  UNL     1      25.454   4.492  49.135  1.00  0.00    -0.341 N 
HETATM   17  H7  UNL     1      25.085   3.870  48.372  1.00  0.00     0.167 HD
BRANCH  16  18
HETATM   18  C9  UNL     1      26.585   5.270  48.786  1.00  0.00     0.034 A 
HETATM   19  C10 UNL     1      27.864   4.795  48.609  1.00  0.00     0.029 A 
HETATM   20  C11 UNL     1      28.961   5.558  48.270  1.00  0.00     0.004 A 
HETATM   21  C12 UNL     1      28.786   6.913  48.085  1.00  0.00     0.019 A 
HETATM   22  C13 UNL     1      27.523   7.439  48.250  1.00  0.00     0.013 A 
HETATM   23 BR1  UNL     1      27.268   9.311  47.998  1.00  0.00    -0.051 Br
HETATM   24  C14 UNL     1      26.475   6.631  48.588  1.00  0.00     0.048 A 
ENDBRANCH  16  18
ENDBRANCH   3  16
TORSDOF 5
ENDMDL
MODEL 4
REMARK VINA RESULT:      -7.7      1.970      2.172
REMARK  5 active torsions:
REMARK  status: ('A' for Active; 'I' for Inactive)
REMARK    1  A    between atoms: O1_2  and  C2_3 
REMARK    2  A    between atoms: C5_6  and  O2_7 
REMARK    3  A    between atoms: O2_7  and  C6_8 
REMARK    4  A    between atoms: C8_10  and  N1_11 
REMARK    5  A    between atoms: N1_11  and  C9_12 
ROOT
HETATM    1  C6  UNL     1      27.561   1.550  52.815  1.00  0.00     0.174 A 
HETATM    2  C7  UNL     1      26.568   0.650  53.119  1.00  0.00     0.108 A 
HETATM    3  C8  UNL     1      26.597  -0.237  54.174  1.00  0.00     0.133 A 
HETATM    4  N2  UNL     1      27.718  -0.136  54.898  1.00  0.00    -0.224 NA
HETATM    5  C15 UNL     1      28.714   0.722  54.646  1.00  0.00     0.238 A 
HETATM    6  N3  UNL     1      28.648   1.572  53.606  1.00  0.00    -0.217 NA
ENDROOT
BRANCH   1   7
HETATM    7  O2  UNL     1      27.443   2.393  51.743  1.00  0.00    -0.292 OA
BRANCH   7   8
HETATM    8  C5  UNL     1      26.273   2.876  51.230  1.00  0.00     0.078 A 
HETATM    9  C4  UNL     1      26.125   3.096  49.860  1.00  0.00     0.040 A 
HETATM   10  C3  UNL     1      24.937   3.585  49.349  1.00  0.00     0.039 A 
HETATM   11  C2  UNL     1      23.882   3.864  50.181  1.00  0.00     0.068 A 
HETATM   12  C17 UNL     1      24.010   3.652  51.535  1.00  0.00     0.039 A 
HETATM   13  C16 UNL     1      25.185   3.166  52.059  1.00  0.00     0.040 A 
BRANCH  11  14
HETATM   14  O1  UNL     1      22.637   4.357  49.812  1.00  0.00    -0.356 OA
HETATM   15  C1  UNL     1      21.632   4.702  50.744  1.00  0.00     0.210 C 
ENDBRANCH  11  14
ENDBRANCH   7   8
ENDBRANCH   1   7
BRANCH   3  16
HETATM   16  N1  UNL     1      25.520  -1.113  54.386  1.00  0.00    -0.341 N 
HETATM   17  H7  UNL     1      25.752  -2.085  54.711  1.00  0.00     0.167 HD
BRANCH  16  18
HETATM   18  C9  UNL     1      24.139  -0.847  54.215  1.00  0.00     0.034 A 
HETATM   19  C10 UNL     1      23.149  -1.111  55.134  1.00  0.00     0.029 A 
HETATM   20  C11 UNL     1      21.807  -0.850  54.961  1.00  0.00     0.004 A 
HETATM   21  C12 UNL     1      21.397  -0.277  53.776  1.00  0.00     0.019 A 
HETATM   22  C13 UNL     1      22.350   0.006  52.821  1.00  0.00     0.013 A 
HETATM   23 BR1  UNL     1      21.796   0.799  51.179  1.00  0.00    -0.051 Br
HETATM   24  C14 UNL     1      23.666  -0.276  53.052  1.00  0.00     0.048 A 
ENDBRANCH  16  18
ENDBRANCH   3  16
TORSDOF 5
ENDMDL
MODEL 5
REMARK VINA RESULT:      -7.6      3.180      6.284
REMARK  5 active torsions:
REMARK  status: ('A' for Active; 'I' for Inactive)
REMARK    1  A    between atoms: O1_2  and  C2_3 
REMARK    2  A    between atoms: C5_6  and  O2_7 
REMARK    3  A    between atoms: O2_7  and  C6_8 
REMARK    4  A    between atoms: C8_10  and  N1_11 
REMARK    5  A    between atoms: N1_11  and  C9_12 
ROOT
HETATM    1  C6  UNL     1      26.494  -0.143  54.218  1.00  0.00     0.174 A 
HETATM    2  C7  UNL     1      26.355   0.904  53.339  1.00  0.00     0.108 A 
HETATM    3  C8  UNL     1      27.329   1.836  53.055  1.00  0.00     0.133 A 
HETATM    4  N2  UNL     1      28.460   1.621  53.739  1.00  0.00    -0.224 NA
HETATM    5  C15 UNL     1      28.647   0.618  54.605  1.00  0.00     0.238 A 
HETATM    6  N3  UNL     1      27.671  -0.272  54.855  1.00  0.00    -0.217 NA
ENDROOT
BRANCH   1   7
HETATM    7  O2  UNL     1      25.467  -1.021  54.435  1.00  0.00    -0.292 OA
BRANCH   7   8
HETATM    8  C5  UNL     1      24.141  -0.770  54.225  1.00  0.00     0.078 A 
HETATM    9  C4  UNL     1      23.700  -0.175  53.042  1.00  0.00     0.040 A 
HETATM   10  C3  UNL     1      22.355   0.076  52.838  1.00  0.00     0.039 A 
HETATM   11  C2  UNL     1      21.430  -0.256  53.796  1.00  0.00     0.068 A 
HETATM   12  C17 UNL     1      21.848  -0.844  54.969  1.00  0.00     0.039 A 
HETATM   13  C16 UNL     1      23.182  -1.099  55.186  1.00  0.00     0.040 A 
BRANCH  11  14
HETATM   14  O1  UNL     1      20.057  -0.065  53.729  1.00  0.00    -0.356 OA
HETATM   15  C1  UNL     1      19.328  -0.085  52.517  1.00  0.00     0.210 C 
ENDBRANCH  11  14
ENDBRANCH   7   8
ENDBRANCH   1   7
BRANCH   3  16
HETATM   16  N1  UNL     1      27.071   2.866  52.135  1.00  0.00    -0.341 N 
HETATM   17  H7  UNL     1      27.826   3.586  52.001  1.00  0.00     0.167 HD
BRANCH  16  18
HETATM   18  C9  UNL     1      25.906   3.059  51.354  1.00  0.00     0.034 A 
HETATM   19  C10 UNL     1      25.848   3.043  49.979  1.00  0.00     0.029 A 
HETATM   20  C11 UNL     1      24.711   3.233  49.224  1.00  0.00     0.004 A 
HETATM   21  C12 UNL     1      23.519   3.458  49.879  1.00  0.00     0.019 A 
HETATM   22  C13 UNL     1      23.522   3.484  51.257  1.00  0.00     0.013 A 
HETATM   23 BR1  UNL     1      21.880   3.795  52.174  1.00  0.00    -0.051 Br
HETATM   24  C14 UNL     1      24.683   3.290  51.949  1.00  0.00     0.048 A 
ENDBRANCH  16  18
ENDBRANCH   3  16
TORSDOF 5
ENDMDL
MODEL 6
REMARK VINA RESULT:      -7.5      3.432      4.868
REMARK  5 active torsions:
REMARK  status: ('A' for Active; 'I' for Inactive)
REMARK    1  A    between atoms: O1_2  and  C2_3 
REMARK    2  A    between atoms: C5_6  and  O2_7 
REMARK    3  A    between atoms: O2_7  and  C6_8 
REMARK    4  A    between atoms: C8_10  and  N1_11 
REMARK    5  A    between atoms: N1_11  and  C9_12 
ROOT
HETATM    1  C6  UNL     1      24.826   4.508  50.292  1.00  0.00     0.174 A 
HETATM    2  C7  UNL     1      25.295   3.300  50.750  1.00  0.00     0.108 A 
HETATM    3  C8  UNL     1      24.949   2.719  51.951  1.00  0.00     0.133 A 
HETATM    4  N2  UNL     1      24.086   3.465  52.651  1.00  0.00    -0.224 NA
HETATM    5  C15 UNL     1      23.599   4.645  52.252  1.00  0.00     0.238 A 
HETATM    6  N3  UNL     1      23.961   5.179  51.072  1.00  0.00    -0.217 NA
ENDROOT
BRANCH   1   7
HETATM    7  O2  UNL     1      25.228   5.005  49.082  1.00  0.00    -0.292 OA
BRANCH   7   8
HETATM    8  C5  UNL     1      26.428   5.603  48.820  1.00  0.00     0.078 A 
HETATM    9  C4  UNL     1      27.582   4.844  48.624  1.00  0.00     0.040 A 
HETATM   10  C3  UNL     1      28.793   5.458  48.360  1.00  0.00     0.039 A 
HETATM   11  C2  UNL     1      28.880   6.826  48.285  1.00  0.00     0.068 A 
HETATM   12  C17 UNL     1      27.751   7.590  48.477  1.00  0.00     0.039 A 
HETATM   13  C16 UNL     1      26.540   6.994  48.740  1.00  0.00     0.040 A 
BRANCH  11  14
HETATM   14  O1  UNL     1      30.021   7.575  48.030  1.00  0.00    -0.356 OA
HETATM   15  C1  UNL     1      29.985   8.885  47.499  1.00  0.00     0.210 C 
ENDBRANCH  11  14
ENDBRANCH   7   8
ENDBRANCH   1   7
BRANCH   3  16
HETATM   16  N1  UNL     1      25.495   1.477  52.314  1.00  0.00    -0.341 N 
HETATM   17  H7  UNL     1      24.882   0.632  52.190  1.00  0.00     0.167 HD
BRANCH  16  18
HETATM   18  C9  UNL     1      26.786   1.215  52.834  1.00  0.00     0.034 A 
HETATM   19  C10 UNL     1      27.633   2.146  53.390  1.00  0.00     0.029 A 
HETATM   20  C11 UNL     1      28.889   1.884  53.894  1.00  0.00     0.004 A 
HETATM   21  C12 UNL     1      29.357   0.588  53.850  1.00  0.00     0.019 A 
HETATM   22  C13 UNL     1      28.547  -0.383  53.302  1.00  0.00     0.013 A 
HETATM   23 BR1  UNL     1      29.182  -2.179  53.234  1.00  0.00    -0.051 Br
HETATM   24  C14 UNL     1      27.311  -0.061  52.818  1.00  0.00     0.048 A 
ENDBRANCH  16  18
ENDBRANCH   3  16
TORSDOF 5
ENDMDL
MODEL 7
REMARK VINA RESULT:      -7.2      4.201      6.108
REMARK  5 active torsions:
REMARK  status: ('A' for Active; 'I' for Inactive)
REMARK    1  A    between atoms: O1_2  and  C2_3 
REMARK    2  A    between atoms: C5_6  and  O2_7 
REMARK    3  A    between atoms: O2_7  and  C6_8 
REMARK    4  A    between atoms: C8_10  and  N1_11 
REMARK    5  A    between atoms: N1_11  and  C9_12 
ROOT
HETATM    1  C6  UNL     1      27.688   6.169  48.429  1.00  0.00     0.174 A 
HETATM    2  C7  UNL     1      27.291   4.892  48.746  1.00  0.00     0.108 A 
HETATM    3  C8  UNL     1      26.209   4.570  49.536  1.00  0.00     0.133 A 
HETATM    4  N2  UNL     1      25.558   5.653  49.980  1.00  0.00    -0.224 NA
HETATM    5  C15 UNL     1      25.902   6.916  49.702  1.00  0.00     0.238 A 
HETATM    6  N3  UNL     1      26.966   7.189  48.926  1.00  0.00    -0.217 NA
ENDROOT
BRANCH   1   7
HETATM    7  O2  UNL     1      28.780   6.389  47.635  1.00  0.00    -0.292 OA
BRANCH   7   8
HETATM    8  C5  UNL     1      30.085   6.271  48.017  1.00  0.00     0.078 A 
HETATM    9  C4  UNL     1      30.722   7.289  48.728  1.00  0.00     0.040 A 
HETATM   10  C3  UNL     1      32.045   7.161  49.110  1.00  0.00     0.039 A 
HETATM   11  C2  UNL     1      32.755   6.028  48.798  1.00  0.00     0.068 A 
HETATM   12  C17 UNL     1      32.142   5.014  48.097  1.00  0.00     0.039 A 
HETATM   13  C16 UNL     1      30.827   5.127  47.710  1.00  0.00     0.040 A 
BRANCH  11  14
HETATM   14  O1  UNL     1      34.080   5.762  49.115  1.00  0.00    -0.356 OA
HETATM   15  C1  UNL     1      35.031   5.321  48.165  1.00  0.00     0.210 C 
ENDBRANCH  11  14
ENDBRANCH   7   8
ENDBRANCH   1   7
BRANCH   3  16
HETATM   16  N1  UNL     1      25.899   3.224  49.791  1.00  0.00    -0.341 N 
HETATM   17  H7  UNL     1      25.762   2.599  48.957  1.00  0.00     0.167 HD
BRANCH  16  18
HETATM   18  C9  UNL     1      25.747   2.593  51.050  1.00  0.00     0.034 A 
HETATM   19  C10 UNL     1      24.789   2.895  51.991  1.00  0.00     0.029 A 
HETATM   20  C11 UNL     1      24.647   2.276  53.214  1.00  0.00     0.004 A 
HETATM   21  C12 UNL     1      25.525   1.266  53.545  1.00  0.00     0.019 A 
HETATM   22  C13 UNL     1      26.503   0.924  52.636  1.00  0.00     0.013 A 
HETATM   23 BR1  UNL     1      27.723  -0.471  53.082  1.00  0.00    -0.051 Br
HETATM   24  C14 UNL     1      26.594   1.576  51.439  1.00  0.00     0.048 A 
ENDBRANCH  16  18
ENDBRANCH   3  16
TORSDOF 5
ENDMDL
MODEL 8
REMARK VINA RESULT:      -7.2      4.418      6.681
REMARK  5 active torsions:
REMARK  status: ('A' for Active; 'I' for Inactive)
REMARK    1  A    between atoms: O1_2  and  C2_3 
REMARK    2  A    between atoms: C5_6  and  O2_7 
REMARK    3  A    between atoms: O2_7  and  C6_8 
REMARK    4  A    between atoms: C8_10  and  N1_11 
REMARK    5  A    between atoms: N1_11  and  C9_12 
ROOT
HETATM    1  C6  UNL     1      22.063   0.946  52.477  1.00  0.00     0.174 A 
HETATM    2  C7  UNL     1      20.990   0.502  53.213  1.00  0.00     0.108 A 
HETATM    3  C8  UNL     1      19.795   0.061  52.687  1.00  0.00     0.133 A 
HETATM    4  N2  UNL     1      19.776   0.106  51.349  1.00  0.00    -0.224 NA
HETATM    5  C15 UNL     1      20.791   0.528  50.586  1.00  0.00     0.238 A 
HETATM    6  N3  UNL     1      21.942   0.951  51.138  1.00  0.00    -0.217 NA
ENDROOT
BRANCH   1   7
HETATM    7  O2  UNL     1      23.211   1.366  53.091  1.00  0.00    -0.292 OA
BRANCH   7   8
HETATM    8  C5  UNL     1      24.428   0.751  53.019  1.00  0.00     0.078 A 
HETATM    9  C4  UNL     1      25.396   1.174  52.107  1.00  0.00     0.040 A 
HETATM   10  C3  UNL     1      26.625   0.545  52.040  1.00  0.00     0.039 A 
HETATM   11  C2  UNL     1      26.917  -0.507  52.872  1.00  0.00     0.068 A 
HETATM   12  C17 UNL     1      25.974  -0.937  53.779  1.00  0.00     0.039 A 
HETATM   13  C16 UNL     1      24.747  -0.322  53.857  1.00  0.00     0.040 A 
BRANCH  11  14
HETATM   14  O1  UNL     1      28.102  -1.229  52.918  1.00  0.00    -0.356 OA
HETATM   15  C1  UNL     1      29.214  -0.846  53.703  1.00  0.00     0.210 C 
ENDBRANCH  11  14
ENDBRANCH   7   8
ENDBRANCH   1   7
BRANCH   3  16
HETATM   16  N1  UNL     1      18.767  -0.370  53.541  1.00  0.00    -0.341 N 
HETATM   17  H7  UNL     1      18.624   0.176  54.429  1.00  0.00     0.167 HD
BRANCH  16  18
HETATM   18  C9  UNL     1      17.886  -1.463  53.356  1.00  0.00     0.034 A 
HETATM   19  C10 UNL     1      18.091  -2.747  53.806  1.00  0.00     0.029 A 
HETATM   20  C11 UNL     1      17.229  -3.806  53.621  1.00  0.00     0.004 A 
HETATM   21  C12 UNL     1      16.055  -3.586  52.932  1.00  0.00     0.019 A 
HETATM   22  C13 UNL     1      15.802  -2.316  52.460  1.00  0.00     0.013 A 
HETATM   23 BR1  UNL     1      14.183  -1.997  51.506  1.00  0.00    -0.051 Br
HETATM   24  C14 UNL     1      16.696  -1.306  52.675  1.00  0.00     0.048 A 
ENDBRANCH  16  18
ENDBRANCH   3  16
TORSDOF 5
ENDMDL
MODEL 9
REMARK VINA RESULT:      -7.2      2.841      4.356
REMARK  5 active torsions:
REMARK  status: ('A' for Active; 'I' for Inactive)
REMARK    1  A    between atoms: O1_2  and  C2_3 
REMARK    2  A    between atoms: C5_6  and  O2_7 
REMARK    3  A    between atoms: O2_7  and  C6_8 
REMARK    4  A    between atoms: C8_10  and  N1_11 
REMARK    5  A    between atoms: N1_11  and  C9_12 
ROOT
HETATM    1  C6  UNL     1      24.993   5.591  49.649  1.00  0.00     0.174 A 
HETATM    2  C7  UNL     1      24.711   4.251  49.759  1.00  0.00     0.108 A 
HETATM    3  C8  UNL     1      24.046   3.664  50.813  1.00  0.00     0.133 A 
HETATM    4  N2  UNL     1      23.688   4.550  51.751  1.00  0.00    -0.224 NA
HETATM    5  C15 UNL     1      23.937   5.863  51.693  1.00  0.00     0.238 A 
HETATM    6  N3  UNL     1      24.589   6.398  50.646  1.00  0.00    -0.217 NA
ENDROOT
BRANCH   1   7
HETATM    7  O2  UNL     1      25.660   6.083  48.560  1.00  0.00    -0.292 OA
BRANCH   7   8
HETATM    8  C5  UNL     1      27.001   6.327  48.486  1.00  0.00     0.078 A 
HETATM    9  C4  UNL     1      27.496   7.632  48.494  1.00  0.00     0.040 A 
HETATM   10  C3  UNL     1      28.856   7.871  48.419  1.00  0.00     0.039 A 
HETATM   11  C2  UNL     1      29.744   6.828  48.335  1.00  0.00     0.068 A 
HETATM   12  C17 UNL     1      29.273   5.534  48.325  1.00  0.00     0.039 A 
HETATM   13  C16 UNL     1      27.923   5.281  48.400  1.00  0.00     0.040 A 
BRANCH  11  14
HETATM   14  O1  UNL     1      31.127   6.916  48.253  1.00  0.00    -0.356 OA
HETATM   15  C1  UNL     1      31.886   6.283  47.242  1.00  0.00     0.210 C 
ENDBRANCH  11  14
ENDBRANCH   7   8
ENDBRANCH   1   7
BRANCH   3  16
HETATM   16  N1  UNL     1      23.814   2.278  50.816  1.00  0.00    -0.341 N 
HETATM   17  H7  UNL     1      23.298   1.879  49.991  1.00  0.00     0.167 HD
BRANCH  16  18
HETATM   18  C9  UNL     1      24.195   1.337  51.803  1.00  0.00     0.034 A 
HETATM   19  C10 UNL     1      25.481   0.927  52.071  1.00  0.00     0.029 A 
HETATM   20  C11 UNL     1      25.845   0.010  53.033  1.00  0.00     0.004 A 
HETATM   21  C12 UNL     1      24.855  -0.558  53.805  1.00  0.00     0.019 A 
HETATM   22  C13 UNL     1      23.548  -0.182  53.577  1.00  0.00     0.013 A 
HETATM   23 BR1  UNL     1      22.170  -0.960  54.639  1.00  0.00    -0.051 Br
HETATM   24  C14 UNL     1      23.251   0.733  52.607  1.00  0.00     0.048 A 
ENDBRANCH  16  18
ENDBRANCH   3  16
TORSDOF 5
ENDMDL
