MODEL 1
REMARK VINA RESULT:      -6.8      0.000      0.000
REMARK  3 active torsions:
REMARK  status: ('A' for Active; 'I' for Inactive)
REMARK    1  A    between atoms: N1_1  and  C1_2 
REMARK    2  A    between atoms: C13_19  and  C14_20 
REMARK    3  A    between atoms: C14_20  and  N6_21 
ROOT
HETATM    1  C1  UNL     1      33.499   5.584  48.041  1.00  0.00     0.194 A 
HETATM    2  N2  UNL     1      32.636   5.604  47.012  1.00  0.00    -0.053 N 
HETATM    3  C2  UNL     1      32.843   4.779  45.863  1.00  0.00     0.645 C 
HETATM    4  C3  UNL     1      33.073   4.667  44.520  1.00  0.00     0.127 C 
HETATM    5  N3  UNL     1      33.166   5.910  43.851  1.00  0.00    -0.277 NA
HETATM    6  C4  UNL     1      32.702   6.272  42.728  1.00  0.00     0.108 C 
HETATM    7  C5  UNL     1      33.067   7.726  42.463  1.00  0.00     0.171 C 
HETATM    8  N4  UNL     1      32.567   8.360  43.714  1.00  0.00    -0.338 N 
HETATM    9  C6  UNL     1      32.570   9.777  44.005  1.00  0.00     0.318 C 
HETATM   10  O1  UNL     1      32.992  10.659  43.251  1.00  0.00    -0.247 OA
HETATM   11  N5  UNL     1      32.215  10.721  44.993  1.00  0.00    -0.334 N 
HETATM   12  C7  UNL     1      33.062  11.321  46.063  1.00  0.00     0.128 C 
HETATM   13  C8  UNL     1      32.466  10.977  47.440  1.00  0.00     0.024 C 
HETATM   14  C9  UNL     1      31.362   9.935  47.141  1.00  0.00    -0.011 C 
HETATM   15  C10 UNL     1      30.281  10.723  46.521  1.00  0.00     0.024 C 
HETATM   16  C11 UNL     1      30.907  11.376  45.257  1.00  0.00     0.128 C 
HETATM   17  C12 UNL     1      31.137   9.015  48.261  1.00  0.00     0.019 C 
HETATM   18  C13 UNL     1      31.565   7.643  47.694  1.00  0.00     0.023 C 
HETATM   19  C20 UNL     1      32.528   6.716  47.939  1.00  0.00     0.265 A 
HETATM   20  H8  UNL     1      32.181   7.743  44.488  1.00  0.00     0.164 HD
ENDROOT
BRANCH  18  21
HETATM   21  C14 UNL     1      30.429   7.370  46.730  1.00  0.00     0.135 C 
BRANCH  21  22
HETATM   22  N6  UNL     1      29.378   6.618  47.426  1.00  0.00    -0.386 N 
HETATM   23  C15 UNL     1      28.190   7.451  47.345  1.00  0.00     0.086 A 
HETATM   24  C16 UNL     1      26.946   7.286  47.833  1.00  0.00     0.017 A 
HETATM   25  C17 UNL     1      26.714   6.059  48.582  1.00  0.00    -0.001 A 
HETATM   26  C18 UNL     1      27.773   5.282  48.666  1.00  0.00    -0.007 A 
HETATM   27  C19 UNL     1      29.162   5.387  48.156  1.00  0.00     0.149 A 
ENDBRANCH  21  22
ENDBRANCH  18  21
BRANCH   1  28
HETATM   28  N1  UNL     1      34.441   5.495  49.047  1.00  0.00    -0.382 N 
HETATM   29  H1  UNL     1      34.989   6.397  48.958  1.00  0.00     0.157 HD
HETATM   30  H2  UNL     1      34.349   4.606  49.579  1.00  0.00     0.157 HD
ENDBRANCH   1  28
TORSDOF 3
ENDMDL
MODEL 2
REMARK VINA RESULT:      -6.4      1.827      2.497
REMARK  3 active torsions:
REMARK  status: ('A' for Active; 'I' for Inactive)
REMARK    1  A    between atoms: N1_1  and  C1_2 
REMARK    2  A    between atoms: C13_19  and  C14_20 
REMARK    3  A    between atoms: C14_20  and  N6_21 
ROOT
HETATM    1  C1  UNL     1      33.449   7.024  47.196  1.00  0.00     0.194 A 
HETATM    2  N2  UNL     1      32.393   7.154  46.377  1.00  0.00    -0.053 N 
HETATM    3  C2  UNL     1      32.546   7.060  44.959  1.00  0.00     0.645 C 
HETATM    4  C3  UNL     1      32.458   7.640  43.723  1.00  0.00     0.127 C 
HETATM    5  N3  UNL     1      32.002   8.979  43.753  1.00  0.00    -0.277 NA
HETATM    6  C4  UNL     1      31.185   9.583  42.993  1.00  0.00     0.108 C 
HETATM    7  C5  UNL     1      31.016  11.023  43.458  1.00  0.00     0.171 C 
HETATM    8  N4  UNL     1      30.676  10.804  44.891  1.00  0.00    -0.338 N 
HETATM    9  C6  UNL     1      30.323  11.833  45.843  1.00  0.00     0.318 C 
HETATM   10  O1  UNL     1      30.257  13.041  45.596  1.00  0.00    -0.247 OA
HETATM   11  N5  UNL     1      29.957  12.037  47.192  1.00  0.00    -0.334 N 
HETATM   12  C7  UNL     1      30.821  12.387  48.354  1.00  0.00     0.128 C 
HETATM   13  C8  UNL     1      30.719  11.280  49.419  1.00  0.00     0.024 C 
HETATM   14  C9  UNL     1      29.944  10.136  48.723  1.00  0.00    -0.011 C 
HETATM   15  C10 UNL     1      28.557  10.631  48.654  1.00  0.00     0.024 C 
HETATM   16  C11 UNL     1      28.621  11.953  47.838  1.00  0.00     0.128 C 
HETATM   17  C12 UNL     1      30.293   8.814  49.254  1.00  0.00     0.019 C 
HETATM   18  C13 UNL     1      30.960   8.107  48.054  1.00  0.00     0.023 C 
HETATM   19  C20 UNL     1      32.188   7.616  47.738  1.00  0.00     0.265 A 
HETATM   20  H8  UNL     1      30.699   9.817  45.282  1.00  0.00     0.164 HD
ENDROOT
BRANCH  18  21
HETATM   21  C14 UNL     1      29.758   7.865  47.164  1.00  0.00     0.135 C 
BRANCH  21  22
HETATM   22  N6  UNL     1      28.970   6.755  47.712  1.00  0.00    -0.386 N 
HETATM   23  C15 UNL     1      27.618   7.271  47.844  1.00  0.00     0.086 A 
HETATM   24  C16 UNL     1      26.489   6.712  48.320  1.00  0.00     0.017 A 
HETATM   25  C17 UNL     1      26.610   5.340  48.796  1.00  0.00    -0.001 A 
HETATM   26  C18 UNL     1      27.825   4.846  48.682  1.00  0.00    -0.007 A 
HETATM   27  C19 UNL     1      29.106   5.388  48.168  1.00  0.00     0.149 A 
ENDBRANCH  21  22
ENDBRANCH  18  21
BRANCH   1  28
HETATM   28  N1  UNL     1      34.593   6.877  47.955  1.00  0.00    -0.382 N 
HETATM   29  H1  UNL     1      34.909   7.873  48.129  1.00  0.00     0.157 HD
HETATM   30  H2  UNL     1      34.810   5.875  48.129  1.00  0.00     0.157 HD
ENDBRANCH   1  28
TORSDOF 3
ENDMDL
MODEL 3
REMARK VINA RESULT:      -6.3      3.166      5.518
REMARK  3 active torsions:
REMARK  status: ('A' for Active; 'I' for Inactive)
REMARK    1  A    between atoms: N1_1  and  C1_2 
REMARK    2  A    between atoms: C13_19  and  C14_20 
REMARK    3  A    between atoms: C14_20  and  N6_21 
ROOT
HETATM    1  C1  UNL     1      25.655   7.120  50.063  1.00  0.00     0.194 A 
HETATM    2  N2  UNL     1      26.293   6.756  48.939  1.00  0.00    -0.053 N 
HETATM    3  C2  UNL     1      26.888   5.461  48.819  1.00  0.00     0.645 C 
HETATM    4  C3  UNL     1      28.005   4.689  48.653  1.00  0.00     0.127 C 
HETATM    5  N3  UNL     1      29.201   5.435  48.528  1.00  0.00    -0.277 NA
HETATM    6  C4  UNL     1      30.191   5.270  47.752  1.00  0.00     0.108 C 
HETATM    7  C5  UNL     1      31.227   6.358  48.001  1.00  0.00     0.171 C 
HETATM    8  N4  UNL     1      30.376   7.573  47.873  1.00  0.00    -0.338 N 
HETATM    9  C6  UNL     1      30.840   8.941  47.936  1.00  0.00     0.318 C 
HETATM   10  O1  UNL     1      32.012   9.290  48.107  1.00  0.00    -0.247 OA
HETATM   11  N5  UNL     1      30.399  10.281  47.866  1.00  0.00    -0.334 N 
HETATM   12  C7  UNL     1      30.030  11.205  48.975  1.00  0.00     0.128 C 
HETATM   13  C8  UNL     1      28.564  11.645  48.808  1.00  0.00     0.024 C 
HETATM   14  C9  UNL     1      28.008  10.740  47.683  1.00  0.00    -0.011 C 
HETATM   15  C10 UNL     1      28.633  11.266  46.456  1.00  0.00     0.024 C 
HETATM   16  C11 UNL     1      30.167  11.145  46.679  1.00  0.00     0.128 C 
HETATM   17  C12 UNL     1      26.565  10.509  47.806  1.00  0.00     0.019 C 
HETATM   18  C13 UNL     1      26.463   8.991  48.076  1.00  0.00     0.023 C 
HETATM   19  C20 UNL     1      26.050   8.179  49.085  1.00  0.00     0.265 A 
HETATM   20  H8  UNL     1      29.329   7.459  47.737  1.00  0.00     0.164 HD
ENDROOT
BRANCH  18  21
HETATM   21  C14 UNL     1      26.833   8.438  46.715  1.00  0.00     0.135 C 
BRANCH  21  22
HETATM   22  N6  UNL     1      25.615   8.296  45.907  1.00  0.00    -0.386 N 
HETATM   23  C15 UNL     1      26.015   8.621  44.548  1.00  0.00     0.086 A 
HETATM   24  C16 UNL     1      25.312   8.691  43.401  1.00  0.00     0.017 A 
HETATM   25  C17 UNL     1      23.891   8.389  43.505  1.00  0.00    -0.001 A 
HETATM   26  C18 UNL     1      23.504   8.085  44.726  1.00  0.00    -0.007 A 
HETATM   27  C19 UNL     1      24.208   7.981  46.027  1.00  0.00     0.149 A 
ENDBRANCH  21  22
ENDBRANCH  18  21
BRANCH   1  28
HETATM   28  N1  UNL     1      25.020   7.403  51.256  1.00  0.00    -0.382 N 
HETATM   29  H1  UNL     1      24.928   6.456  51.722  1.00  0.00     0.157 HD
HETATM   30  H2  UNL     1      24.820   8.419  51.351  1.00  0.00     0.157 HD
ENDBRANCH   1  28
TORSDOF 3
ENDMDL
MODEL 4
REMARK VINA RESULT:      -6.2      6.540     11.089
REMARK  3 active torsions:
REMARK  status: ('A' for Active; 'I' for Inactive)
REMARK    1  A    between atoms: N1_1  and  C1_2 
REMARK    2  A    between atoms: C13_19  and  C14_20 
REMARK    3  A    between atoms: C14_20  and  N6_21 
ROOT
HETATM    1  C1  UNL     1      21.810   8.523  48.693  1.00  0.00     0.194 A 
HETATM    2  N2  UNL     1      22.228   7.450  48.002  1.00  0.00    -0.053 N 
HETATM    3  C2  UNL     1      21.621   7.094  46.758  1.00  0.00     0.645 C 
HETATM    4  C3  UNL     1      20.908   6.199  46.008  1.00  0.00     0.127 C 
HETATM    5  N3  UNL     1      20.555   5.021  46.708  1.00  0.00    -0.277 NA
HETATM    6  C4  UNL     1      20.563   3.811  46.330  1.00  0.00     0.108 C 
HETATM    7  C5  UNL     1      20.106   2.912  47.470  1.00  0.00     0.171 C 
HETATM    8  N4  UNL     1      21.026   3.359  48.551  1.00  0.00    -0.338 N 
HETATM    9  C6  UNL     1      21.112   2.792  49.878  1.00  0.00     0.318 C 
HETATM   10  O1  UNL     1      20.427   1.855  50.299  1.00  0.00    -0.247 OA
HETATM   11  N5  UNL     1      21.796   2.911  51.109  1.00  0.00    -0.334 N 
HETATM   12  C7  UNL     1      21.399   3.664  52.332  1.00  0.00     0.128 C 
HETATM   13  C8  UNL     1      22.470   4.724  52.649  1.00  0.00     0.024 C 
HETATM   14  C9  UNL     1      23.398   4.728  51.410  1.00  0.00    -0.011 C 
HETATM   15  C10 UNL     1      24.160   3.471  51.527  1.00  0.00     0.024 C 
HETATM   16  C11 UNL     1      23.099   2.334  51.532  1.00  0.00     0.128 C 
HETATM   17  C12 UNL     1      24.037   6.029  51.189  1.00  0.00     0.019 C 
HETATM   18  C13 UNL     1      23.448   6.496  49.839  1.00  0.00     0.023 C 
HETATM   19  C20 UNL     1      22.658   7.506  49.388  1.00  0.00     0.265 A 
HETATM   20  H8  UNL     1      21.681   4.175  48.367  1.00  0.00     0.164 HD
ENDROOT
BRANCH  18  21
HETATM   21  C14 UNL     1      24.147   5.550  48.884  1.00  0.00     0.135 C 
BRANCH  21  22
HETATM   22  N6  UNL     1      25.484   6.074  48.580  1.00  0.00    -0.386 N 
HETATM   23  C15 UNL     1      26.391   4.957  48.782  1.00  0.00     0.086 A 
HETATM   24  C16 UNL     1      27.731   4.863  48.683  1.00  0.00     0.017 A 
HETATM   25  C17 UNL     1      28.428   6.085  48.305  1.00  0.00    -0.001 A 
HETATM   26  C18 UNL     1      27.628   7.112  48.111  1.00  0.00    -0.007 A 
HETATM   27  C19 UNL     1      26.159   7.294  48.191  1.00  0.00     0.149 A 
ENDBRANCH  21  22
ENDBRANCH  18  21
BRANCH   1  28
HETATM   28  N1  UNL     1      21.312   9.642  49.331  1.00  0.00    -0.382 N 
HETATM   29  H1  UNL     1      22.180  10.203  49.565  1.00  0.00     0.157 HD
HETATM   30  H2  UNL     1      20.275   9.614  49.398  1.00  0.00     0.157 HD
ENDBRANCH   1  28
TORSDOF 3
ENDMDL
MODEL 5
REMARK VINA RESULT:      -6.1     10.607     13.530
REMARK  3 active torsions:
REMARK  status: ('A' for Active; 'I' for Inactive)
REMARK    1  A    between atoms: N1_1  and  C1_2 
REMARK    2  A    between atoms: C13_19  and  C14_20 
REMARK    3  A    between atoms: C14_20  and  N6_21 
ROOT
HETATM    1  C1  UNL     1      21.901   6.162  50.554  1.00  0.00     0.194 A 
HETATM    2  N2  UNL     1      22.026   5.043  49.823  1.00  0.00    -0.053 N 
HETATM    3  C2  UNL     1      22.539   5.089  48.490  1.00  0.00     0.645 C 
HETATM    4  C3  UNL     1      22.355   4.890  47.149  1.00  0.00     0.127 C 
HETATM    5  N3  UNL     1      21.070   4.398  46.816  1.00  0.00    -0.277 NA
HETATM    6  C4  UNL     1      20.726   3.509  45.980  1.00  0.00     0.108 C 
HETATM    7  C5  UNL     1      19.213   3.334  46.009  1.00  0.00     0.171 C 
HETATM    8  N4  UNL     1      18.996   3.111  47.465  1.00  0.00    -0.338 N 
HETATM    9  C6  UNL     1      17.731   2.802  48.093  1.00  0.00     0.318 C 
HETATM   10  O1  UNL     1      16.652   2.682  47.505  1.00  0.00    -0.247 OA
HETATM   11  N5  UNL     1      17.135   2.535  49.346  1.00  0.00    -0.334 N 
HETATM   12  C7  UNL     1      16.450   3.475  50.276  1.00  0.00     0.128 C 
HETATM   13  C8  UNL     1      17.188   3.487  51.627  1.00  0.00     0.024 C 
HETATM   14  C9  UNL     1      18.492   2.695  51.369  1.00  0.00    -0.011 C 
HETATM   15  C10 UNL     1      18.047   1.293  51.270  1.00  0.00     0.024 C 
HETATM   16  C11 UNL     1      17.029   1.256  50.095  1.00  0.00     0.128 C 
HETATM   17  C12 UNL     1      19.593   3.122  52.239  1.00  0.00     0.019 C 
HETATM   18  C13 UNL     1      20.624   3.716  51.252  1.00  0.00     0.023 C 
HETATM   19  C20 UNL     1      21.180   4.930  50.997  1.00  0.00     0.265 A 
HETATM   20  H8  UNL     1      19.821   3.193  48.128  1.00  0.00     0.164 HD
ENDROOT
BRANCH  18  21
HETATM   21  C14 UNL     1      21.125   2.456  50.576  1.00  0.00     0.135 C 
BRANCH  21  22
HETATM   22  N6  UNL     1      22.161   1.841  51.415  1.00  0.00    -0.386 N 
HETATM   23  C15 UNL     1      21.642   0.531  51.770  1.00  0.00     0.086 A 
HETATM   24  C16 UNL     1      22.142  -0.451  52.543  1.00  0.00     0.017 A 
HETATM   25  C17 UNL     1      23.441  -0.186  53.148  1.00  0.00    -0.001 A 
HETATM   26  C18 UNL     1      23.937   0.994  52.838  1.00  0.00    -0.007 A 
HETATM   27  C19 UNL     1      23.457   2.117  51.997  1.00  0.00     0.149 A 
ENDBRANCH  21  22
ENDBRANCH  18  21
BRANCH   1  28
HETATM   28  N1  UNL     1      21.809   7.364  51.227  1.00  0.00    -0.382 N 
HETATM   29  H1  UNL     1      20.876   7.301  51.727  1.00  0.00     0.157 HD
HETATM   30  H2  UNL     1      22.641   7.963  51.056  1.00  0.00     0.157 HD
ENDBRANCH   1  28
TORSDOF 3
ENDMDL
MODEL 6
REMARK VINA RESULT:      -6.1      2.566      6.312
REMARK  3 active torsions:
REMARK  status: ('A' for Active; 'I' for Inactive)
REMARK    1  A    between atoms: N1_1  and  C1_2 
REMARK    2  A    between atoms: C13_19  and  C14_20 
REMARK    3  A    between atoms: C14_20  and  N6_21 
ROOT
HETATM    1  C1  UNL     1      30.269  11.323  48.762  1.00  0.00     0.194 A 
HETATM    2  N2  UNL     1      29.777  10.429  47.889  1.00  0.00    -0.053 N 
HETATM    3  C2  UNL     1      28.441   9.936  48.016  1.00  0.00     0.645 C 
HETATM    4  C3  UNL     1      27.586   8.888  48.220  1.00  0.00     0.127 C 
HETATM    5  N3  UNL     1      28.240   7.645  48.399  1.00  0.00    -0.277 NA
HETATM    6  C4  UNL     1      27.951   6.496  47.949  1.00  0.00     0.108 C 
HETATM    7  C5  UNL     1      28.984   5.482  48.421  1.00  0.00     0.171 C 
HETATM    8  N4  UNL     1      30.239   6.157  47.988  1.00  0.00    -0.338 N 
HETATM    9  C6  UNL     1      31.574   5.615  48.104  1.00  0.00     0.318 C 
HETATM   10  O1  UNL     1      31.857   4.512  48.582  1.00  0.00    -0.247 OA
HETATM   11  N5  UNL     1      32.931   5.903  47.836  1.00  0.00    -0.334 N 
HETATM   12  C7  UNL     1      33.960   6.488  48.741  1.00  0.00     0.128 C 
HETATM   13  C8  UNL     1      34.481   7.805  48.139  1.00  0.00     0.024 C 
HETATM   14  C9  UNL     1      33.530   8.099  46.954  1.00  0.00    -0.011 C 
HETATM   15  C10 UNL     1      33.917   7.113  45.929  1.00  0.00     0.024 C 
HETATM   16  C11 UNL     1      33.714   5.719  46.586  1.00  0.00     0.128 C 
HETATM   17  C12 UNL     1      33.405   9.533  46.674  1.00  0.00     0.019 C 
HETATM   18  C13 UNL     1      31.922   9.835  46.987  1.00  0.00     0.023 C 
HETATM   19  C20 UNL     1      31.220  10.582  47.880  1.00  0.00     0.265 A 
HETATM   20  H8  UNL     1      30.183   7.130  47.566  1.00  0.00     0.164 HD
ENDROOT
BRANCH  18  21
HETATM   21  C14 UNL     1      31.242   9.147  45.821  1.00  0.00     0.135 C 
BRANCH  21  22
HETATM   22  N6  UNL     1      31.380   9.984  44.623  1.00  0.00    -0.386 N 
HETATM   23  C15 UNL     1      31.703   9.063  43.545  1.00  0.00     0.086 A 
HETATM   24  C16 UNL     1      31.971   9.270  42.242  1.00  0.00     0.017 A 
HETATM   25  C17 UNL     1      31.937  10.657  41.797  1.00  0.00    -0.001 A 
HETATM   26  C18 UNL     1      31.641  11.511  42.753  1.00  0.00    -0.007 A 
HETATM   27  C19 UNL     1      31.330  11.366  44.196  1.00  0.00     0.149 A 
ENDBRANCH  21  22
ENDBRANCH  18  21
BRANCH   1  28
HETATM   28  N1  UNL     1      30.685  12.240  49.708  1.00  0.00    -0.382 N 
HETATM   29  H1  UNL     1      31.188  11.647  50.427  1.00  0.00     0.157 HD
HETATM   30  H2  UNL     1      30.395  13.207  49.457  1.00  0.00     0.157 HD
ENDBRANCH   1  28
TORSDOF 3
ENDMDL
MODEL 7
REMARK VINA RESULT:      -6.1      2.332      3.472
REMARK  3 active torsions:
REMARK  status: ('A' for Active; 'I' for Inactive)
REMARK    1  A    between atoms: N1_1  and  C1_2 
REMARK    2  A    between atoms: C13_19  and  C14_20 
REMARK    3  A    between atoms: C14_20  and  N6_21 
ROOT
HETATM    1  C1  UNL     1      30.636   9.111  49.536  1.00  0.00     0.194 A 
HETATM    2  N2  UNL     1      30.473   8.133  48.630  1.00  0.00    -0.053 N 
HETATM    3  C2  UNL     1      31.539   7.232  48.322  1.00  0.00     0.645 C 
HETATM    4  C3  UNL     1      32.424   6.720  47.413  1.00  0.00     0.127 C 
HETATM    5  N3  UNL     1      32.309   7.289  46.122  1.00  0.00    -0.277 NA
HETATM    6  C4  UNL     1      32.356   6.741  44.979  1.00  0.00     0.108 C 
HETATM    7  C5  UNL     1      32.163   7.793  43.896  1.00  0.00     0.171 C 
HETATM    8  N4  UNL     1      30.902   8.431  44.363  1.00  0.00    -0.338 N 
HETATM    9  C6  UNL     1      30.174   9.472  43.672  1.00  0.00     0.318 C 
HETATM   10  O1  UNL     1      30.502   9.977  42.595  1.00  0.00    -0.247 OA
HETATM   11  N5  UNL     1      29.024  10.287  43.762  1.00  0.00    -0.334 N 
HETATM   12  C7  UNL     1      28.897  11.672  44.299  1.00  0.00     0.128 C 
HETATM   13  C8  UNL     1      27.905  11.674  45.476  1.00  0.00     0.024 C 
HETATM   14  C9  UNL     1      27.640  10.178  45.770  1.00  0.00    -0.011 C 
HETATM   15  C10 UNL     1      26.791   9.737  44.648  1.00  0.00     0.024 C 
HETATM   16  C11 UNL     1      27.621  10.002  43.361  1.00  0.00     0.128 C 
HETATM   17  C12 UNL     1      27.297   9.932  47.174  1.00  0.00     0.019 C 
HETATM   18  C13 UNL     1      28.472   9.070  47.687  1.00  0.00     0.023 C 
HETATM   19  C20 UNL     1      29.473   9.185  48.599  1.00  0.00     0.265 A 
HETATM   20  H8  UNL     1      30.481   8.127  45.290  1.00  0.00     0.164 HD
ENDROOT
BRANCH  18  21
HETATM   21  C14 UNL     1      28.191   7.760  46.980  1.00  0.00     0.135 C 
BRANCH  21  22
HETATM   22  N6  UNL     1      27.224   6.986  47.768  1.00  0.00    -0.386 N 
HETATM   23  C15 UNL     1      27.927   5.776  48.160  1.00  0.00     0.086 A 
HETATM   24  C16 UNL     1      27.529   4.696  48.859  1.00  0.00     0.017 A 
HETATM   25  C17 UNL     1      26.148   4.712  49.324  1.00  0.00    -0.001 A 
HETATM   26  C18 UNL     1      25.490   5.801  48.987  1.00  0.00    -0.007 A 
HETATM   27  C19 UNL     1      25.854   7.025  48.233  1.00  0.00     0.149 A 
ENDBRANCH  21  22
ENDBRANCH  18  21
BRANCH   1  28
HETATM   28  N1  UNL     1      30.898  10.083  50.481  1.00  0.00    -0.382 N 
HETATM   29  H1  UNL     1      31.713   9.686  51.030  1.00  0.00     0.157 HD
HETATM   30  H2  UNL     1      30.248  10.890  50.391  1.00  0.00     0.157 HD
ENDBRANCH   1  28
TORSDOF 3
ENDMDL
MODEL 8
REMARK VINA RESULT:      -6.0      3.215      6.165
REMARK  3 active torsions:
REMARK  status: ('A' for Active; 'I' for Inactive)
REMARK    1  A    between atoms: N1_1  and  C1_2 
REMARK    2  A    between atoms: C13_19  and  C14_20 
REMARK    3  A    between atoms: C14_20  and  N6_21 
ROOT
HETATM    1  C1  UNL     1      26.016   8.877  45.365  1.00  0.00     0.194 A 
HETATM    2  N2  UNL     1      26.137   9.375  46.606  1.00  0.00    -0.053 N 
HETATM    3  C2  UNL     1      25.615  10.665  46.935  1.00  0.00     0.645 C 
HETATM    4  C3  UNL     1      25.827  11.951  47.349  1.00  0.00     0.127 C 
HETATM    5  N3  UNL     1      27.186  12.251  47.606  1.00  0.00    -0.277 NA
HETATM    6  C4  UNL     1      27.713  12.920  48.546  1.00  0.00     0.108 C 
HETATM    7  C5  UNL     1      29.226  12.939  48.378  1.00  0.00     0.171 C 
HETATM    8  N4  UNL     1      29.501  11.481  48.258  1.00  0.00    -0.338 N 
HETATM    9  C6  UNL     1      30.808  10.872  48.155  1.00  0.00     0.318 C 
HETATM   10  O1  UNL     1      31.881  11.483  48.150  1.00  0.00    -0.247 OA
HETATM   11  N5  UNL     1      31.460   9.625  48.035  1.00  0.00    -0.334 N 
HETATM   12  C7  UNL     1      31.927   8.927  46.803  1.00  0.00     0.128 C 
HETATM   13  C8  UNL     1      31.217   7.566  46.687  1.00  0.00     0.024 C 
HETATM   14  C9  UNL     1      30.120   7.600  47.779  1.00  0.00    -0.011 C 
HETATM   15  C10 UNL     1      30.866   7.455  49.042  1.00  0.00     0.024 C 
HETATM   16  C11 UNL     1      31.856   8.653  49.087  1.00  0.00     0.128 C 
HETATM   17  C12 UNL     1      28.960   6.771  47.439  1.00  0.00     0.019 C 
HETATM   18  C13 UNL     1      27.814   7.796  47.289  1.00  0.00     0.023 C 
HETATM   19  C20 UNL     1      26.998   8.248  46.299  1.00  0.00     0.265 A 
HETATM   20  H8  UNL     1      28.685  10.802  48.228  1.00  0.00     0.164 HD
ENDROOT
BRANCH  18  21
HETATM   21  C14 UNL     1      27.600   8.194  48.735  1.00  0.00     0.135 C 
BRANCH  21  22
HETATM   22  N6  UNL     1      26.525   7.372  49.305  1.00  0.00    -0.386 N 
HETATM   23  C15 UNL     1      25.621   8.313  49.947  1.00  0.00     0.086 A 
HETATM   24  C16 UNL     1      24.490   8.126  50.653  1.00  0.00     0.017 A 
HETATM   25  C17 UNL     1      24.065   6.743  50.822  1.00  0.00    -0.001 A 
HETATM   26  C18 UNL     1      24.865   5.871  50.246  1.00  0.00    -0.007 A 
HETATM   27  C19 UNL     1      26.112   5.993  49.453  1.00  0.00     0.149 A 
ENDBRANCH  21  22
ENDBRANCH  18  21
BRANCH   1  28
HETATM   28  N1  UNL     1      25.843   8.451  44.063  1.00  0.00    -0.382 N 
HETATM   29  H1  UNL     1      25.616   9.341  43.536  1.00  0.00     0.157 HD
HETATM   30  H2  UNL     1      25.975   7.423  43.977  1.00  0.00     0.157 HD
ENDBRANCH   1  28
TORSDOF 3
ENDMDL
MODEL 9
REMARK VINA RESULT:      -5.9      3.285      4.838
REMARK  3 active torsions:
REMARK  status: ('A' for Active; 'I' for Inactive)
REMARK    1  A    between atoms: N1_1  and  C1_2 
REMARK    2  A    between atoms: C13_19  and  C14_20 
REMARK    3  A    between atoms: C14_20  and  N6_21 
ROOT
HETATM    1  C1  UNL     1      30.344   9.455  49.429  1.00  0.00     0.194 A 
HETATM    2  N2  UNL     1      29.964   8.848  48.294  1.00  0.00    -0.053 N 
HETATM    3  C2  UNL     1      30.920   8.502  47.288  1.00  0.00     0.645 C 
HETATM    4  C3  UNL     1      31.393   8.646  46.013  1.00  0.00     0.127 C 
HETATM    5  N3  UNL     1      30.641   9.550  45.225  1.00  0.00    -0.277 NA
HETATM    6  C4  UNL     1      30.276   9.470  44.013  1.00  0.00     0.108 C 
HETATM    7  C5  UNL     1      29.468  10.705  43.637  1.00  0.00     0.171 C 
HETATM    8  N4  UNL     1      28.449  10.700  44.722  1.00  0.00    -0.338 N 
HETATM    9  C6  UNL     1      27.338  11.617  44.845  1.00  0.00     0.318 C 
HETATM   10  O1  UNL     1      27.083  12.536  44.061  1.00  0.00    -0.247 OA
HETATM   11  N5  UNL     1      26.227  11.934  45.657  1.00  0.00    -0.334 N 
HETATM   12  C7  UNL     1      26.126  12.932  46.759  1.00  0.00     0.128 C 
HETATM   13  C8  UNL     1      25.755  12.212  48.068  1.00  0.00     0.024 C 
HETATM   14  C9  UNL     1      25.885  10.705  47.739  1.00  0.00    -0.011 C 
HETATM   15  C10 UNL     1      24.717  10.422  46.886  1.00  0.00     0.024 C 
HETATM   16  C11 UNL     1      24.854  11.363  45.656  1.00  0.00     0.128 C 
HETATM   17  C12 UNL     1      26.228   9.899  48.915  1.00  0.00     0.019 C 
HETATM   18  C13 UNL     1      27.631   9.345  48.577  1.00  0.00     0.023 C 
HETATM   19  C20 UNL     1      28.896   9.462  49.061  1.00  0.00     0.265 A 
HETATM   20  H8  UNL     1      28.526   9.980  45.499  1.00  0.00     0.164 HD
ENDROOT
BRANCH  18  21
HETATM   21  C14 UNL     1      27.284   8.338  47.500  1.00  0.00     0.135 C 
BRANCH  21  22
HETATM   22  N6  UNL     1      26.758   7.122  48.130  1.00  0.00    -0.386 N 
HETATM   23  C15 UNL     1      27.879   6.198  48.180  1.00  0.00     0.086 A 
HETATM   24  C16 UNL     1      27.974   4.928  48.619  1.00  0.00     0.017 A 
HETATM   25  C17 UNL     1      26.749   4.345  49.150  1.00  0.00    -0.001 A 
HETATM   26  C18 UNL     1      25.718   5.164  49.121  1.00  0.00    -0.007 A 
HETATM   27  C19 UNL     1      25.535   6.563  48.665  1.00  0.00     0.149 A 
ENDBRANCH  21  22
ENDBRANCH  18  21
BRANCH   1  28
HETATM   28  N1  UNL     1      30.831  10.077  50.562  1.00  0.00    -0.382 N 
HETATM   29  H1  UNL     1      31.674   9.492  50.826  1.00  0.00     0.157 HD
HETATM   30  H2  UNL     1      30.255  10.903  50.822  1.00  0.00     0.157 HD
ENDBRANCH   1  28
TORSDOF 3
ENDMDL
