MODEL 1
REMARK VINA RESULT:      -8.3      0.000      0.000
REMARK  6 active torsions:
REMARK  status: ('A' for Active; 'I' for Inactive)
REMARK    1  A    between atoms: C2_2  and  C3_3 
REMARK    2  A    between atoms: C4_4  and  C5_5 
REMARK    3  A    between atoms: C6_6  and  C7_7 
REMARK    4  A    between atoms: C9_9  and  N1_10 
REMARK    5  A    between atoms: N1_10  and  C10_11 
REMARK    6  A    between atoms: C14_16  and  C15_17 
ROOT
HETATM    1  N1  UNL     1      25.682  -0.426  52.877  1.00  0.00    -0.342 N 
HETATM    2  H9  UNL     1      25.653  -0.886  51.943  1.00  0.00     0.167 HD
ENDROOT
BRANCH   1   3
HETATM    3  C9  UNL     1      24.732  -0.800  53.863  1.00  0.00     0.131 A 
HETATM    4  C8  UNL     1      23.404  -0.922  53.533  1.00  0.00     0.082 A 
HETATM    5  C7  UNL     1      22.403  -1.274  54.408  1.00  0.00     0.061 A 
HETATM    6  N3  UNL     1      22.769  -1.513  55.672  1.00  0.00    -0.242 NA
HETATM    7  C21 UNL     1      24.058  -1.401  56.019  1.00  0.00     0.235 A 
HETATM    8  N2  UNL     1      25.022  -1.056  55.150  1.00  0.00    -0.224 NA
BRANCH   5   9
HETATM    9  C6  UNL     1      21.042  -1.363  53.918  1.00  0.00     0.032 C 
HETATM   10  C5  UNL     1      20.361  -0.411  53.312  1.00  0.00     0.002 C 
BRANCH  10  11
HETATM   11  C4  UNL     1      20.603   0.963  52.907  1.00  0.00     0.000 C 
HETATM   12  C3  UNL     1      21.101   1.524  51.838  1.00  0.00    -0.001 C 
BRANCH  12  13
HETATM   13  C2  UNL     1      21.560   0.724  50.717  1.00  0.00    -0.010 C 
HETATM   14  C1  UNL     1      21.642   1.283  49.514  1.00  0.00     0.011 C 
ENDBRANCH  12  13
ENDBRANCH  10  11
ENDBRANCH   5   9
ENDBRANCH   1   3
BRANCH   1  15
HETATM   15  C10 UNL     1      26.706   0.520  52.989  1.00  0.00     0.045 A 
HETATM   16  C11 UNL     1      27.566   0.249  53.975  1.00  0.00     0.030 A 
HETATM   17  C12 UNL     1      28.684   1.167  54.196  1.00  0.00     0.026 A 
HETATM   18  C13 UNL     1      28.842   2.241  53.437  1.00  0.00     0.136 A 
HETATM   19  O1  UNL     1      27.936   2.493  52.426  1.00  0.00    -0.347 OA
HETATM   20  C14 UNL     1      26.839   1.693  52.125  1.00  0.00     0.210 A 
BRANCH  20  21
HETATM   21  C15 UNL     1      25.623   2.530  52.013  1.00  0.00    -0.020 A 
HETATM   22  C16 UNL     1      24.723   2.953  52.960  1.00  0.00     0.010 A 
HETATM   23  C17 UNL     1      23.654   3.739  52.588  1.00  0.00     0.004 A 
HETATM   24  C18 UNL     1      23.408   4.151  51.295  1.00  0.00     0.042 A 
HETATM   25  C19 UNL     1      24.320   3.719  50.355  1.00  0.00     0.117 A 
HETATM   26  F1  UNL     1      24.078   4.127  49.069  1.00  0.00    -0.206 F 
HETATM   27  C20 UNL     1      25.417   2.920  50.697  1.00  0.00     0.052 A 
ENDBRANCH  20  21
ENDBRANCH   1  15
TORSDOF 6
ENDMDL
MODEL 2
REMARK VINA RESULT:      -7.8      3.146      6.158
REMARK  6 active torsions:
REMARK  status: ('A' for Active; 'I' for Inactive)
REMARK    1  A    between atoms: C2_2  and  C3_3 
REMARK    2  A    between atoms: C4_4  and  C5_5 
REMARK    3  A    between atoms: C6_6  and  C7_7 
REMARK    4  A    between atoms: C9_9  and  N1_10 
REMARK    5  A    between atoms: N1_10  and  C10_11 
REMARK    6  A    between atoms: C14_16  and  C15_17 
ROOT
HETATM    1  N1  UNL     1      22.612   1.272  51.456  1.00  0.00    -0.342 N 
HETATM    2  H9  UNL     1      23.002   0.746  50.647  1.00  0.00     0.167 HD
ENDROOT
BRANCH   1   3
HETATM    3  C9  UNL     1      22.191   2.615  51.272  1.00  0.00     0.131 A 
HETATM    4  C8  UNL     1      23.077   3.649  51.462  1.00  0.00     0.082 A 
HETATM    5  C7  UNL     1      22.775   4.983  51.314  1.00  0.00     0.061 A 
HETATM    6  N3  UNL     1      21.520   5.277  50.957  1.00  0.00    -0.242 NA
HETATM    7  C21 UNL     1      20.637   4.286  50.766  1.00  0.00     0.235 A 
HETATM    8  N2  UNL     1      20.951   2.989  50.916  1.00  0.00    -0.224 NA
BRANCH   5   9
HETATM    9  C6  UNL     1      23.813   5.967  51.547  1.00  0.00     0.032 C 
HETATM   10  C5  UNL     1      24.778   6.304  50.715  1.00  0.00     0.002 C 
BRANCH  10  11
HETATM   11  C4  UNL     1      25.199   5.918  49.379  1.00  0.00     0.000 C 
HETATM   12  C3  UNL     1      26.020   5.019  48.906  1.00  0.00    -0.001 C 
BRANCH  12  13
HETATM   13  C2  UNL     1      26.750   4.132  49.793  1.00  0.00    -0.010 C 
HETATM   14  C1  UNL     1      26.331   2.881  49.946  1.00  0.00     0.011 C 
ENDBRANCH  12  13
ENDBRANCH  10  11
ENDBRANCH   5   9
ENDBRANCH   1   3
BRANCH   1  15
HETATM   15  C10 UNL     1      22.573   0.516  52.633  1.00  0.00     0.045 A 
HETATM   16  C11 UNL     1      21.406   0.606  53.277  1.00  0.00     0.030 A 
HETATM   17  C12 UNL     1      21.240  -0.140  54.524  1.00  0.00     0.026 A 
HETATM   18  C13 UNL     1      22.222  -0.888  55.006  1.00  0.00     0.136 A 
HETATM   19  O1  UNL     1      23.416  -0.959  54.316  1.00  0.00    -0.347 OA
HETATM   20  C14 UNL     1      23.686  -0.296  53.124  1.00  0.00     0.210 A 
BRANCH  20  21
HETATM   21  C15 UNL     1      24.982   0.413  53.227  1.00  0.00    -0.020 A 
HETATM   22  C16 UNL     1      25.279   1.720  53.526  1.00  0.00     0.010 A 
HETATM   23  C17 UNL     1      26.593   2.135  53.554  1.00  0.00     0.004 A 
HETATM   24  C18 UNL     1      27.671   1.313  53.300  1.00  0.00     0.042 A 
HETATM   25  C19 UNL     1      27.358   0.004  53.002  1.00  0.00     0.117 A 
HETATM   26  F1  UNL     1      28.427  -0.815  52.749  1.00  0.00    -0.206 F 
HETATM   27  C20 UNL     1      26.035  -0.452  52.963  1.00  0.00     0.052 A 
ENDBRANCH  20  21
ENDBRANCH   1  15
TORSDOF 6
ENDMDL
MODEL 3
REMARK VINA RESULT:      -7.8      2.357      4.644
REMARK  6 active torsions:
REMARK  status: ('A' for Active; 'I' for Inactive)
REMARK    1  A    between atoms: C2_2  and  C3_3 
REMARK    2  A    between atoms: C4_4  and  C5_5 
REMARK    3  A    between atoms: C6_6  and  C7_7 
REMARK    4  A    between atoms: C9_9  and  N1_10 
REMARK    5  A    between atoms: N1_10  and  C10_11 
REMARK    6  A    between atoms: C14_16  and  C15_17 
ROOT
HETATM    1  N1  UNL     1      26.451   2.039  50.522  1.00  0.00    -0.342 N 
HETATM    2  H9  UNL     1      26.482   1.220  49.879  1.00  0.00     0.167 HD
ENDROOT
BRANCH   1   3
HETATM    3  C9  UNL     1      26.964   1.908  51.838  1.00  0.00     0.131 A 
HETATM    4  C8  UNL     1      26.359   1.061  52.735  1.00  0.00     0.082 A 
HETATM    5  C7  UNL     1      26.771   0.861  54.032  1.00  0.00     0.061 A 
HETATM    6  N3  UNL     1      27.844   1.551  54.433  1.00  0.00    -0.242 NA
HETATM    7  C21 UNL     1      28.452   2.384  53.577  1.00  0.00     0.235 A 
HETATM    8  N2  UNL     1      28.035   2.566  52.314  1.00  0.00    -0.224 NA
BRANCH   5   9
HETATM    9  C6  UNL     1      26.033  -0.067  54.867  1.00  0.00     0.032 C 
HETATM   10  C5  UNL     1      24.908  -0.679  54.556  1.00  0.00     0.002 C 
BRANCH  10  11
HETATM   11  C4  UNL     1      24.009  -0.716  53.416  1.00  0.00     0.000 C 
HETATM   12  C3  UNL     1      22.739  -0.984  53.264  1.00  0.00    -0.001 C 
BRANCH  12  13
HETATM   13  C2  UNL     1      21.909  -1.343  54.399  1.00  0.00    -0.010 C 
HETATM   14  C1  UNL     1      20.603  -1.504  54.220  1.00  0.00     0.011 C 
ENDBRANCH  12  13
ENDBRANCH  10  11
ENDBRANCH   5   9
ENDBRANCH   1   3
BRANCH   1  15
HETATM   15  C10 UNL     1      25.880   3.174  49.934  1.00  0.00     0.045 A 
HETATM   16  C11 UNL     1      26.745   4.182  49.790  1.00  0.00     0.030 A 
HETATM   17  C12 UNL     1      26.268   5.427  49.188  1.00  0.00     0.026 A 
HETATM   18  C13 UNL     1      25.010   5.554  48.793  1.00  0.00     0.136 A 
HETATM   19  O1  UNL     1      24.142   4.493  48.955  1.00  0.00    -0.347 OA
HETATM   20  C14 UNL     1      24.482   3.266  49.513  1.00  0.00     0.210 A 
BRANCH  20  21
HETATM   21  C15 UNL     1      23.490   2.892  50.548  1.00  0.00    -0.020 A 
HETATM   22  C16 UNL     1      23.308   3.341  51.832  1.00  0.00     0.010 A 
HETATM   23  C17 UNL     1      22.292   2.818  52.603  1.00  0.00     0.004 A 
HETATM   24  C18 UNL     1      21.412   1.848  52.172  1.00  0.00     0.042 A 
HETATM   25  C19 UNL     1      21.607   1.407  50.880  1.00  0.00     0.117 A 
HETATM   26  F1  UNL     1      20.735   0.443  50.448  1.00  0.00    -0.206 F 
HETATM   27  C20 UNL     1      22.629   1.915  50.069  1.00  0.00     0.052 A 
ENDBRANCH  20  21
ENDBRANCH   1  15
TORSDOF 6
ENDMDL
MODEL 4
REMARK VINA RESULT:      -7.7      2.490      4.373
REMARK  6 active torsions:
REMARK  status: ('A' for Active; 'I' for Inactive)
REMARK    1  A    between atoms: C2_2  and  C3_3 
REMARK    2  A    between atoms: C4_4  and  C5_5 
REMARK    3  A    between atoms: C6_6  and  C7_7 
REMARK    4  A    between atoms: C9_9  and  N1_10 
REMARK    5  A    between atoms: N1_10  and  C10_11 
REMARK    6  A    between atoms: C14_16  and  C15_17 
ROOT
HETATM    1  N1  UNL     1      24.252   2.236  53.091  1.00  0.00    -0.342 N 
HETATM    2  H9  UNL     1      24.403   2.756  53.981  1.00  0.00     0.167 HD
ENDROOT
BRANCH   1   3
HETATM    3  C9  UNL     1      23.223   1.260  53.025  1.00  0.00     0.131 A 
HETATM    4  C8  UNL     1      22.174   1.420  52.152  1.00  0.00     0.082 A 
HETATM    5  C7  UNL     1      21.127   0.539  52.009  1.00  0.00     0.061 A 
HETATM    6  N3  UNL     1      21.148  -0.548  52.787  1.00  0.00    -0.242 NA
HETATM    7  C21 UNL     1      22.161  -0.727  53.646  1.00  0.00     0.235 A 
HETATM    8  N2  UNL     1      23.175   0.144  53.772  1.00  0.00    -0.224 NA
BRANCH   5   9
HETATM    9  C6  UNL     1      20.086   0.838  51.046  1.00  0.00     0.032 C 
HETATM   10  C5  UNL     1      20.244   1.014  49.749  1.00  0.00     0.002 C 
BRANCH  10  11
HETATM   11  C4  UNL     1      21.352   0.995  48.810  1.00  0.00     0.000 C 
HETATM   12  C3  UNL     1      22.084   1.918  48.246  1.00  0.00    -0.001 C 
BRANCH  12  13
HETATM   13  C2  UNL     1      21.857   3.325  48.519  1.00  0.00    -0.010 C 
HETATM   14  C1  UNL     1      22.367   4.234  47.695  1.00  0.00     0.011 C 
ENDBRANCH  12  13
ENDBRANCH  10  11
ENDBRANCH   5   9
ENDBRANCH   1   3
BRANCH   1  15
HETATM   15  C10 UNL     1      25.136   2.619  52.077  1.00  0.00     0.045 A 
HETATM   16  C11 UNL     1      24.531   3.234  51.057  1.00  0.00     0.030 A 
HETATM   17  C12 UNL     1      25.350   3.683  49.931  1.00  0.00     0.026 A 
HETATM   18  C13 UNL     1      26.659   3.486  49.920  1.00  0.00     0.136 A 
HETATM   19  O1  UNL     1      27.254   2.847  50.989  1.00  0.00    -0.347 OA
HETATM   20  C14 UNL     1      26.579   2.378  52.111  1.00  0.00     0.210 A 
BRANCH  20  21
HETATM   21  C15 UNL     1      26.975   0.978  52.387  1.00  0.00    -0.020 A 
HETATM   22  C16 UNL     1      26.418  -0.215  51.996  1.00  0.00     0.010 A 
HETATM   23  C17 UNL     1      26.990  -1.403  52.399  1.00  0.00     0.004 A 
HETATM   24  C18 UNL     1      28.117  -1.491  53.189  1.00  0.00     0.042 A 
HETATM   25  C19 UNL     1      28.665  -0.285  53.573  1.00  0.00     0.117 A 
HETATM   26  F1  UNL     1      29.784  -0.371  54.359  1.00  0.00    -0.206 F 
HETATM   27  C20 UNL     1      28.110   0.939  53.184  1.00  0.00     0.052 A 
ENDBRANCH  20  21
ENDBRANCH   1  15
TORSDOF 6
ENDMDL
MODEL 5
REMARK VINA RESULT:      -7.7      2.741      4.867
REMARK  6 active torsions:
REMARK  status: ('A' for Active; 'I' for Inactive)
REMARK    1  A    between atoms: C2_2  and  C3_3 
REMARK    2  A    between atoms: C4_4  and  C5_5 
REMARK    3  A    between atoms: C6_6  and  C7_7 
REMARK    4  A    between atoms: C9_9  and  N1_10 
REMARK    5  A    between atoms: N1_10  and  C10_11 
REMARK    6  A    between atoms: C14_16  and  C15_17 
ROOT
HETATM    1  N1  UNL     1      24.086   2.955  52.492  1.00  0.00    -0.342 N 
HETATM    2  H9  UNL     1      24.516   2.753  53.419  1.00  0.00     0.167 HD
ENDROOT
BRANCH   1   3
HETATM    3  C9  UNL     1      22.672   2.988  52.376  1.00  0.00     0.131 A 
HETATM    4  C8  UNL     1      21.955   1.818  52.322  1.00  0.00     0.082 A 
HETATM    5  C7  UNL     1      20.586   1.736  52.207  1.00  0.00     0.061 A 
HETATM    6  N3  UNL     1      19.920   2.894  52.145  1.00  0.00    -0.242 NA
HETATM    7  C21 UNL     1      20.597   4.050  52.197  1.00  0.00     0.235 A 
HETATM    8  N2  UNL     1      21.934   4.109  52.309  1.00  0.00    -0.224 NA
BRANCH   5   9
HETATM    9  C6  UNL     1      19.963   0.428  52.160  1.00  0.00     0.032 C 
HETATM   10  C5  UNL     1      19.991  -0.489  53.107  1.00  0.00     0.002 C 
BRANCH  10  11
HETATM   11  C4  UNL     1      20.562  -0.614  54.436  1.00  0.00     0.000 C 
HETATM   12  C3  UNL     1      21.773  -0.785  54.896  1.00  0.00    -0.001 C 
BRANCH  12  13
HETATM   13  C2  UNL     1      22.907  -0.893  53.996  1.00  0.00    -0.010 C 
HETATM   14  C1  UNL     1      24.136  -0.785  54.488  1.00  0.00     0.011 C 
ENDBRANCH  12  13
ENDBRANCH  10  11
ENDBRANCH   5   9
ENDBRANCH   1   3
BRANCH   1  15
HETATM   15  C10 UNL     1      25.033   3.167  51.485  1.00  0.00     0.045 A 
HETATM   16  C11 UNL     1      24.500   3.630  50.351  1.00  0.00     0.030 A 
HETATM   17  C12 UNL     1      25.390   3.893  49.220  1.00  0.00     0.026 A 
HETATM   18  C13 UNL     1      26.693   3.677  49.315  1.00  0.00     0.136 A 
HETATM   19  O1  UNL     1      27.213   3.198  50.501  1.00  0.00    -0.347 OA
HETATM   20  C14 UNL     1      26.466   2.914  51.639  1.00  0.00     0.210 A 
BRANCH  20  21
HETATM   21  C15 UNL     1      26.814   1.566  52.144  1.00  0.00    -0.020 A 
HETATM   22  C16 UNL     1      26.464   0.314  51.702  1.00  0.00     0.010 A 
HETATM   23  C17 UNL     1      26.929  -0.802  52.364  1.00  0.00     0.004 A 
HETATM   24  C18 UNL     1      27.748  -0.760  53.472  1.00  0.00     0.042 A 
HETATM   25  C19 UNL     1      28.092   0.504  53.904  1.00  0.00     0.117 A 
HETATM   26  F1  UNL     1      28.906   0.549  55.006  1.00  0.00    -0.206 F 
HETATM   27  C20 UNL     1      27.637   1.659  53.257  1.00  0.00     0.052 A 
ENDBRANCH  20  21
ENDBRANCH   1  15
TORSDOF 6
ENDMDL
MODEL 6
REMARK VINA RESULT:      -7.7      3.606      6.895
REMARK  6 active torsions:
REMARK  status: ('A' for Active; 'I' for Inactive)
REMARK    1  A    between atoms: C2_2  and  C3_3 
REMARK    2  A    between atoms: C4_4  and  C5_5 
REMARK    3  A    between atoms: C6_6  and  C7_7 
REMARK    4  A    between atoms: C9_9  and  N1_10 
REMARK    5  A    between atoms: N1_10  and  C10_11 
REMARK    6  A    between atoms: C14_16  and  C15_17 
ROOT
HETATM    1  N1  UNL     1      23.004   1.182  51.267  1.00  0.00    -0.342 N 
HETATM    2  H9  UNL     1      22.733   0.608  50.442  1.00  0.00     0.167 HD
ENDROOT
BRANCH   1   3
HETATM    3  C9  UNL     1      23.570   2.468  51.061  1.00  0.00     0.131 A 
HETATM    4  C8  UNL     1      24.786   2.594  50.434  1.00  0.00     0.082 A 
HETATM    5  C7  UNL     1      25.425   3.788  50.187  1.00  0.00     0.061 A 
HETATM    6  N3  UNL     1      24.800   4.897  50.593  1.00  0.00    -0.242 NA
HETATM    7  C21 UNL     1      23.612   4.800  51.207  1.00  0.00     0.235 A 
HETATM    8  N2  UNL     1      23.004   3.626  51.441  1.00  0.00    -0.224 NA
BRANCH   5   9
HETATM    9  C6  UNL     1      26.708   3.769  49.514  1.00  0.00     0.032 C 
HETATM   10  C5  UNL     1      27.252   4.757  48.831  1.00  0.00     0.002 C 
BRANCH  10  11
HETATM   11  C4  UNL     1      26.890   6.119  48.479  1.00  0.00     0.000 C 
HETATM   12  C3  UNL     1      27.568   7.207  48.231  1.00  0.00    -0.001 C 
BRANCH  12  13
HETATM   13  C2  UNL     1      29.018   7.214  48.282  1.00  0.00    -0.010 C 
HETATM   14  C1  UNL     1      29.706   7.051  47.157  1.00  0.00     0.011 C 
ENDBRANCH  12  13
ENDBRANCH  10  11
ENDBRANCH   5   9
ENDBRANCH   1   3
BRANCH   1  15
HETATM   15  C10 UNL     1      22.743   0.547  52.486  1.00  0.00     0.045 A 
HETATM   16  C11 UNL     1      21.547   0.857  52.995  1.00  0.00     0.030 A 
HETATM   17  C12 UNL     1      21.157   0.256  54.271  1.00  0.00     0.026 A 
HETATM   18  C13 UNL     1      21.967  -0.576  54.907  1.00  0.00     0.136 A 
HETATM   19  O1  UNL     1      23.196  -0.876  54.354  1.00  0.00    -0.347 OA
HETATM   20  C14 UNL     1      23.672  -0.367  53.151  1.00  0.00     0.210 A 
BRANCH  20  21
HETATM   21  C15 UNL     1      25.044   0.160  53.337  1.00  0.00    -0.020 A 
HETATM   22  C16 UNL     1      25.495   1.386  53.759  1.00  0.00     0.010 A 
HETATM   23  C17 UNL     1      26.850   1.626  53.844  1.00  0.00     0.004 A 
HETATM   24  C18 UNL     1      27.822   0.700  53.529  1.00  0.00     0.042 A 
HETATM   25  C19 UNL     1      27.354  -0.527  53.106  1.00  0.00     0.117 A 
HETATM   26  F1  UNL     1      28.318  -1.448  52.792  1.00  0.00    -0.206 F 
HETATM   27  C20 UNL     1      25.986  -0.805  53.008  1.00  0.00     0.052 A 
ENDBRANCH  20  21
ENDBRANCH   1  15
TORSDOF 6
ENDMDL
MODEL 7
REMARK VINA RESULT:      -7.7      2.426      4.585
REMARK  6 active torsions:
REMARK  status: ('A' for Active; 'I' for Inactive)
REMARK    1  A    between atoms: C2_2  and  C3_3 
REMARK    2  A    between atoms: C4_4  and  C5_5 
REMARK    3  A    between atoms: C6_6  and  C7_7 
REMARK    4  A    between atoms: C9_9  and  N1_10 
REMARK    5  A    between atoms: N1_10  and  C10_11 
REMARK    6  A    between atoms: C14_16  and  C15_17 
ROOT
HETATM    1  N1  UNL     1      24.339   2.702  51.720  1.00  0.00    -0.342 N 
HETATM    2  H9  UNL     1      24.452   3.582  52.265  1.00  0.00     0.167 HD
ENDROOT
BRANCH   1   3
HETATM    3  C9  UNL     1      24.895   1.497  52.225  1.00  0.00     0.131 A 
HETATM    4  C8  UNL     1      24.328   0.878  53.313  1.00  0.00     0.082 A 
HETATM    5  C7  UNL     1      24.786  -0.288  53.883  1.00  0.00     0.061 A 
HETATM    6  N3  UNL     1      25.865  -0.845  53.324  1.00  0.00    -0.242 NA
HETATM    7  C21 UNL     1      26.437  -0.259  52.262  1.00  0.00     0.235 A 
HETATM    8  N2  UNL     1      25.975   0.879  51.719  1.00  0.00    -0.224 NA
BRANCH   5   9
HETATM    9  C6  UNL     1      24.086  -0.828  55.031  1.00  0.00     0.032 C 
HETATM   10  C5  UNL     1      22.871  -1.340  55.041  1.00  0.00     0.002 C 
BRANCH  10  11
HETATM   11  C4  UNL     1      21.818  -1.573  54.067  1.00  0.00     0.000 C 
HETATM   12  C3  UNL     1      20.851  -0.844  53.578  1.00  0.00    -0.001 C 
BRANCH  12  13
HETATM   13  C2  UNL     1      20.657   0.528  54.009  1.00  0.00    -0.010 C 
HETATM   14  C1  UNL     1      20.581   1.489  53.093  1.00  0.00     0.011 C 
ENDBRANCH  12  13
ENDBRANCH  10  11
ENDBRANCH   5   9
ENDBRANCH   1   3
BRANCH   1  15
HETATM   15  C10 UNL     1      23.623   2.882  50.531  1.00  0.00     0.045 A 
HETATM   16  C11 UNL     1      22.850   1.837  50.221  1.00  0.00     0.030 A 
HETATM   17  C12 UNL     1      22.050   1.903  48.997  1.00  0.00     0.026 A 
HETATM   18  C13 UNL     1      22.089   2.972  48.216  1.00  0.00     0.136 A 
HETATM   19  O1  UNL     1      22.898   4.035  48.565  1.00  0.00    -0.347 OA
HETATM   20  C14 UNL     1      23.699   4.083  49.701  1.00  0.00     0.210 A 
BRANCH  20  21
HETATM   21  C15 UNL     1      25.070   4.503  49.330  1.00  0.00    -0.020 A 
HETATM   22  C16 UNL     1      26.261   3.819  49.336  1.00  0.00     0.010 A 
HETATM   23  C17 UNL     1      27.418   4.454  48.938  1.00  0.00     0.004 A 
HETATM   24  C18 UNL     1      27.478   5.766  48.518  1.00  0.00     0.042 A 
HETATM   25  C19 UNL     1      26.274   6.440  48.517  1.00  0.00     0.117 A 
HETATM   26  F1  UNL     1      26.331   7.744  48.100  1.00  0.00    -0.206 F 
HETATM   27  C20 UNL     1      25.080   5.828  48.915  1.00  0.00     0.052 A 
ENDBRANCH  20  21
ENDBRANCH   1  15
TORSDOF 6
ENDMDL
MODEL 8
REMARK VINA RESULT:      -7.7      1.472      2.325
REMARK  6 active torsions:
REMARK  status: ('A' for Active; 'I' for Inactive)
REMARK    1  A    between atoms: C2_2  and  C3_3 
REMARK    2  A    between atoms: C4_4  and  C5_5 
REMARK    3  A    between atoms: C6_6  and  C7_7 
REMARK    4  A    between atoms: C9_9  and  N1_10 
REMARK    5  A    between atoms: N1_10  and  C10_11 
REMARK    6  A    between atoms: C14_16  and  C15_17 
ROOT
HETATM    1  N1  UNL     1      24.593  -0.496  52.800  1.00  0.00    -0.342 N 
HETATM    2  H9  UNL     1      24.730  -1.223  52.068  1.00  0.00     0.167 HD
ENDROOT
BRANCH   1   3
HETATM    3  C9  UNL     1      23.315  -0.346  53.399  1.00  0.00     0.131 A 
HETATM    4  C8  UNL     1      22.436   0.598  52.925  1.00  0.00     0.082 A 
HETATM    5  C7  UNL     1      21.178   0.828  53.432  1.00  0.00     0.061 A 
HETATM    6  N3  UNL     1      20.799   0.066  54.463  1.00  0.00    -0.242 NA
HETATM    7  C21 UNL     1      21.638  -0.863  54.943  1.00  0.00     0.235 A 
HETATM    8  N2  UNL     1      22.863  -1.072  54.435  1.00  0.00    -0.224 NA
BRANCH   5   9
HETATM    9  C6  UNL     1      20.358   1.860  52.830  1.00  0.00     0.032 C 
HETATM   10  C5  UNL     1      19.448   1.693  51.891  1.00  0.00     0.002 C 
BRANCH  10  11
HETATM   11  C4  UNL     1      18.912   0.577  51.129  1.00  0.00     0.000 C 
HETATM   12  C3  UNL     1      18.159  -0.448  51.423  1.00  0.00    -0.001 C 
BRANCH  12  13
HETATM   13  C2  UNL     1      17.670  -0.656  52.774  1.00  0.00    -0.010 C 
HETATM   14  C1  UNL     1      17.922  -1.811  53.382  1.00  0.00     0.011 C 
ENDBRANCH  12  13
ENDBRANCH  10  11
ENDBRANCH   5   9
ENDBRANCH   1   3
BRANCH   1  15
HETATM   15  C10 UNL     1      25.756   0.233  53.071  1.00  0.00     0.045 A 
HETATM   16  C11 UNL     1      26.449  -0.248  54.106  1.00  0.00     0.030 A 
HETATM   17  C12 UNL     1      27.688   0.429  54.490  1.00  0.00     0.026 A 
HETATM   18  C13 UNL     1      28.114   1.494  53.828  1.00  0.00     0.136 A 
HETATM   19  O1  UNL     1      27.375   1.967  52.762  1.00  0.00    -0.347 OA
HETATM   20  C14 UNL     1      26.186   1.405  52.308  1.00  0.00     0.210 A 
BRANCH  20  21
HETATM   21  C15 UNL     1      25.160   2.462  52.151  1.00  0.00    -0.020 A 
HETATM   22  C16 UNL     1      24.519   3.247  53.077  1.00  0.00     0.010 A 
HETATM   23  C17 UNL     1      23.585   4.172  52.661  1.00  0.00     0.004 A 
HETATM   24  C18 UNL     1      23.233   4.380  51.344  1.00  0.00     0.042 A 
HETATM   25  C19 UNL     1      23.885   3.585  50.426  1.00  0.00     0.117 A 
HETATM   26  F1  UNL     1      23.537   3.789  49.117  1.00  0.00    -0.206 F 
HETATM   27  C20 UNL     1      24.838   2.635  50.812  1.00  0.00     0.052 A 
ENDBRANCH  20  21
ENDBRANCH   1  15
TORSDOF 6
ENDMDL
MODEL 9
REMARK VINA RESULT:      -7.6      2.447      5.893
REMARK  6 active torsions:
REMARK  status: ('A' for Active; 'I' for Inactive)
REMARK    1  A    between atoms: C2_2  and  C3_3 
REMARK    2  A    between atoms: C4_4  and  C5_5 
REMARK    3  A    between atoms: C6_6  and  C7_7 
REMARK    4  A    between atoms: C9_9  and  N1_10 
REMARK    5  A    between atoms: N1_10  and  C10_11 
REMARK    6  A    between atoms: C14_16  and  C15_17 
ROOT
HETATM    1  N1  UNL     1      20.438   1.234  53.521  1.00  0.00    -0.342 N 
HETATM    2  H9  UNL     1      19.871   1.669  54.278  1.00  0.00     0.167 HD
ENDROOT
BRANCH   1   3
HETATM    3  C9  UNL     1      21.574   0.456  53.865  1.00  0.00     0.131 A 
HETATM    4  C8  UNL     1      22.769   0.651  53.215  1.00  0.00     0.082 A 
HETATM    5  C7  UNL     1      23.927  -0.047  53.467  1.00  0.00     0.061 A 
HETATM    6  N3  UNL     1      23.867  -0.983  54.420  1.00  0.00    -0.242 NA
HETATM    7  C21 UNL     1      22.713  -1.193  55.069  1.00  0.00     0.235 A 
HETATM    8  N2  UNL     1      21.592  -0.501  54.809  1.00  0.00    -0.224 NA
BRANCH   5   9
HETATM    9  C6  UNL     1      25.116   0.268  52.700  1.00  0.00     0.032 C 
HETATM   10  C5  UNL     1      26.343   0.386  53.167  1.00  0.00     0.002 C 
BRANCH  10  11
HETATM   11  C4  UNL     1      26.994   0.277  54.461  1.00  0.00     0.000 C 
HETATM   12  C3  UNL     1      28.237   0.183  54.852  1.00  0.00    -0.001 C 
BRANCH  12  13
HETATM   13  C2  UNL     1      29.325   0.171  53.891  1.00  0.00    -0.010 C 
HETATM   14  C1  UNL     1      29.828  -0.994  53.498  1.00  0.00     0.011 C 
ENDBRANCH  12  13
ENDBRANCH  10  11
ENDBRANCH   5   9
ENDBRANCH   1   3
BRANCH   1  15
HETATM   15  C10 UNL     1      19.946   1.511  52.241  1.00  0.00     0.045 A 
HETATM   16  C11 UNL     1      19.374   0.455  51.657  1.00  0.00     0.030 A 
HETATM   17  C12 UNL     1      18.820   0.617  50.313  1.00  0.00     0.026 A 
HETATM   18  C13 UNL     1      18.883   1.783  49.687  1.00  0.00     0.136 A 
HETATM   19  O1  UNL     1      19.481   2.856  50.318  1.00  0.00    -0.347 OA
HETATM   20  C14 UNL     1      20.039   2.819  51.591  1.00  0.00     0.210 A 
BRANCH  20  21
HETATM   21  C15 UNL     1      21.398   3.408  51.561  1.00  0.00    -0.020 A 
HETATM   22  C16 UNL     1      22.005   4.329  52.379  1.00  0.00     0.010 A 
HETATM   23  C17 UNL     1      23.302   4.720  52.127  1.00  0.00     0.004 A 
HETATM   24  C18 UNL     1      24.067   4.242  51.083  1.00  0.00     0.042 A 
HETATM   25  C19 UNL     1      23.444   3.318  50.271  1.00  0.00     0.117 A 
HETATM   26  F1  UNL     1      24.201   2.842  49.233  1.00  0.00    -0.206 F 
HETATM   27  C20 UNL     1      22.128   2.899  50.496  1.00  0.00     0.052 A 
ENDBRANCH  20  21
ENDBRANCH   1  15
TORSDOF 6
ENDMDL
