MODEL 1
REMARK VINA RESULT:      -8.5      0.000      0.000
REMARK  7 active torsions:
REMARK  status: ('A' for Active; 'I' for Inactive)
REMARK    1  A    between atoms: C4_6  and  N3_7 
REMARK    2  A    between atoms: N3_7  and  C5_8 
REMARK    3  A    between atoms: C9_12  and  C10_13 
REMARK    4  A    between atoms: C13_19  and  C14_20 
REMARK    5  A    between atoms: C18_27  and  C19_28 
REMARK    6  A    between atoms: C19_28  and  C20_29 
REMARK    7  A    between atoms: C20_29  and  N5_30 
ROOT
HETATM    1  C1  UNL     1      24.655  -0.881  55.194  1.00  0.00     0.071 C 
HETATM    2  C2  UNL     1      23.356  -0.815  54.431  1.00  0.00     0.046 A 
HETATM    3  N1  UNL     1      22.364  -1.372  55.181  1.00  0.00    -0.246 NA
HETATM    4  C3  UNL     1      21.128  -1.416  54.677  1.00  0.00     0.235 A 
HETATM    5  N2  UNL     1      20.844  -0.935  53.477  1.00  0.00    -0.224 NA
HETATM    6  C4  UNL     1      21.800  -0.384  52.726  1.00  0.00     0.141 A 
HETATM    7  C13 UNL     1      23.106  -0.292  53.153  1.00  0.00     0.037 A 
ENDROOT
BRANCH   7   8
HETATM    8  C14 UNL     1      24.359   0.214  52.629  1.00  0.00     0.051 C 
HETATM    9  C15 UNL     1      24.673   1.481  52.660  1.00  0.00     0.070 C 
HETATM   10  O1  UNL     1      23.770   2.413  53.223  1.00  0.00    -0.344 OA
HETATM   11  C18 UNL     1      25.888   2.225  52.186  1.00  0.00     0.143 C 
HETATM   12  C16 UNL     1      23.636   3.720  52.651  1.00  0.00     0.278 C 
HETATM   13  C17 UNL     1      24.232   3.629  51.279  1.00  0.00     0.242 C 
HETATM   14  O2  UNL     1      23.694   4.360  50.374  1.00  0.00    -0.271 OA
HETATM   15  N4  UNL     1      25.346   2.792  50.902  1.00  0.00    -0.349 N 
HETATM   16  H15 UNL     1      25.544   2.732  49.888  1.00  0.00     0.163 HD
BRANCH  11  17
HETATM   17  C19 UNL     1      27.056   1.378  51.921  1.00  0.00     0.051 C 
BRANCH  17  18
HETATM   18  C20 UNL     1      28.060   1.188  52.979  1.00  0.00     0.121 C 
BRANCH  18  19
HETATM   19  N5  UNL     1      28.410  -0.031  53.527  1.00  0.00    -0.390 N 
HETATM   20  C21 UNL     1      29.741  -0.441  53.725  1.00  0.00     0.145 C 
HETATM   21  C22 UNL     1      29.722  -1.937  53.504  1.00  0.00     0.189 C 
HETATM   22  O3  UNL     1      28.457  -2.275  53.044  1.00  0.00    -0.371 OA
HETATM   23  C23 UNL     1      27.618  -1.180  53.213  1.00  0.00     0.287 C 
ENDBRANCH  18  19
ENDBRANCH  17  18
ENDBRANCH  11  17
ENDBRANCH   7   8
BRANCH   6  24
HETATM   24  N3  UNL     1      21.611   0.200  51.423  1.00  0.00    -0.340 N 
HETATM   25  H5  UNL     1      21.775  -0.071  50.405  1.00  0.00     0.167 HD
BRANCH  24  26
HETATM   26  C5  UNL     1      21.039   1.495  51.141  1.00  0.00     0.040 A 
HETATM   27  C6  UNL     1      20.422   2.308  52.099  1.00  0.00     0.030 A 
HETATM   28  C7  UNL     1      19.887   3.549  51.870  1.00  0.00     0.003 A 
HETATM   29  C8  UNL     1      19.968   4.025  50.595  1.00  0.00     0.017 A 
HETATM   30  C9  UNL     1      20.555   3.318  49.560  1.00  0.00     0.056 A 
HETATM   31  C11 UNL     1      21.067   2.080  49.872  1.00  0.00    -0.020 A 
HETATM   32  C12 UNL     1      21.696   1.349  48.743  1.00  0.00     0.051 C 
BRANCH  30  33
HETATM   33  C10 UNL     1      20.614   3.909  48.206  1.00  0.00     0.418 C 
HETATM   34  F1  UNL     1      19.833   3.198  47.315  1.00  0.00    -0.166 F 
HETATM   35  F2  UNL     1      21.900   4.131  47.749  1.00  0.00    -0.166 F 
HETATM   36  F3  UNL     1      20.036   5.181  48.258  1.00  0.00    -0.166 F 
ENDBRANCH  30  33
ENDBRANCH  24  26
ENDBRANCH   6  24
TORSDOF 7
ENDMDL
MODEL 2
REMARK VINA RESULT:      -8.4      3.951      7.780
REMARK  7 active torsions:
REMARK  status: ('A' for Active; 'I' for Inactive)
REMARK    1  A    between atoms: C4_6  and  N3_7 
REMARK    2  A    between atoms: N3_7  and  C5_8 
REMARK    3  A    between atoms: C9_12  and  C10_13 
REMARK    4  A    between atoms: C13_19  and  C14_20 
REMARK    5  A    between atoms: C18_27  and  C19_28 
REMARK    6  A    between atoms: C19_28  and  C20_29 
REMARK    7  A    between atoms: C20_29  and  N5_30 
ROOT
HETATM    1  C1  UNL     1      19.566   0.388  52.285  1.00  0.00     0.071 C 
HETATM    2  C2  UNL     1      20.950   0.136  52.831  1.00  0.00     0.046 A 
HETATM    3  N1  UNL     1      20.852  -0.464  54.049  1.00  0.00    -0.246 NA
HETATM    4  C3  UNL     1      21.974  -0.766  54.706  1.00  0.00     0.235 A 
HETATM    5  N2  UNL     1      23.171  -0.502  54.206  1.00  0.00    -0.224 NA
HETATM    6  C4  UNL     1      23.290   0.084  53.013  1.00  0.00     0.141 A 
HETATM    7  C13 UNL     1      22.195   0.438  52.257  1.00  0.00     0.037 A 
ENDROOT
BRANCH   7   8
HETATM    8  C14 UNL     1      21.950   1.069  50.975  1.00  0.00     0.051 C 
HETATM    9  C15 UNL     1      22.490   2.210  50.640  1.00  0.00     0.070 C 
HETATM   10  O1  UNL     1      23.348   2.872  51.548  1.00  0.00    -0.344 OA
HETATM   11  C18 UNL     1      22.384   3.042  49.395  1.00  0.00     0.143 C 
HETATM   12  C16 UNL     1      23.338   4.303  51.637  1.00  0.00     0.278 C 
HETATM   13  C17 UNL     1      22.059   4.742  50.990  1.00  0.00     0.242 C 
HETATM   14  O2  UNL     1      21.503   5.788  51.479  1.00  0.00    -0.271 OA
HETATM   15  N4  UNL     1      21.414   4.088  49.877  1.00  0.00    -0.349 N 
HETATM   16  H15 UNL     1      20.465   4.426  49.640  1.00  0.00     0.163 HD
BRANCH  11  17
HETATM   17  C19 UNL     1      21.839   2.332  48.233  1.00  0.00     0.051 C 
BRANCH  17  18
HETATM   18  C20 UNL     1      20.630   2.852  47.576  1.00  0.00     0.121 C 
BRANCH  18  19
HETATM   19  N5  UNL     1      20.622   3.611  46.420  1.00  0.00    -0.390 N 
HETATM   20  C21 UNL     1      19.494   3.757  45.595  1.00  0.00     0.145 C 
HETATM   21  C22 UNL     1      20.050   3.864  44.193  1.00  0.00     0.189 C 
HETATM   22  O3  UNL     1      21.415   3.616  44.265  1.00  0.00    -0.371 OA
HETATM   23  C23 UNL     1      21.796   3.629  45.602  1.00  0.00     0.287 C 
ENDBRANCH  18  19
ENDBRANCH  17  18
ENDBRANCH  11  17
ENDBRANCH   7   8
BRANCH   6  24
HETATM   24  N3  UNL     1      24.531   0.394  52.350  1.00  0.00    -0.340 N 
HETATM   25  H5  UNL     1      24.873   1.041  51.575  1.00  0.00     0.167 HD
BRANCH  24  26
HETATM   26  C5  UNL     1      25.824  -0.177  52.646  1.00  0.00     0.040 A 
HETATM   27  C6  UNL     1      26.174  -1.508  52.387  1.00  0.00     0.030 A 
HETATM   28  C7  UNL     1      27.397  -2.076  52.636  1.00  0.00     0.003 A 
HETATM   29  C8  UNL     1      28.348  -1.267  53.183  1.00  0.00     0.017 A 
HETATM   30  C9  UNL     1      28.126   0.065  53.484  1.00  0.00     0.056 A 
HETATM   31  C11 UNL     1      26.872   0.559  53.204  1.00  0.00    -0.020 A 
HETATM   32  C12 UNL     1      26.666   1.994  53.531  1.00  0.00     0.051 C 
BRANCH  30  33
HETATM   33  C10 UNL     1      29.213   0.880  54.065  1.00  0.00     0.418 C 
HETATM   34  F1  UNL     1      29.100   0.961  55.440  1.00  0.00    -0.166 F 
HETATM   35  F2  UNL     1      29.376   2.111  53.458  1.00  0.00    -0.166 F 
HETATM   36  F3  UNL     1      30.423   0.217  53.841  1.00  0.00    -0.166 F 
ENDBRANCH  30  33
ENDBRANCH  24  26
ENDBRANCH   6  24
TORSDOF 7
ENDMDL
MODEL 3
REMARK VINA RESULT:      -8.3      5.291      7.727
REMARK  7 active torsions:
REMARK  status: ('A' for Active; 'I' for Inactive)
REMARK    1  A    between atoms: C4_6  and  N3_7 
REMARK    2  A    between atoms: N3_7  and  C5_8 
REMARK    3  A    between atoms: C9_12  and  C10_13 
REMARK    4  A    between atoms: C13_19  and  C14_20 
REMARK    5  A    between atoms: C18_27  and  C19_28 
REMARK    6  A    between atoms: C19_28  and  C20_29 
REMARK    7  A    between atoms: C20_29  and  N5_30 
ROOT
HETATM    1  C1  UNL     1      23.296   5.121  48.312  1.00  0.00     0.071 C 
HETATM    2  C2  UNL     1      23.517   4.319  49.569  1.00  0.00     0.046 A 
HETATM    3  N1  UNL     1      22.314   3.908  50.058  1.00  0.00    -0.246 NA
HETATM    4  C3  UNL     1      22.292   3.183  51.180  1.00  0.00     0.235 A 
HETATM    5  N2  UNL     1      23.403   2.855  51.823  1.00  0.00    -0.224 NA
HETATM    6  C4  UNL     1      24.591   3.246  51.360  1.00  0.00     0.141 A 
HETATM    7  C13 UNL     1      24.721   3.998  50.214  1.00  0.00     0.037 A 
ENDROOT
BRANCH   7   8
HETATM    8  C14 UNL     1      25.803   4.585  49.448  1.00  0.00     0.051 C 
HETATM    9  C15 UNL     1      26.138   5.843  49.556  1.00  0.00     0.070 C 
HETATM   10  O1  UNL     1      25.431   6.681  50.449  1.00  0.00    -0.344 OA
HETATM   11  C18 UNL     1      27.200   6.659  48.878  1.00  0.00     0.143 C 
HETATM   12  C16 UNL     1      25.177   8.049  50.103  1.00  0.00     0.278 C 
HETATM   13  C17 UNL     1      25.390   8.142  48.623  1.00  0.00     0.242 C 
HETATM   14  O2  UNL     1      24.648   8.974  47.991  1.00  0.00    -0.271 OA
HETATM   15  N4  UNL     1      26.351   7.377  47.864  1.00  0.00    -0.349 N 
HETATM   16  H15 UNL     1      26.274   7.449  46.834  1.00  0.00     0.163 HD
BRANCH  11  17
HETATM   17  C19 UNL     1      28.241   5.871  48.211  1.00  0.00     0.051 C 
BRANCH  17  18
HETATM   18  C20 UNL     1      29.614   6.397  48.154  1.00  0.00     0.121 C 
BRANCH  18  19
HETATM   19  N5  UNL     1      30.749   5.682  48.487  1.00  0.00    -0.390 N 
HETATM   20  C21 UNL     1      31.807   6.213  49.245  1.00  0.00     0.145 C 
HETATM   21  C22 UNL     1      33.050   5.556  48.690  1.00  0.00     0.189 C 
HETATM   22  O3  UNL     1      32.673   4.830  47.568  1.00  0.00    -0.371 OA
HETATM   23  C23 UNL     1      31.285   4.760  47.533  1.00  0.00     0.287 C 
ENDBRANCH  18  19
ENDBRANCH  17  18
ENDBRANCH  11  17
ENDBRANCH   7   8
BRANCH   6  24
HETATM   24  N3  UNL     1      25.867   2.928  51.950  1.00  0.00    -0.340 N 
HETATM   25  H5  UNL     1      26.729   3.450  52.297  1.00  0.00     0.167 HD
BRANCH  24  26
HETATM   26  C5  UNL     1      26.348   1.609  52.286  1.00  0.00     0.040 A 
HETATM   27  C6  UNL     1      25.692   0.421  51.942  1.00  0.00     0.030 A 
HETATM   28  C7  UNL     1      26.132  -0.846  52.228  1.00  0.00     0.003 A 
HETATM   29  C8  UNL     1      27.310  -0.947  52.905  1.00  0.00     0.017 A 
HETATM   30  C9  UNL     1      28.053   0.151  53.300  1.00  0.00     0.056 A 
HETATM   31  C11 UNL     1      27.543   1.388  52.976  1.00  0.00    -0.020 A 
HETATM   32  C12 UNL     1      28.366   2.547  53.406  1.00  0.00     0.051 C 
BRANCH  30  33
HETATM   33  C10 UNL     1      29.328  -0.043  54.021  1.00  0.00     0.418 C 
HETATM   34  F1  UNL     1      29.238   0.401  55.327  1.00  0.00    -0.166 F 
HETATM   35  F2  UNL     1      30.431   0.453  53.351  1.00  0.00    -0.166 F 
HETATM   36  F3  UNL     1      29.569  -1.416  54.122  1.00  0.00    -0.166 F 
ENDBRANCH  30  33
ENDBRANCH  24  26
ENDBRANCH   6  24
TORSDOF 7
ENDMDL
MODEL 4
REMARK VINA RESULT:      -8.3      3.303      5.263
REMARK  7 active torsions:
REMARK  status: ('A' for Active; 'I' for Inactive)
REMARK    1  A    between atoms: C4_6  and  N3_7 
REMARK    2  A    between atoms: N3_7  and  C5_8 
REMARK    3  A    between atoms: C9_12  and  C10_13 
REMARK    4  A    between atoms: C13_19  and  C14_20 
REMARK    5  A    between atoms: C18_27  and  C19_28 
REMARK    6  A    between atoms: C19_28  and  C20_29 
REMARK    7  A    between atoms: C20_29  and  N5_30 
ROOT
HETATM    1  C1  UNL     1      22.905   5.265  47.625  1.00  0.00     0.071 C 
HETATM    2  C2  UNL     1      21.926   4.146  47.875  1.00  0.00     0.046 A 
HETATM    3  N1  UNL     1      20.756   4.421  47.234  1.00  0.00    -0.246 NA
HETATM    4  C3  UNL     1      19.750   3.548  47.336  1.00  0.00     0.235 A 
HETATM    5  N2  UNL     1      19.861   2.431  48.038  1.00  0.00    -0.224 NA
HETATM    6  C4  UNL     1      20.999   2.142  48.672  1.00  0.00     0.141 A 
HETATM    7  C13 UNL     1      22.093   2.976  48.631  1.00  0.00     0.037 A 
ENDROOT
BRANCH   7   8
HETATM    8  C14 UNL     1      23.436   2.991  49.179  1.00  0.00     0.051 C 
HETATM    9  C15 UNL     1      23.724   3.570  50.313  1.00  0.00     0.070 C 
HETATM   10  O1  UNL     1      22.703   4.211  51.052  1.00  0.00    -0.344 OA
HETATM   11  C18 UNL     1      25.016   3.714  51.064  1.00  0.00     0.143 C 
HETATM   12  C16 UNL     1      22.986   5.418  51.773  1.00  0.00     0.278 C 
HETATM   13  C17 UNL     1      24.269   5.942  51.204  1.00  0.00     0.242 C 
HETATM   14  O2  UNL     1      24.397   7.216  51.165  1.00  0.00    -0.271 OA
HETATM   15  N4  UNL     1      25.356   5.135  50.702  1.00  0.00    -0.349 N 
HETATM   16  H15 UNL     1      26.109   5.646  50.209  1.00  0.00     0.163 HD
BRANCH  11  17
HETATM   17  C19 UNL     1      26.080   2.804  50.628  1.00  0.00     0.051 C 
BRANCH  17  18
HETATM   18  C20 UNL     1      26.832   2.042  51.637  1.00  0.00     0.121 C 
BRANCH  18  19
HETATM   19  N5  UNL     1      26.291   1.071  52.459  1.00  0.00    -0.390 N 
HETATM   20  C21 UNL     1      25.925   1.303  53.796  1.00  0.00     0.145 C 
HETATM   21  C22 UNL     1      26.209  -0.000  54.507  1.00  0.00     0.189 C 
HETATM   22  O3  UNL     1      26.858  -0.835  53.607  1.00  0.00    -0.371 OA
HETATM   23  C23 UNL     1      26.764  -0.274  52.339  1.00  0.00     0.287 C 
ENDBRANCH  18  19
ENDBRANCH  17  18
ENDBRANCH  11  17
ENDBRANCH   7   8
BRANCH   6  24
HETATM   24  N3  UNL     1      21.252   0.949  49.438  1.00  0.00    -0.340 N 
HETATM   25  H5  UNL     1      21.917   0.116  49.407  1.00  0.00     0.167 HD
BRANCH  24  26
HETATM   26  C5  UNL     1      20.567   0.545  50.643  1.00  0.00     0.040 A 
HETATM   27  C6  UNL     1      19.188   0.311  50.722  1.00  0.00     0.030 A 
HETATM   28  C7  UNL     1      18.510  -0.093  51.843  1.00  0.00     0.003 A 
HETATM   29  C8  UNL     1      19.249  -0.279  52.973  1.00  0.00     0.017 A 
HETATM   30  C9  UNL     1      20.618  -0.081  53.023  1.00  0.00     0.056 A 
HETATM   31  C11 UNL     1      21.224   0.323  51.856  1.00  0.00    -0.020 A 
HETATM   32  C12 UNL     1      22.694   0.520  51.938  1.00  0.00     0.051 C 
BRANCH  30  33
HETATM   33  C10 UNL     1      21.350  -0.317  54.284  1.00  0.00     0.418 C 
HETATM   34  F1  UNL     1      22.657   0.124  54.195  1.00  0.00    -0.166 F 
HETATM   35  F2  UNL     1      21.242  -1.609  54.762  1.00  0.00    -0.166 F 
HETATM   36  F3  UNL     1      20.771   0.474  55.281  1.00  0.00    -0.166 F 
ENDBRANCH  30  33
ENDBRANCH  24  26
ENDBRANCH   6  24
TORSDOF 7
ENDMDL
MODEL 5
REMARK VINA RESULT:      -8.1      4.112      7.634
REMARK  7 active torsions:
REMARK  status: ('A' for Active; 'I' for Inactive)
REMARK    1  A    between atoms: C4_6  and  N3_7 
REMARK    2  A    between atoms: N3_7  and  C5_8 
REMARK    3  A    between atoms: C9_12  and  C10_13 
REMARK    4  A    between atoms: C13_19  and  C14_20 
REMARK    5  A    between atoms: C18_27  and  C19_28 
REMARK    6  A    between atoms: C19_28  and  C20_29 
REMARK    7  A    between atoms: C20_29  and  N5_30 
ROOT
HETATM    1  C1  UNL     1      20.121  -0.228  53.561  1.00  0.00     0.071 C 
HETATM    2  C2  UNL     1      21.602  -0.402  53.787  1.00  0.00     0.046 A 
HETATM    3  N1  UNL     1      21.807  -0.983  55.002  1.00  0.00    -0.246 NA
HETATM    4  C3  UNL     1      23.061  -1.219  55.396  1.00  0.00     0.235 A 
HETATM    5  N2  UNL     1      24.102  -0.906  54.640  1.00  0.00    -0.224 NA
HETATM    6  C4  UNL     1      23.924  -0.338  53.446  1.00  0.00     0.141 A 
HETATM    7  C13 UNL     1      22.672  -0.051  52.950  1.00  0.00     0.037 A 
ENDROOT
BRANCH   7   8
HETATM    8  C14 UNL     1      22.118   0.544  51.749  1.00  0.00     0.051 C 
HETATM    9  C15 UNL     1      22.543   1.681  51.269  1.00  0.00     0.070 C 
HETATM   10  O1  UNL     1      23.582   2.376  51.930  1.00  0.00    -0.344 OA
HETATM   11  C18 UNL     1      22.128   2.479  50.066  1.00  0.00     0.143 C 
HETATM   12  C16 UNL     1      23.568   3.808  51.985  1.00  0.00     0.278 C 
HETATM   13  C17 UNL     1      22.165   4.216  51.653  1.00  0.00     0.242 C 
HETATM   14  O2  UNL     1      21.724   5.269  52.236  1.00  0.00    -0.271 OA
HETATM   15  N4  UNL     1      21.285   3.526  50.742  1.00  0.00    -0.349 N 
HETATM   16  H15 UNL     1      20.300   3.848  50.732  1.00  0.00     0.163 HD
BRANCH  11  17
HETATM   17  C19 UNL     1      21.334   1.733  49.085  1.00  0.00     0.051 C 
BRANCH  17  18
HETATM   18  C20 UNL     1      20.035   2.271  48.653  1.00  0.00     0.121 C 
BRANCH  18  19
HETATM   19  N5  UNL     1      18.818   1.954  49.226  1.00  0.00    -0.390 N 
HETATM   20  C21 UNL     1      17.845   2.911  49.564  1.00  0.00     0.145 C 
HETATM   21  C22 UNL     1      17.179   2.364  50.806  1.00  0.00     0.189 C 
HETATM   22  O3  UNL     1      17.890   1.239  51.201  1.00  0.00    -0.371 OA
HETATM   23  C23 UNL     1      18.763   0.887  50.178  1.00  0.00     0.287 C 
ENDBRANCH  18  19
ENDBRANCH  17  18
ENDBRANCH  11  17
ENDBRANCH   7   8
BRANCH   6  24
HETATM   24  N3  UNL     1      24.970   0.019  52.522  1.00  0.00    -0.340 N 
HETATM   25  H5  UNL     1      25.107   0.074  51.467  1.00  0.00     0.167 HD
BRANCH  24  26
HETATM   26  C5  UNL     1      26.292   0.487  52.867  1.00  0.00     0.040 A 
HETATM   27  C6  UNL     1      26.613   1.827  53.113  1.00  0.00     0.030 A 
HETATM   28  C7  UNL     1      27.851   2.301  53.463  1.00  0.00     0.003 A 
HETATM   29  C8  UNL     1      28.850   1.380  53.577  1.00  0.00     0.017 A 
HETATM   30  C9  UNL     1      28.660   0.027  53.361  1.00  0.00     0.056 A 
HETATM   31  C11 UNL     1      27.388  -0.368  53.014  1.00  0.00    -0.020 A 
HETATM   32  C12 UNL     1      27.213  -1.827  52.795  1.00  0.00     0.051 C 
BRANCH  30  33
HETATM   33  C10 UNL     1      29.791  -0.910  53.518  1.00  0.00     0.418 C 
HETATM   34  F1  UNL     1      29.828  -1.828  52.486  1.00  0.00    -0.166 F 
HETATM   35  F2  UNL     1      29.867  -1.491  54.770  1.00  0.00    -0.166 F 
HETATM   36  F3  UNL     1      30.980  -0.184  53.397  1.00  0.00    -0.166 F 
ENDBRANCH  30  33
ENDBRANCH  24  26
ENDBRANCH   6  24
TORSDOF 7
ENDMDL
MODEL 6
REMARK VINA RESULT:      -8.1      1.971      2.526
REMARK  7 active torsions:
REMARK  status: ('A' for Active; 'I' for Inactive)
REMARK    1  A    between atoms: C4_6  and  N3_7 
REMARK    2  A    between atoms: N3_7  and  C5_8 
REMARK    3  A    between atoms: C9_12  and  C10_13 
REMARK    4  A    between atoms: C13_19  and  C14_20 
REMARK    5  A    between atoms: C18_27  and  C19_28 
REMARK    6  A    between atoms: C19_28  and  C20_29 
REMARK    7  A    between atoms: C20_29  and  N5_30 
ROOT
HETATM    1  C1  UNL     1      21.281  -0.066  54.683  1.00  0.00     0.071 C 
HETATM    2  C2  UNL     1      20.606   0.023  53.338  1.00  0.00     0.046 A 
HETATM    3  N1  UNL     1      19.339  -0.466  53.437  1.00  0.00    -0.246 NA
HETATM    4  C3  UNL     1      18.570  -0.481  52.344  1.00  0.00     0.235 A 
HETATM    5  N2  UNL     1      19.006  -0.033  51.177  1.00  0.00    -0.224 NA
HETATM    6  C4  UNL     1      20.243   0.452  51.058  1.00  0.00     0.141 A 
HETATM    7  C13 UNL     1      21.114   0.509  52.123  1.00  0.00     0.037 A 
ENDROOT
BRANCH   7   8
HETATM    8  C14 UNL     1      22.477   0.945  52.357  1.00  0.00     0.051 C 
HETATM    9  C15 UNL     1      22.802   2.205  52.461  1.00  0.00     0.070 C 
HETATM   10  O1  UNL     1      21.802   3.199  52.344  1.00  0.00    -0.344 OA
HETATM   11  C18 UNL     1      24.121   2.884  52.695  1.00  0.00     0.143 C 
HETATM   12  C16 UNL     1      22.097   4.443  51.697  1.00  0.00     0.278 C 
HETATM   13  C17 UNL     1      23.349   4.207  50.908  1.00  0.00     0.242 C 
HETATM   14  O2  UNL     1      23.457   4.850  49.805  1.00  0.00    -0.271 OA
HETATM   15  N4  UNL     1      24.426   3.325  51.289  1.00  0.00    -0.349 N 
HETATM   16  H15 UNL     1      25.152   3.160  50.569  1.00  0.00     0.163 HD
BRANCH  11  17
HETATM   17  C19 UNL     1      25.179   2.002  53.198  1.00  0.00     0.051 C 
BRANCH  17  18
HETATM   18  C20 UNL     1      26.531   2.104  52.627  1.00  0.00     0.121 C 
BRANCH  18  19
HETATM   19  N5  UNL     1      27.654   1.483  53.139  1.00  0.00    -0.390 N 
HETATM   20  C21 UNL     1      27.616   0.264  53.839  1.00  0.00     0.145 C 
HETATM   21  C22 UNL     1      28.718   0.374  54.868  1.00  0.00     0.189 C 
HETATM   22  O3  UNL     1      29.207   1.672  54.820  1.00  0.00    -0.371 OA
HETATM   23  C23 UNL     1      28.700   2.292  53.684  1.00  0.00     0.287 C 
ENDBRANCH  18  19
ENDBRANCH  17  18
ENDBRANCH  11  17
ENDBRANCH   7   8
BRANCH   6  24
HETATM   24  N3  UNL     1      20.820   0.994  49.854  1.00  0.00    -0.340 N 
HETATM   25  H5  UNL     1      21.574   0.727  49.150  1.00  0.00     0.167 HD
BRANCH  24  26
HETATM   26  C5  UNL     1      20.432   2.220  49.197  1.00  0.00     0.040 A 
HETATM   27  C6  UNL     1      19.306   2.976  49.545  1.00  0.00     0.030 A 
HETATM   28  C7  UNL     1      18.922   4.153  48.956  1.00  0.00     0.003 A 
HETATM   29  C8  UNL     1      19.709   4.619  47.946  1.00  0.00     0.017 A 
HETATM   30  C9  UNL     1      20.847   3.964  47.510  1.00  0.00     0.056 A 
HETATM   31  C11 UNL     1      21.165   2.789  48.152  1.00  0.00    -0.020 A 
HETATM   32  C12 UNL     1      22.396   2.112  47.669  1.00  0.00     0.051 C 
BRANCH  30  33
HETATM   33  C10 UNL     1      21.655   4.540  46.416  1.00  0.00     0.418 C 
HETATM   34  F1  UNL     1      21.786   3.650  45.367  1.00  0.00    -0.166 F 
HETATM   35  F2  UNL     1      22.860   5.075  46.832  1.00  0.00    -0.166 F 
HETATM   36  F3  UNL     1      20.956   5.626  45.881  1.00  0.00    -0.166 F 
ENDBRANCH  30  33
ENDBRANCH  24  26
ENDBRANCH   6  24
TORSDOF 7
ENDMDL
MODEL 7
REMARK VINA RESULT:      -8.0      4.342      6.861
REMARK  7 active torsions:
REMARK  status: ('A' for Active; 'I' for Inactive)
REMARK    1  A    between atoms: C4_6  and  N3_7 
REMARK    2  A    between atoms: N3_7  and  C5_8 
REMARK    3  A    between atoms: C9_12  and  C10_13 
REMARK    4  A    between atoms: C13_19  and  C14_20 
REMARK    5  A    between atoms: C18_27  and  C19_28 
REMARK    6  A    between atoms: C19_28  and  C20_29 
REMARK    7  A    between atoms: C20_29  and  N5_30 
ROOT
HETATM    1  C1  UNL     1      20.369   4.764  51.036  1.00  0.00     0.071 C 
HETATM    2  C2  UNL     1      21.397   5.839  50.788  1.00  0.00     0.046 A 
HETATM    3  N1  UNL     1      20.788   6.929  50.246  1.00  0.00    -0.246 NA
HETATM    4  C3  UNL     1      21.533   7.996  49.945  1.00  0.00     0.235 A 
HETATM    5  N2  UNL     1      22.839   8.020  50.161  1.00  0.00    -0.224 NA
HETATM    6  C4  UNL     1      23.456   6.964  50.692  1.00  0.00     0.141 A 
HETATM    7  C13 UNL     1      22.779   5.815  51.035  1.00  0.00     0.037 A 
ENDROOT
BRANCH   7   8
HETATM    8  C14 UNL     1      23.104   4.521  51.604  1.00  0.00     0.051 C 
HETATM    9  C15 UNL     1      23.412   3.488  50.867  1.00  0.00     0.070 C 
HETATM   10  O1  UNL     1      23.434   3.614  49.459  1.00  0.00    -0.344 OA
HETATM   11  C18 UNL     1      23.775   2.076  51.223  1.00  0.00     0.143 C 
HETATM   12  C16 UNL     1      22.997   2.528  48.632  1.00  0.00     0.278 C 
HETATM   13  C17 UNL     1      22.205   1.625  49.529  1.00  0.00     0.242 C 
HETATM   14  O2  UNL     1      21.218   1.009  48.991  1.00  0.00    -0.271 OA
HETATM   15  N4  UNL     1      22.462   1.401  50.931  1.00  0.00    -0.349 N 
HETATM   16  H15 UNL     1      21.739   0.865  51.444  1.00  0.00     0.163 HD
BRANCH  11  17
HETATM   17  C19 UNL     1      24.153   1.879  52.627  1.00  0.00     0.051 C 
BRANCH  17  18
HETATM   18  C20 UNL     1      24.907   0.674  53.005  1.00  0.00     0.121 C 
BRANCH  18  19
HETATM   19  N5  UNL     1      26.224   0.665  53.426  1.00  0.00    -0.390 N 
HETATM   20  C21 UNL     1      27.293   0.234  52.622  1.00  0.00     0.145 C 
HETATM   21  C22 UNL     1      28.270  -0.403  53.585  1.00  0.00     0.189 C 
HETATM   22  O3  UNL     1      27.656  -0.452  54.830  1.00  0.00    -0.371 OA
HETATM   23  C23 UNL     1      26.508   0.330  54.788  1.00  0.00     0.287 C 
ENDBRANCH  18  19
ENDBRANCH  17  18
ENDBRANCH  11  17
ENDBRANCH   7   8
BRANCH   6  24
HETATM   24  N3  UNL     1      24.860   6.880  51.002  1.00  0.00    -0.340 N 
HETATM   25  H5  UNL     1      25.481   6.892  51.868  1.00  0.00     0.167 HD
BRANCH  24  26
HETATM   26  C5  UNL     1      25.936   6.708  50.054  1.00  0.00     0.040 A 
HETATM   27  C6  UNL     1      26.304   5.477  49.496  1.00  0.00     0.030 A 
HETATM   28  C7  UNL     1      27.304   5.283  48.579  1.00  0.00     0.003 A 
HETATM   29  C8  UNL     1      27.995   6.388  48.183  1.00  0.00     0.017 A 
HETATM   30  C9  UNL     1      27.727   7.660  48.659  1.00  0.00     0.056 A 
HETATM   31  C11 UNL     1      26.708   7.771  49.577  1.00  0.00    -0.020 A 
HETATM   32  C12 UNL     1      26.438   9.147  50.064  1.00  0.00     0.051 C 
BRANCH  30  33
HETATM   33  C10 UNL     1      28.514   8.810  48.170  1.00  0.00     0.418 C 
HETATM   34  F1  UNL     1      29.250   9.384  49.189  1.00  0.00    -0.166 F 
HETATM   35  F2  UNL     1      27.774   9.728  47.448  1.00  0.00    -0.166 F 
HETATM   36  F3  UNL     1      29.465   8.336  47.261  1.00  0.00    -0.166 F 
ENDBRANCH  30  33
ENDBRANCH  24  26
ENDBRANCH   6  24
TORSDOF 7
ENDMDL
MODEL 8
REMARK VINA RESULT:      -8.0      4.073      6.426
REMARK  7 active torsions:
REMARK  status: ('A' for Active; 'I' for Inactive)
REMARK    1  A    between atoms: C4_6  and  N3_7 
REMARK    2  A    between atoms: N3_7  and  C5_8 
REMARK    3  A    between atoms: C9_12  and  C10_13 
REMARK    4  A    between atoms: C13_19  and  C14_20 
REMARK    5  A    between atoms: C18_27  and  C19_28 
REMARK    6  A    between atoms: C19_28  and  C20_29 
REMARK    7  A    between atoms: C20_29  and  N5_30 
ROOT
HETATM    1  C1  UNL     1      21.716   1.408  48.280  1.00  0.00     0.071 C 
HETATM    2  C2  UNL     1      22.147   2.826  48.003  1.00  0.00     0.046 A 
HETATM    3  N1  UNL     1      21.490   3.291  46.905  1.00  0.00    -0.246 NA
HETATM    4  C3  UNL     1      21.739   4.535  46.488  1.00  0.00     0.235 A 
HETATM    5  N2  UNL     1      22.602   5.323  47.112  1.00  0.00    -0.224 NA
HETATM    6  C4  UNL     1      23.255   4.888  48.191  1.00  0.00     0.141 A 
HETATM    7  C13 UNL     1      23.072   3.622  48.699  1.00  0.00     0.037 A 
ENDROOT
BRANCH   7   8
HETATM    8  C14 UNL     1      23.591   2.835  49.801  1.00  0.00     0.051 C 
HETATM    9  C15 UNL     1      23.154   2.968  51.024  1.00  0.00     0.070 C 
HETATM   10  O1  UNL     1      22.136   3.908  51.307  1.00  0.00    -0.344 OA
HETATM   11  C18 UNL     1      23.533   2.280  52.304  1.00  0.00     0.143 C 
HETATM   12  C16 UNL     1      22.154   4.640  52.540  1.00  0.00     0.278 C 
HETATM   13  C17 UNL     1      23.547   4.504  53.074  1.00  0.00     0.242 C 
HETATM   14  O2  UNL     1      24.008   5.506  53.727  1.00  0.00    -0.271 OA
HETATM   15  N4  UNL     1      24.399   3.350  52.913  1.00  0.00    -0.349 N 
HETATM   16  H15 UNL     1      25.383   3.467  53.213  1.00  0.00     0.163 HD
BRANCH  11  17
HETATM   17  C19 UNL     1      24.296   1.040  52.126  1.00  0.00     0.051 C 
BRANCH  17  18
HETATM   18  C20 UNL     1      24.622   0.222  53.305  1.00  0.00     0.121 C 
BRANCH  18  19
HETATM   19  N5  UNL     1      25.895  -0.182  53.659  1.00  0.00    -0.390 N 
HETATM   20  C21 UNL     1      26.508   0.164  54.876  1.00  0.00     0.145 C 
HETATM   21  C22 UNL     1      27.977   0.301  54.543  1.00  0.00     0.189 C 
HETATM   22  O3  UNL     1      28.105   0.193  53.165  1.00  0.00    -0.371 OA
HETATM   23  C23 UNL     1      26.899  -0.261  52.644  1.00  0.00     0.287 C 
ENDBRANCH  18  19
ENDBRANCH  17  18
ENDBRANCH  11  17
ENDBRANCH   7   8
BRANCH   6  24
HETATM   24  N3  UNL     1      24.192   5.656  48.971  1.00  0.00    -0.340 N 
HETATM   25  H5  UNL     1      24.183   6.250  49.856  1.00  0.00     0.167 HD
BRANCH  24  26
HETATM   26  C5  UNL     1      25.602   5.810  48.704  1.00  0.00     0.040 A 
HETATM   27  C6  UNL     1      26.572   4.852  49.023  1.00  0.00     0.030 A 
HETATM   28  C7  UNL     1      27.915   4.958  48.766  1.00  0.00     0.003 A 
HETATM   29  C8  UNL     1      28.332   6.098  48.146  1.00  0.00     0.017 A 
HETATM   30  C9  UNL     1      27.472   7.118  47.780  1.00  0.00     0.056 A 
HETATM   31  C11 UNL     1      26.140   6.936  48.074  1.00  0.00    -0.020 A 
HETATM   32  C12 UNL     1      25.240   8.044  47.662  1.00  0.00     0.051 C 
BRANCH  30  33
HETATM   33  C10 UNL     1      28.001   8.319  47.100  1.00  0.00     0.418 C 
HETATM   34  F1  UNL     1      27.869   9.443  47.894  1.00  0.00    -0.166 F 
HETATM   35  F2  UNL     1      27.515   8.496  45.818  1.00  0.00    -0.166 F 
HETATM   36  F3  UNL     1      29.379   8.155  46.933  1.00  0.00    -0.166 F 
ENDBRANCH  30  33
ENDBRANCH  24  26
ENDBRANCH   6  24
TORSDOF 7
ENDMDL
MODEL 9
REMARK VINA RESULT:      -7.9      3.131      5.368
REMARK  7 active torsions:
REMARK  status: ('A' for Active; 'I' for Inactive)
REMARK    1  A    between atoms: C4_6  and  N3_7 
REMARK    2  A    between atoms: N3_7  and  C5_8 
REMARK    3  A    between atoms: C9_12  and  C10_13 
REMARK    4  A    between atoms: C13_19  and  C14_20 
REMARK    5  A    between atoms: C18_27  and  C19_28 
REMARK    6  A    between atoms: C19_28  and  C20_29 
REMARK    7  A    between atoms: C20_29  and  N5_30 
ROOT
HETATM    1  C1  UNL     1      28.308   2.462  53.321  1.00  0.00     0.071 C 
HETATM    2  C2  UNL     1      27.249   1.423  53.591  1.00  0.00     0.046 A 
HETATM    3  N1  UNL     1      27.551   0.761  54.743  1.00  0.00    -0.246 NA
HETATM    4  C3  UNL     1      26.733  -0.210  55.157  1.00  0.00     0.235 A 
HETATM    5  N2  UNL     1      25.643  -0.542  54.482  1.00  0.00    -0.224 NA
HETATM    6  C4  UNL     1      25.327   0.095  53.353  1.00  0.00     0.141 A 
HETATM    7  C13 UNL     1      26.106   1.108  52.840  1.00  0.00     0.037 A 
ENDROOT
BRANCH   7   8
HETATM    8  C14 UNL     1      26.081   1.984  51.685  1.00  0.00     0.051 C 
HETATM    9  C15 UNL     1      25.410   3.104  51.667  1.00  0.00     0.070 C 
HETATM   10  O1  UNL     1      24.673   3.497  52.808  1.00  0.00    -0.344 OA
HETATM   11  C18 UNL     1      25.237   4.152  50.606  1.00  0.00     0.143 C 
HETATM   12  C16 UNL     1      23.415   4.167  52.657  1.00  0.00     0.278 C 
HETATM   13  C17 UNL     1      22.984   3.912  51.245  1.00  0.00     0.242 C 
HETATM   14  O2  UNL     1      21.723   3.806  51.044  1.00  0.00    -0.271 OA
HETATM   15  N4  UNL     1      23.866   3.778  50.110  1.00  0.00    -0.349 N 
HETATM   16  H15 UNL     1      23.425   3.458  49.229  1.00  0.00     0.163 HD
BRANCH  11  17
HETATM   17  C19 UNL     1      26.215   4.082  49.515  1.00  0.00     0.051 C 
BRANCH  17  18
HETATM   18  C20 UNL     1      26.415   5.258  48.654  1.00  0.00     0.121 C 
BRANCH  18  19
HETATM   19  N5  UNL     1      27.343   6.256  48.882  1.00  0.00    -0.390 N 
HETATM   20  C21 UNL     1      26.997   7.591  49.154  1.00  0.00     0.145 C 
HETATM   21  C22 UNL     1      28.095   8.414  48.519  1.00  0.00     0.189 C 
HETATM   22  O3  UNL     1      28.902   7.545  47.796  1.00  0.00    -0.371 OA
HETATM   23  C23 UNL     1      28.566   6.241  48.139  1.00  0.00     0.287 C 
ENDBRANCH  18  19
ENDBRANCH  17  18
ENDBRANCH  11  17
ENDBRANCH   7   8
BRANCH   6  24
HETATM   24  N3  UNL     1      24.158  -0.153  52.549  1.00  0.00    -0.340 N 
HETATM   25  H5  UNL     1      23.932  -0.386  51.534  1.00  0.00     0.167 HD
BRANCH  24  26
HETATM   26  C5  UNL     1      22.790  -0.166  53.011  1.00  0.00     0.040 A 
HETATM   27  C6  UNL     1      22.404  -0.504  54.314  1.00  0.00     0.030 A 
HETATM   28  C7  UNL     1      21.118  -0.507  54.790  1.00  0.00     0.003 A 
HETATM   29  C8  UNL     1      20.138  -0.150  53.912  1.00  0.00     0.017 A 
HETATM   30  C9  UNL     1      20.392   0.205  52.599  1.00  0.00     0.056 A 
HETATM   31  C11 UNL     1      21.708   0.182  52.199  1.00  0.00    -0.020 A 
HETATM   32  C12 UNL     1      21.950   0.575  50.786  1.00  0.00     0.051 C 
BRANCH  30  33
HETATM   33  C10 UNL     1      19.275   0.591  51.712  1.00  0.00     0.418 C 
HETATM   34  F1  UNL     1      19.255  -0.181  50.566  1.00  0.00    -0.166 F 
HETATM   35  F2  UNL     1      19.207   1.948  51.457  1.00  0.00    -0.166 F 
HETATM   36  F3  UNL     1      18.075   0.297  52.366  1.00  0.00    -0.166 F 
ENDBRANCH  30  33
ENDBRANCH  24  26
ENDBRANCH   6  24
TORSDOF 7
ENDMDL
