MODEL 1
REMARK VINA RESULT:      -7.7      0.000      0.000
REMARK  6 active torsions:
REMARK  status: ('A' for Active; 'I' for Inactive)
REMARK    1  A    between atoms: N1_1  and  C1_2 
REMARK    2  A    between atoms: C6_8  and  N3_9 
REMARK    3  A    between atoms: N3_9  and  C7_10 
REMARK    4  A    between atoms: C7_10  and  C8_11 
REMARK    5  A    between atoms: C11_15  and  N4_16 
REMARK    6  A    between atoms: N4_16  and  C12_17 
ROOT
HETATM    1  C1  UNL     1      25.496   3.362  50.523  1.00  0.00     0.071 A 
HETATM    2  C2  UNL     1      24.764   3.361  49.337  1.00  0.00     0.148 A 
HETATM    3  N2  UNL     1      23.537   2.793  49.354  1.00  0.00    -0.258 NA
HETATM    4  C3  UNL     1      23.015   2.241  50.466  1.00  0.00     0.069 A 
HETATM    5  C4  UNL     1      21.750   1.663  50.455  1.00  0.00     0.035 A 
HETATM    6  C5  UNL     1      21.249   1.103  51.627  1.00  0.00     0.031 A 
HETATM    7  C6  UNL     1      21.966   1.101  52.804  1.00  0.00     0.029 A 
HETATM    8  C9  UNL     1      23.240   1.674  52.844  1.00  0.00     0.045 A 
HETATM    9  C10 UNL     1      23.707   2.221  51.661  1.00  0.00     0.024 A 
HETATM   10  C11 UNL     1      24.961   2.796  51.665  1.00  0.00     0.073 A 
ENDROOT
BRANCH  10  11
HETATM   11  N4  UNL     1      25.807   2.864  52.800  1.00  0.00    -0.354 N 
HETATM   12  H11 UNL     1      25.708   3.628  53.480  1.00  0.00     0.166 HD
BRANCH  11  13
HETATM   13  C12 UNL     1      26.796   1.885  53.014  1.00  0.00     0.033 A 
HETATM   14  C13 UNL     1      28.031   2.245  53.518  1.00  0.00     0.029 A 
HETATM   15  C14 UNL     1      29.008   1.282  53.730  1.00  0.00     0.004 A 
HETATM   16  C15 UNL     1      28.793  -0.048  53.453  1.00  0.00     0.019 A 
HETATM   17  C16 UNL     1      27.559  -0.410  52.949  1.00  0.00     0.013 A 
HETATM   18 BR1  UNL     1      27.244  -2.251  52.560  1.00  0.00    -0.051 Br
HETATM   19  C17 UNL     1      26.591   0.557  52.741  1.00  0.00     0.048 A 
ENDBRANCH  11  13
ENDBRANCH  10  11
BRANCH   1  20
HETATM   20  N1  UNL     1      26.769   3.971  50.438  1.00  0.00    -0.396 N 
HETATM   21  H1  UNL     1      27.537   4.138  49.761  1.00  0.00     0.156 HD
HETATM   22  H2  UNL     1      27.260   4.469  51.221  1.00  0.00     0.156 HD
ENDBRANCH   1  20
BRANCH   7  23
HETATM   23  N3  UNL     1      21.394   0.511  53.966  1.00  0.00    -0.384 N 
HETATM   24  H6  UNL     1      21.394   0.993  54.884  1.00  0.00     0.160 HD
BRANCH  23  25
HETATM   25  C7  UNL     1      20.804  -0.808  53.812  1.00  0.00     0.189 C 
BRANCH  25  26
HETATM   26  C8  UNL     1      21.617  -1.867  54.478  1.00  0.00     0.250 C 
HETATM   27  O1  UNL     1      22.377  -1.871  55.421  1.00  0.00    -0.305 OA
ENDBRANCH  25  26
ENDBRANCH  23  25
ENDBRANCH   7  23
TORSDOF 6
ENDMDL
MODEL 2
REMARK VINA RESULT:      -7.5      3.029      6.121
REMARK  6 active torsions:
REMARK  status: ('A' for Active; 'I' for Inactive)
REMARK    1  A    between atoms: N1_1  and  C1_2 
REMARK    2  A    between atoms: C6_8  and  N3_9 
REMARK    3  A    between atoms: N3_9  and  C7_10 
REMARK    4  A    between atoms: C7_10  and  C8_11 
REMARK    5  A    between atoms: C11_15  and  N4_16 
REMARK    6  A    between atoms: N4_16  and  C12_17 
ROOT
HETATM    1  C1  UNL     1      20.931  -0.194  52.931  1.00  0.00     0.071 A 
HETATM    2  C2  UNL     1      20.645  -0.891  54.104  1.00  0.00     0.148 A 
HETATM    3  N2  UNL     1      21.682  -1.226  54.905  1.00  0.00    -0.258 NA
HETATM    4  C3  UNL     1      22.957  -0.910  54.605  1.00  0.00     0.069 A 
HETATM    5  C4  UNL     1      24.003  -1.269  55.447  1.00  0.00     0.035 A 
HETATM    6  C5  UNL     1      25.306  -0.922  55.098  1.00  0.00     0.031 A 
HETATM    7  C6  UNL     1      25.595  -0.232  53.940  1.00  0.00     0.029 A 
HETATM    8  C9  UNL     1      24.563   0.140  53.075  1.00  0.00     0.045 A 
HETATM    9  C10 UNL     1      23.281  -0.221  53.453  1.00  0.00     0.024 A 
HETATM   10  C11 UNL     1      22.238   0.132  52.621  1.00  0.00     0.073 A 
ENDROOT
BRANCH  10  11
HETATM   11  N4  UNL     1      22.390   0.839  51.404  1.00  0.00    -0.354 N 
HETATM   12  H11 UNL     1      22.205   0.376  50.505  1.00  0.00     0.166 HD
BRANCH  11  13
HETATM   13  C12 UNL     1      22.796   2.186  51.405  1.00  0.00     0.033 A 
HETATM   14  C13 UNL     1      22.153   3.105  52.213  1.00  0.00     0.029 A 
HETATM   15  C14 UNL     1      22.552   4.434  52.217  1.00  0.00     0.004 A 
HETATM   16  C15 UNL     1      23.586   4.887  51.431  1.00  0.00     0.019 A 
HETATM   17  C16 UNL     1      24.230   3.971  50.622  1.00  0.00     0.013 A 
HETATM   18 BR1  UNL     1      25.667   4.583  49.527  1.00  0.00    -0.051 Br
HETATM   19  C17 UNL     1      23.825   2.648  50.626  1.00  0.00     0.048 A 
ENDBRANCH  11  13
ENDBRANCH  10  11
BRANCH   1  20
HETATM   20  N1  UNL     1      19.805   0.127  52.140  1.00  0.00    -0.396 N 
HETATM   21  H1  UNL     1      19.283  -0.211  51.309  1.00  0.00     0.156 HD
HETATM   22  H2  UNL     1      19.163   0.944  52.295  1.00  0.00     0.156 HD
ENDBRANCH   1  20
BRANCH   7  23
HETATM   23  N3  UNL     1      26.949   0.091  53.643  1.00  0.00    -0.384 N 
HETATM   24  H6  UNL     1      27.274   0.260  52.674  1.00  0.00     0.160 HD
BRANCH  23  25
HETATM   25  C7  UNL     1      27.866   0.175  54.767  1.00  0.00     0.189 C 
BRANCH  25  26
HETATM   26  C8  UNL     1      29.012   1.091  54.488  1.00  0.00     0.250 C 
HETATM   27  O1  UNL     1      29.323   2.190  54.891  1.00  0.00    -0.305 OA
ENDBRANCH  25  26
ENDBRANCH  23  25
ENDBRANCH   7  23
TORSDOF 6
ENDMDL
MODEL 3
REMARK VINA RESULT:      -7.4      2.965      5.209
REMARK  6 active torsions:
REMARK  status: ('A' for Active; 'I' for Inactive)
REMARK    1  A    between atoms: N1_1  and  C1_2 
REMARK    2  A    between atoms: C6_8  and  N3_9 
REMARK    3  A    between atoms: N3_9  and  C7_10 
REMARK    4  A    between atoms: C7_10  and  C8_11 
REMARK    5  A    between atoms: C11_15  and  N4_16 
REMARK    6  A    between atoms: N4_16  and  C12_17 
ROOT
HETATM    1  C1  UNL     1      22.318   0.284  52.283  1.00  0.00     0.071 A 
HETATM    2  C2  UNL     1      21.459   0.255  51.186  1.00  0.00     0.148 A 
HETATM    3  N2  UNL     1      21.704   1.113  50.171  1.00  0.00    -0.258 NA
HETATM    4  C3  UNL     1      22.738   1.977  50.192  1.00  0.00     0.069 A 
HETATM    5  C4  UNL     1      22.967   2.849  49.133  1.00  0.00     0.035 A 
HETATM    6  C5  UNL     1      24.046   3.726  49.197  1.00  0.00     0.031 A 
HETATM    7  C6  UNL     1      24.901   3.760  50.278  1.00  0.00     0.029 A 
HETATM    8  C9  UNL     1      24.694   2.895  51.356  1.00  0.00     0.045 A 
HETATM    9  C10 UNL     1      23.612   2.037  51.259  1.00  0.00     0.024 A 
HETATM   10  C11 UNL     1      23.379   1.170  52.307  1.00  0.00     0.073 A 
ENDROOT
BRANCH  10  11
HETATM   11  N4  UNL     1      24.174   1.096  53.477  1.00  0.00    -0.354 N 
HETATM   12  H11 UNL     1      23.810   1.436  54.377  1.00  0.00     0.166 HD
BRANCH  11  13
HETATM   13  C12 UNL     1      25.473   0.558  53.427  1.00  0.00     0.033 A 
HETATM   14  C13 UNL     1      25.689  -0.683  52.857  1.00  0.00     0.029 A 
HETATM   15  C14 UNL     1      26.969  -1.216  52.806  1.00  0.00     0.004 A 
HETATM   16  C15 UNL     1      28.059  -0.545  53.310  1.00  0.00     0.019 A 
HETATM   17  C16 UNL     1      27.846   0.695  53.880  1.00  0.00     0.013 A 
HETATM   18 BR1  UNL     1      29.348   1.639  54.584  1.00  0.00    -0.051 Br
HETATM   19  C17 UNL     1      26.566   1.218  53.926  1.00  0.00     0.048 A 
ENDBRANCH  11  13
ENDBRANCH  10  11
BRANCH   1  20
HETATM   20  N1  UNL     1      22.007  -0.638  53.309  1.00  0.00    -0.396 N 
HETATM   21  H1  UNL     1      21.312  -1.370  53.548  1.00  0.00     0.156 HD
HETATM   22  H2  UNL     1      22.549  -0.765  54.199  1.00  0.00     0.156 HD
ENDBRANCH   1  20
BRANCH   7  23
HETATM   23  N3  UNL     1      25.986   4.681  50.279  1.00  0.00    -0.384 N 
HETATM   24  H6  UNL     1      26.659   4.737  51.064  1.00  0.00     0.160 HD
BRANCH  23  25
HETATM   25  C7  UNL     1      26.111   5.550  49.121  1.00  0.00     0.189 C 
BRANCH  25  26
HETATM   26  C8  UNL     1      27.503   5.569  48.582  1.00  0.00     0.250 C 
HETATM   27  O1  UNL     1      28.373   4.732  48.478  1.00  0.00    -0.305 OA
ENDBRANCH  25  26
ENDBRANCH  23  25
ENDBRANCH   7  23
TORSDOF 6
ENDMDL
MODEL 4
REMARK VINA RESULT:      -7.3      3.390      5.484
REMARK  6 active torsions:
REMARK  status: ('A' for Active; 'I' for Inactive)
REMARK    1  A    between atoms: N1_1  and  C1_2 
REMARK    2  A    between atoms: C6_8  and  N3_9 
REMARK    3  A    between atoms: N3_9  and  C7_10 
REMARK    4  A    between atoms: C7_10  and  C8_11 
REMARK    5  A    between atoms: C11_15  and  N4_16 
REMARK    6  A    between atoms: N4_16  and  C12_17 
ROOT
HETATM    1  C1  UNL     1      22.612   2.855  51.179  1.00  0.00     0.071 A 
HETATM    2  C2  UNL     1      21.925   1.642  51.168  1.00  0.00     0.148 A 
HETATM    3  N2  UNL     1      22.437   0.622  51.893  1.00  0.00    -0.258 NA
HETATM    4  C3  UNL     1      23.570   0.746  52.611  1.00  0.00     0.069 A 
HETATM    5  C4  UNL     1      24.074  -0.320  53.348  1.00  0.00     0.035 A 
HETATM    6  C5  UNL     1      25.249  -0.148  54.076  1.00  0.00     0.031 A 
HETATM    7  C6  UNL     1      25.933   1.049  54.091  1.00  0.00     0.029 A 
HETATM    8  C9  UNL     1      25.450   2.136  53.360  1.00  0.00     0.045 A 
HETATM    9  C10 UNL     1      24.280   1.930  52.648  1.00  0.00     0.024 A 
HETATM   10  C11 UNL     1      23.775   2.984  51.915  1.00  0.00     0.073 A 
ENDROOT
BRANCH  10  11
HETATM   11  N4  UNL     1      24.372   4.266  51.840  1.00  0.00    -0.354 N 
HETATM   12  H11 UNL     1      24.195   4.969  52.569  1.00  0.00     0.166 HD
BRANCH  11  13
HETATM   13  C12 UNL     1      25.219   4.598  50.765  1.00  0.00     0.033 A 
HETATM   14  C13 UNL     1      26.153   3.687  50.309  1.00  0.00     0.029 A 
HETATM   15  C14 UNL     1      26.988   4.012  49.250  1.00  0.00     0.004 A 
HETATM   16  C15 UNL     1      26.924   5.233  48.619  1.00  0.00     0.019 A 
HETATM   17  C16 UNL     1      25.991   6.145  49.073  1.00  0.00     0.013 A 
HETATM   18 BR1  UNL     1      25.890   7.843  48.207  1.00  0.00    -0.051 Br
HETATM   19  C17 UNL     1      25.163   5.812  50.129  1.00  0.00     0.048 A 
ENDBRANCH  11  13
ENDBRANCH  10  11
BRANCH   1  20
HETATM   20  N1  UNL     1      22.024   3.879  50.402  1.00  0.00    -0.396 N 
HETATM   21  H1  UNL     1      21.865   4.147  49.412  1.00  0.00     0.156 HD
HETATM   22  H2  UNL     1      21.542   4.731  50.781  1.00  0.00     0.156 HD
ENDBRANCH   1  20
BRANCH   7  23
HETATM   23  N3  UNL     1      27.128   1.157  54.856  1.00  0.00    -0.384 N 
HETATM   24  H6  UNL     1      27.331   1.985  55.446  1.00  0.00     0.160 HD
BRANCH  23  25
HETATM   25  C7  UNL     1      28.062   0.047  54.777  1.00  0.00     0.189 C 
BRANCH  25  26
HETATM   26  C8  UNL     1      29.219   0.350  53.884  1.00  0.00     0.250 C 
HETATM   27  O1  UNL     1      30.111  -0.319  53.412  1.00  0.00    -0.305 OA
ENDBRANCH  25  26
ENDBRANCH  23  25
ENDBRANCH   7  23
TORSDOF 6
ENDMDL
MODEL 5
REMARK VINA RESULT:      -7.3      2.949      4.915
REMARK  6 active torsions:
REMARK  status: ('A' for Active; 'I' for Inactive)
REMARK    1  A    between atoms: N1_1  and  C1_2 
REMARK    2  A    between atoms: C6_8  and  N3_9 
REMARK    3  A    between atoms: N3_9  and  C7_10 
REMARK    4  A    between atoms: C7_10  and  C8_11 
REMARK    5  A    between atoms: C11_15  and  N4_16 
REMARK    6  A    between atoms: N4_16  and  C12_17 
ROOT
HETATM    1  C1  UNL     1      26.255   0.824  52.772  1.00  0.00     0.071 A 
HETATM    2  C2  UNL     1      26.970   0.255  53.825  1.00  0.00     0.148 A 
HETATM    3  N2  UNL     1      26.280  -0.470  54.734  1.00  0.00    -0.258 NA
HETATM    4  C3  UNL     1      24.948  -0.653  54.649  1.00  0.00     0.069 A 
HETATM    5  C4  UNL     1      24.264  -1.403  55.600  1.00  0.00     0.035 A 
HETATM    6  C5  UNL     1      22.886  -1.565  55.474  1.00  0.00     0.031 A 
HETATM    7  C6  UNL     1      22.174  -1.005  54.435  1.00  0.00     0.029 A 
HETATM    8  C9  UNL     1      22.835  -0.246  53.467  1.00  0.00     0.045 A 
HETATM    9  C10 UNL     1      24.204  -0.105  53.623  1.00  0.00     0.024 A 
HETATM   10  C11 UNL     1      24.889   0.639  52.684  1.00  0.00     0.073 A 
ENDROOT
BRANCH  10  11
HETATM   11  N4  UNL     1      24.286   1.270  51.568  1.00  0.00    -0.354 N 
HETATM   12  H11 UNL     1      23.990   0.718  50.753  1.00  0.00     0.166 HD
BRANCH  11  13
HETATM   13  C12 UNL     1      24.082   2.662  51.559  1.00  0.00     0.033 A 
HETATM   14  C13 UNL     1      23.630   3.306  52.695  1.00  0.00     0.029 A 
HETATM   15  C14 UNL     1      23.428   4.679  52.688  1.00  0.00     0.004 A 
HETATM   16  C15 UNL     1      23.666   5.445  51.570  1.00  0.00     0.019 A 
HETATM   17  C16 UNL     1      24.118   4.804  50.434  1.00  0.00     0.013 A 
HETATM   18 BR1  UNL     1      24.453   5.853  48.875  1.00  0.00    -0.051 Br
HETATM   19  C17 UNL     1      24.316   3.435  50.450  1.00  0.00     0.048 A 
ENDBRANCH  11  13
ENDBRANCH  10  11
BRANCH   1  20
HETATM   20  N1  UNL     1      27.035   1.568  51.857  1.00  0.00    -0.396 N 
HETATM   21  H1  UNL     1      27.605   2.433  51.804  1.00  0.00     0.156 HD
HETATM   22  H2  UNL     1      27.206   1.312  50.853  1.00  0.00     0.156 HD
ENDBRANCH   1  20
BRANCH   7  23
HETATM   23  N3  UNL     1      20.767  -1.211  54.366  1.00  0.00    -0.384 N 
HETATM   24  H6  UNL     1      20.297  -1.973  54.886  1.00  0.00     0.160 HD
BRANCH  23  25
HETATM   25  C7  UNL     1      20.010  -0.297  53.528  1.00  0.00     0.189 C 
BRANCH  25  26
HETATM   26  C8  UNL     1      18.665  -0.843  53.177  1.00  0.00     0.250 C 
HETATM   27  O1  UNL     1      18.031  -1.808  53.541  1.00  0.00    -0.305 OA
ENDBRANCH  25  26
ENDBRANCH  23  25
ENDBRANCH   7  23
TORSDOF 6
ENDMDL
MODEL 6
REMARK VINA RESULT:      -6.9      3.669      5.904
REMARK  6 active torsions:
REMARK  status: ('A' for Active; 'I' for Inactive)
REMARK    1  A    between atoms: N1_1  and  C1_2 
REMARK    2  A    between atoms: C6_8  and  N3_9 
REMARK    3  A    between atoms: N3_9  and  C7_10 
REMARK    4  A    between atoms: C7_10  and  C8_11 
REMARK    5  A    between atoms: C11_15  and  N4_16 
REMARK    6  A    between atoms: N4_16  and  C12_17 
ROOT
HETATM    1  C1  UNL     1      21.715   4.453  51.480  1.00  0.00     0.071 A 
HETATM    2  C2  UNL     1      21.043   3.261  51.214  1.00  0.00     0.148 A 
HETATM    3  N2  UNL     1      21.642   2.106  51.582  1.00  0.00    -0.258 NA
HETATM    4  C3  UNL     1      22.846   2.079  52.187  1.00  0.00     0.069 A 
HETATM    5  C4  UNL     1      23.438   0.875  52.554  1.00  0.00     0.035 A 
HETATM    6  C5  UNL     1      24.683   0.894  53.176  1.00  0.00     0.031 A 
HETATM    7  C6  UNL     1      25.353   2.069  53.443  1.00  0.00     0.029 A 
HETATM    8  C9  UNL     1      24.782   3.292  53.084  1.00  0.00     0.045 A 
HETATM    9  C10 UNL     1      23.543   3.237  52.467  1.00  0.00     0.024 A 
HETATM   10  C11 UNL     1      22.950   4.428  52.100  1.00  0.00     0.073 A 
ENDROOT
BRANCH  10  11
HETATM   11  N4  UNL     1      23.523   5.706  52.311  1.00  0.00    -0.354 N 
HETATM   12  H11 UNL     1      23.466   6.158  53.232  1.00  0.00     0.166 HD
BRANCH  11  13
HETATM   13  C12 UNL     1      24.179   6.377  51.262  1.00  0.00     0.033 A 
HETATM   14  C13 UNL     1      23.805   7.662  50.918  1.00  0.00     0.029 A 
HETATM   15  C14 UNL     1      24.451   8.326  49.884  1.00  0.00     0.004 A 
HETATM   16  C15 UNL     1      25.473   7.744  49.170  1.00  0.00     0.019 A 
HETATM   17  C16 UNL     1      25.849   6.460  49.513  1.00  0.00     0.013 A 
HETATM   18 BR1  UNL     1      27.266   5.640  48.532  1.00  0.00    -0.051 Br
HETATM   19  C17 UNL     1      25.199   5.806  50.545  1.00  0.00     0.048 A 
ENDBRANCH  11  13
ENDBRANCH  10  11
BRANCH   1  20
HETATM   20  N1  UNL     1      21.036   5.624  51.071  1.00  0.00    -0.396 N 
HETATM   21  H1  UNL     1      20.083   5.960  50.836  1.00  0.00     0.156 HD
HETATM   22  H2  UNL     1      21.482   6.559  50.900  1.00  0.00     0.156 HD
ENDBRANCH   1  20
BRANCH   7  23
HETATM   23  N3  UNL     1      26.623   2.016  54.082  1.00  0.00    -0.384 N 
HETATM   24  H6  UNL     1      26.719   1.928  55.110  1.00  0.00     0.160 HD
BRANCH  23  25
HETATM   25  C7  UNL     1      27.794   2.091  53.225  1.00  0.00     0.189 C 
BRANCH  25  26
HETATM   26  C8  UNL     1      29.063   1.919  53.992  1.00  0.00     0.250 C 
HETATM   27  O1  UNL     1      29.416   2.229  55.109  1.00  0.00    -0.305 OA
ENDBRANCH  25  26
ENDBRANCH  23  25
ENDBRANCH   7  23
TORSDOF 6
ENDMDL
MODEL 7
REMARK VINA RESULT:      -6.9      1.858      2.137
REMARK  6 active torsions:
REMARK  status: ('A' for Active; 'I' for Inactive)
REMARK    1  A    between atoms: N1_1  and  C1_2 
REMARK    2  A    between atoms: C6_8  and  N3_9 
REMARK    3  A    between atoms: N3_9  and  C7_10 
REMARK    4  A    between atoms: C7_10  and  C8_11 
REMARK    5  A    between atoms: C11_15  and  N4_16 
REMARK    6  A    between atoms: N4_16  and  C12_17 
ROOT
HETATM    1  C1  UNL     1      24.812   3.895  50.975  1.00  0.00     0.071 A 
HETATM    2  C2  UNL     1      24.050   5.061  51.014  1.00  0.00     0.148 A 
HETATM    3  N2  UNL     1      22.767   4.961  51.430  1.00  0.00    -0.258 NA
HETATM    4  C3  UNL     1      22.219   3.787  51.800  1.00  0.00     0.069 A 
HETATM    5  C4  UNL     1      20.896   3.714  52.222  1.00  0.00     0.035 A 
HETATM    6  C5  UNL     1      20.370   2.480  52.595  1.00  0.00     0.031 A 
HETATM    7  C6  UNL     1      21.118   1.322  52.560  1.00  0.00     0.029 A 
HETATM    8  C9  UNL     1      22.449   1.367  52.139  1.00  0.00     0.045 A 
HETATM    9  C10 UNL     1      22.939   2.610  51.775  1.00  0.00     0.024 A 
HETATM   10  C11 UNL     1      24.251   2.689  51.355  1.00  0.00     0.073 A 
ENDROOT
BRANCH  10  11
HETATM   11  N4  UNL     1      25.133   1.584  51.268  1.00  0.00    -0.354 N 
HETATM   12  H11 UNL     1      25.273   1.097  50.374  1.00  0.00     0.166 HD
BRANCH  11  13
HETATM   13  C12 UNL     1      25.829   1.134  52.406  1.00  0.00     0.033 A 
HETATM   14  C13 UNL     1      25.291   0.141  53.202  1.00  0.00     0.029 A 
HETATM   15  C14 UNL     1      25.976  -0.304  54.324  1.00  0.00     0.004 A 
HETATM   16  C15 UNL     1      27.198   0.215  54.686  1.00  0.00     0.019 A 
HETATM   17  C16 UNL     1      27.737   1.208  53.891  1.00  0.00     0.013 A 
HETATM   18 BR1  UNL     1      29.432   1.937  54.380  1.00  0.00    -0.051 Br
HETATM   19  C17 UNL     1      27.047   1.645  52.775  1.00  0.00     0.048 A 
ENDBRANCH  11  13
ENDBRANCH  10  11
BRANCH   1  20
HETATM   20  N1  UNL     1      26.143   4.067  50.533  1.00  0.00    -0.396 N 
HETATM   21  H1  UNL     1      26.681   4.403  49.712  1.00  0.00     0.156 HD
HETATM   22  H2  UNL     1      27.005   3.834  51.087  1.00  0.00     0.156 HD
ENDBRANCH   1  20
BRANCH   7  23
HETATM   23  N3  UNL     1      20.518   0.094  52.955  1.00  0.00    -0.384 N 
HETATM   24  H6  UNL     1      19.988  -0.498  52.290  1.00  0.00     0.160 HD
BRANCH  23  25
HETATM   25  C7  UNL     1      20.679  -0.300  54.344  1.00  0.00     0.189 C 
BRANCH  25  26
HETATM   26  C8  UNL     1      21.739  -1.337  54.514  1.00  0.00     0.250 C 
HETATM   27  O1  UNL     1      22.455  -1.660  55.436  1.00  0.00    -0.305 OA
ENDBRANCH  25  26
ENDBRANCH  23  25
ENDBRANCH   7  23
TORSDOF 6
ENDMDL
MODEL 8
REMARK VINA RESULT:      -6.9      3.342      5.105
REMARK  6 active torsions:
REMARK  status: ('A' for Active; 'I' for Inactive)
REMARK    1  A    between atoms: N1_1  and  C1_2 
REMARK    2  A    between atoms: C6_8  and  N3_9 
REMARK    3  A    between atoms: N3_9  and  C7_10 
REMARK    4  A    between atoms: C7_10  and  C8_11 
REMARK    5  A    between atoms: C11_15  and  N4_16 
REMARK    6  A    between atoms: N4_16  and  C12_17 
ROOT
HETATM    1  C1  UNL     1      26.032   1.758  53.746  1.00  0.00     0.071 A 
HETATM    2  C2  UNL     1      26.297   0.429  54.071  1.00  0.00     0.148 A 
HETATM    3  N2  UNL     1      25.284  -0.460  53.959  1.00  0.00    -0.258 NA
HETATM    4  C3  UNL     1      24.052  -0.101  53.550  1.00  0.00     0.069 A 
HETATM    5  C4  UNL     1      23.029  -1.036  53.445  1.00  0.00     0.035 A 
HETATM    6  C5  UNL     1      21.770  -0.621  53.019  1.00  0.00     0.031 A 
HETATM    7  C6  UNL     1      21.501   0.692  52.695  1.00  0.00     0.029 A 
HETATM    8  C9  UNL     1      22.510   1.653  52.793  1.00  0.00     0.045 A 
HETATM    9  C10 UNL     1      23.749   1.205  53.220  1.00  0.00     0.024 A 
HETATM   10  C11 UNL     1      24.769   2.129  53.326  1.00  0.00     0.073 A 
ENDROOT
BRANCH  10  11
HETATM   11  N4  UNL     1      24.635   3.507  53.029  1.00  0.00    -0.354 N 
HETATM   12  H11 UNL     1      24.643   4.207  53.781  1.00  0.00     0.166 HD
BRANCH  11  13
HETATM   13  C12 UNL     1      24.487   3.940  51.698  1.00  0.00     0.033 A 
HETATM   14  C13 UNL     1      25.260   3.383  50.696  1.00  0.00     0.029 A 
HETATM   15  C14 UNL     1      25.116   3.808  49.383  1.00  0.00     0.004 A 
HETATM   16  C15 UNL     1      24.214   4.784  49.027  1.00  0.00     0.019 A 
HETATM   17  C16 UNL     1      23.440   5.342  50.026  1.00  0.00     0.013 A 
HETATM   18 BR1  UNL     1      22.184   6.696  49.549  1.00  0.00    -0.051 Br
HETATM   19  C17 UNL     1      23.591   4.912  51.332  1.00  0.00     0.048 A 
ENDBRANCH  11  13
ENDBRANCH  10  11
BRANCH   1  20
HETATM   20  N1  UNL     1      27.132   2.636  53.883  1.00  0.00    -0.396 N 
HETATM   21  H1  UNL     1      27.883   2.885  54.554  1.00  0.00     0.156 HD
HETATM   22  H2  UNL     1      27.445   3.338  53.168  1.00  0.00     0.156 HD
ENDBRANCH   1  20
BRANCH   7  23
HETATM   23  N3  UNL     1      20.192   1.048  52.266  1.00  0.00    -0.384 N 
HETATM   24  H6  UNL     1      19.347   0.562  52.616  1.00  0.00     0.160 HD
BRANCH  23  25
HETATM   25  C7  UNL     1      20.088   2.134  51.306  1.00  0.00     0.189 C 
BRANCH  25  26
HETATM   26  C8  UNL     1      19.401   3.327  51.881  1.00  0.00     0.250 C 
HETATM   27  O1  UNL     1      18.257   3.725  51.864  1.00  0.00    -0.305 OA
ENDBRANCH  25  26
ENDBRANCH  23  25
ENDBRANCH   7  23
TORSDOF 6
ENDMDL
MODEL 9
REMARK VINA RESULT:      -6.7      3.134      5.299
REMARK  6 active torsions:
REMARK  status: ('A' for Active; 'I' for Inactive)
REMARK    1  A    between atoms: N1_1  and  C1_2 
REMARK    2  A    between atoms: C6_8  and  N3_9 
REMARK    3  A    between atoms: N3_9  and  C7_10 
REMARK    4  A    between atoms: C7_10  and  C8_11 
REMARK    5  A    between atoms: C11_15  and  N4_16 
REMARK    6  A    between atoms: N4_16  and  C12_17 
ROOT
HETATM    1  C1  UNL     1      25.142   2.348  51.957  1.00  0.00     0.071 A 
HETATM    2  C2  UNL     1      26.074   1.473  52.510  1.00  0.00     0.148 A 
HETATM    3  N2  UNL     1      25.608   0.447  53.258  1.00  0.00    -0.258 NA
HETATM    4  C3  UNL     1      24.293   0.254  53.476  1.00  0.00     0.069 A 
HETATM    5  C4  UNL     1      23.842  -0.809  54.251  1.00  0.00     0.035 A 
HETATM    6  C5  UNL     1      22.474  -0.971  54.451  1.00  0.00     0.031 A 
HETATM    7  C6  UNL     1      21.545  -0.109  53.906  1.00  0.00     0.029 A 
HETATM    8  C9  UNL     1      21.971   0.968  53.125  1.00  0.00     0.045 A 
HETATM    9  C10 UNL     1      23.338   1.099  52.946  1.00  0.00     0.024 A 
HETATM   10  C11 UNL     1      23.792   2.152  52.179  1.00  0.00     0.073 A 
ENDROOT
BRANCH  10  11
HETATM   11  N4  UNL     1      22.953   3.111  51.561  1.00  0.00    -0.354 N 
HETATM   12  H11 UNL     1      22.551   3.883  52.108  1.00  0.00     0.166 HD
BRANCH  11  13
HETATM   13  C12 UNL     1      22.658   3.024  50.188  1.00  0.00     0.033 A 
HETATM   14  C13 UNL     1      22.382   1.797  49.613  1.00  0.00     0.029 A 
HETATM   15  C14 UNL     1      22.091   1.708  48.259  1.00  0.00     0.004 A 
HETATM   16  C15 UNL     1      22.064   2.816  47.445  1.00  0.00     0.019 A 
HETATM   17  C16 UNL     1      22.339   4.043  48.017  1.00  0.00     0.013 A 
HETATM   18 BR1  UNL     1      22.305   5.590  46.900  1.00  0.00    -0.051 Br
HETATM   19  C17 UNL     1      22.628   4.122  49.367  1.00  0.00     0.048 A 
ENDBRANCH  11  13
ENDBRANCH  10  11
BRANCH   1  20
HETATM   20  N1  UNL     1      25.693   3.397  51.186  1.00  0.00    -0.396 N 
HETATM   21  H1  UNL     1      25.412   4.131  50.509  1.00  0.00     0.156 HD
HETATM   22  H2  UNL     1      26.707   3.672  51.166  1.00  0.00     0.156 HD
ENDBRANCH   1  20
BRANCH   7  23
HETATM   23  N3  UNL     1      20.162  -0.333  54.150  1.00  0.00    -0.384 N 
HETATM   24  H6  UNL     1      19.784  -0.448  55.108  1.00  0.00     0.160 HD
BRANCH  23  25
HETATM   25  C7  UNL     1      19.290  -0.393  52.989  1.00  0.00     0.189 C 
BRANCH  25  26
HETATM   26  C8  UNL     1      18.062  -1.199  53.251  1.00  0.00     0.250 C 
HETATM   27  O1  UNL     1      16.885  -1.033  53.018  1.00  0.00    -0.305 OA
ENDBRANCH  25  26
ENDBRANCH  23  25
ENDBRANCH   7  23
TORSDOF 6
ENDMDL
