MODEL 1
REMARK VINA RESULT:      -8.6      0.000      0.000
REMARK  5 active torsions:
REMARK  status: ('A' for Active; 'I' for Inactive)
REMARK       I    between atoms: C1_2  and  N1_3 
REMARK       I    between atoms: C1_2  and  N3_12 
REMARK    1  A    between atoms: N1_3  and  C2_4 
REMARK    2  A    between atoms: C2_4  and  C3_5 
REMARK    3  A    between atoms: C3_5  and  N2_6 
REMARK    4  A    between atoms: N3_12  and  C8_13 
REMARK    5  A    between atoms: C13_20  and  C14_21 
ROOT
HETATM    1  C8  UNL     1      22.569   0.913  51.553  1.00  0.00     0.037 A 
HETATM    2  C9  UNL     1      21.365   0.291  51.902  1.00  0.00     0.032 A 
HETATM    3  C10 UNL     1      21.329  -0.496  53.046  1.00  0.00     0.035 A 
HETATM    4  C11 UNL     1      22.440  -0.692  53.860  1.00  0.00     0.070 A 
HETATM    5  N4  UNL     1      22.426  -1.440  54.972  1.00  0.00    -0.241 NA
HETATM    6  C12 UNL     1      23.587  -1.534  55.674  1.00  0.00     0.234 A 
HETATM    7  N5  UNL     1      24.708  -0.911  55.283  1.00  0.00    -0.240 NA
HETATM    8  C13 UNL     1      24.763  -0.154  54.174  1.00  0.00     0.081 A 
HETATM    9  C20 UNL     1      23.581  -0.044  53.444  1.00  0.00     0.025 A 
HETATM   10  C21 UNL     1      23.694   0.750  52.325  1.00  0.00     0.045 A 
ENDROOT
BRANCH   1  11
HETATM   11  N3  UNL     1      22.528   1.697  50.369  1.00  0.00    -0.309 N 
HETATM   12  C1  UNL     1      22.411   3.096  50.241  1.00  0.00     0.320 C 
HETATM   13  O1  UNL     1      22.335   3.699  51.371  1.00  0.00    -0.247 OA
HETATM   14  N1  UNL     1      22.374   3.860  49.015  1.00  0.00    -0.341 N 
HETATM   15  H1  UNL     1      22.441   3.160  48.248  1.00  0.00     0.164 HD
HETATM   16  H14 UNL     1      22.594   1.164  49.476  1.00  0.00     0.170 HD
BRANCH  14  17
HETATM   17  C2  UNL     1      22.250   5.233  49.370  1.00  0.00     0.154 C 
BRANCH  17  18
HETATM   18  C3  UNL     1      23.450   6.098  49.191  1.00  0.00     0.292 C 
BRANCH  18  19
HETATM   19  N2  UNL     1      24.447   6.008  50.194  1.00  0.00     0.094 N 
HETATM   20  C4  UNL     1      25.606   5.222  49.933  1.00  0.00     0.298 C 
HETATM   21  C5  UNL     1      26.373   5.755  48.728  1.00  0.00     0.198 C 
HETATM   22  O2  UNL     1      26.138   7.138  48.613  1.00  0.00    -0.388 OA
HETATM   23  C6  UNL     1      26.179   7.669  49.897  1.00  0.00     0.198 C 
HETATM   24  C7  UNL     1      24.898   7.350  50.608  1.00  0.00     0.298 C 
ENDBRANCH  18  19
ENDBRANCH  17  18
ENDBRANCH  14  17
ENDBRANCH   1  11
BRANCH   8  25
HETATM   25  C14 UNL     1      26.071   0.434  53.932  1.00  0.00    -0.005 A 
HETATM   26  C15 UNL     1      26.426   1.760  53.829  1.00  0.00     0.014 A 
HETATM   27  C16 UNL     1      27.736   2.141  53.617  1.00  0.00     0.002 A 
HETATM   28  C17 UNL     1      28.721   1.194  53.502  1.00  0.00     0.019 A 
HETATM   29  C18 UNL     1      28.440  -0.153  53.593  1.00  0.00     0.011 A 
HETATM   30 BR1  UNL     1      29.799  -1.471  53.434  1.00  0.00    -0.051 Br
HETATM   31  C19 UNL     1      27.114  -0.491  53.806  1.00  0.00     0.032 A 
ENDBRANCH   8  25
TORSDOF 5
ENDMDL
MODEL 2
REMARK VINA RESULT:      -8.6      1.993      2.730
REMARK  5 active torsions:
REMARK  status: ('A' for Active; 'I' for Inactive)
REMARK       I    between atoms: C1_2  and  N1_3 
REMARK       I    between atoms: C1_2  and  N3_12 
REMARK    1  A    between atoms: N1_3  and  C2_4 
REMARK    2  A    between atoms: C2_4  and  C3_5 
REMARK    3  A    between atoms: C3_5  and  N2_6 
REMARK    4  A    between atoms: N3_12  and  C8_13 
REMARK    5  A    between atoms: C13_20  and  C14_21 
ROOT
HETATM    1  C8  UNL     1      23.448   4.177  52.600  1.00  0.00     0.037 A 
HETATM    2  C9  UNL     1      22.090   3.881  52.439  1.00  0.00     0.032 A 
HETATM    3  C10 UNL     1      21.685   2.554  52.507  1.00  0.00     0.035 A 
HETATM    4  C11 UNL     1      22.574   1.506  52.728  1.00  0.00     0.070 A 
HETATM    5  N4  UNL     1      22.204   0.220  52.805  1.00  0.00    -0.241 NA
HETATM    6  C12 UNL     1      23.182  -0.696  53.032  1.00  0.00     0.234 A 
HETATM    7  N5  UNL     1      24.469  -0.344  53.177  1.00  0.00    -0.240 NA
HETATM    8  C13 UNL     1      24.879   0.934  53.106  1.00  0.00     0.081 A 
HETATM    9  C20 UNL     1      23.888   1.887  52.874  1.00  0.00     0.025 A 
HETATM   10  C21 UNL     1      24.365   3.177  52.820  1.00  0.00     0.045 A 
ENDROOT
BRANCH   1  11
HETATM   11  N3  UNL     1      23.785   5.555  52.514  1.00  0.00    -0.309 N 
HETATM   12  C1  UNL     1      23.781   6.393  51.380  1.00  0.00     0.320 C 
HETATM   13  O1  UNL     1      23.419   5.789  50.308  1.00  0.00    -0.247 OA
HETATM   14  N1  UNL     1      24.130   7.795  51.332  1.00  0.00    -0.341 N 
HETATM   15  H1  UNL     1      24.395   8.050  52.304  1.00  0.00     0.164 HD
HETATM   16  H14 UNL     1      24.072   6.004  53.409  1.00  0.00     0.170 HD
BRANCH  14  17
HETATM   17  C2  UNL     1      23.980   8.226  49.983  1.00  0.00     0.154 C 
BRANCH  17  18
HETATM   18  C3  UNL     1      25.217   8.608  49.244  1.00  0.00     0.292 C 
BRANCH  18  19
HETATM   19  N2  UNL     1      26.437   8.101  49.753  1.00  0.00     0.094 N 
HETATM   20  C4  UNL     1      27.237   7.276  48.910  1.00  0.00     0.298 C 
HETATM   21  C5  UNL     1      27.669   8.028  47.656  1.00  0.00     0.198 C 
HETATM   22  O2  UNL     1      27.732   9.404  47.948  1.00  0.00    -0.388 OA
HETATM   23  C6  UNL     1      28.309   9.530  49.206  1.00  0.00     0.198 C 
HETATM   24  C7  UNL     1      27.292   9.193  50.255  1.00  0.00     0.298 C 
ENDBRANCH  18  19
ENDBRANCH  17  18
ENDBRANCH  14  17
ENDBRANCH   1  11
BRANCH   8  25
HETATM   25  C14 UNL     1      26.311   1.099  53.292  1.00  0.00    -0.005 A 
HETATM   26  C15 UNL     1      27.033   2.247  53.534  1.00  0.00     0.014 A 
HETATM   27  C16 UNL     1      28.402   2.214  53.710  1.00  0.00     0.002 A 
HETATM   28  C17 UNL     1      29.078   1.022  53.644  1.00  0.00     0.019 A 
HETATM   29  C18 UNL     1      28.422  -0.167  53.405  1.00  0.00     0.011 A 
HETATM   30 BR1  UNL     1      29.352  -1.820  53.312  1.00  0.00    -0.051 Br
HETATM   31  C19 UNL     1      27.050  -0.088  53.235  1.00  0.00     0.032 A 
ENDBRANCH   8  25
TORSDOF 5
ENDMDL
MODEL 3
REMARK VINA RESULT:      -8.5      3.374      4.649
REMARK  5 active torsions:
REMARK  status: ('A' for Active; 'I' for Inactive)
REMARK       I    between atoms: C1_2  and  N1_3 
REMARK       I    between atoms: C1_2  and  N3_12 
REMARK    1  A    between atoms: N1_3  and  C2_4 
REMARK    2  A    between atoms: C2_4  and  C3_5 
REMARK    3  A    between atoms: C3_5  and  N2_6 
REMARK    4  A    between atoms: N3_12  and  C8_13 
REMARK    5  A    between atoms: C13_20  and  C14_21 
ROOT
HETATM    1  C8  UNL     1      25.105   4.136  50.537  1.00  0.00     0.037 A 
HETATM    2  C9  UNL     1      23.762   4.111  50.144  1.00  0.00     0.032 A 
HETATM    3  C10 UNL     1      22.962   3.061  50.576  1.00  0.00     0.035 A 
HETATM    4  C11 UNL     1      23.438   2.033  51.383  1.00  0.00     0.070 A 
HETATM    5  N4  UNL     1      22.682   1.015  51.817  1.00  0.00    -0.241 NA
HETATM    6  C12 UNL     1      23.283   0.086  52.606  1.00  0.00     0.234 A 
HETATM    7  N5  UNL     1      24.578   0.169  52.946  1.00  0.00    -0.240 NA
HETATM    8  C13 UNL     1      25.369   1.173  52.531  1.00  0.00     0.081 A 
HETATM    9  C20 UNL     1      24.768   2.136  51.721  1.00  0.00     0.025 A 
HETATM   10  C21 UNL     1      25.623   3.143  51.334  1.00  0.00     0.045 A 
ENDROOT
BRANCH   1  11
HETATM   11  N3  UNL     1      25.861   5.238  50.053  1.00  0.00    -0.309 N 
HETATM   12  C1  UNL     1      27.038   5.225  49.277  1.00  0.00     0.320 C 
HETATM   13  O1  UNL     1      27.443   4.041  48.996  1.00  0.00    -0.247 OA
HETATM   14  N1  UNL     1      27.780   6.371  48.802  1.00  0.00    -0.341 N 
HETATM   15  H1  UNL     1      27.270   7.203  49.161  1.00  0.00     0.164 HD
HETATM   16  H14 UNL     1      25.494   6.179  50.306  1.00  0.00     0.170 HD
BRANCH  14  17
HETATM   17  C2  UNL     1      28.893   5.881  48.061  1.00  0.00     0.154 C 
BRANCH  17  18
HETATM   18  C3  UNL     1      30.090   6.764  47.959  1.00  0.00     0.292 C 
BRANCH  18  19
HETATM   19  N2  UNL     1      30.934   6.816  49.096  1.00  0.00     0.094 N 
HETATM   20  C4  UNL     1      31.843   5.742  49.318  1.00  0.00     0.298 C 
HETATM   21  C5  UNL     1      32.827   5.606  48.161  1.00  0.00     0.198 C 
HETATM   22  O2  UNL     1      33.000   6.867  47.558  1.00  0.00    -0.388 OA
HETATM   23  C6  UNL     1      33.080   7.803  48.582  1.00  0.00     0.198 C 
HETATM   24  C7  UNL     1      31.707   8.072  49.119  1.00  0.00     0.298 C 
ENDBRANCH  18  19
ENDBRANCH  17  18
ENDBRANCH  14  17
ENDBRANCH   1  11
BRANCH   8  25
HETATM   25  C14 UNL     1      26.737   1.077  53.014  1.00  0.00    -0.005 A 
HETATM   26  C15 UNL     1      27.547   2.058  53.541  1.00  0.00     0.014 A 
HETATM   27  C16 UNL     1      28.827   1.779  53.975  1.00  0.00     0.002 A 
HETATM   28  C17 UNL     1      29.324   0.503  53.887  1.00  0.00     0.019 A 
HETATM   29  C18 UNL     1      28.571  -0.530  53.369  1.00  0.00     0.011 A 
HETATM   30 BR1  UNL     1      29.253  -2.298  53.243  1.00  0.00    -0.051 Br
HETATM   31  C19 UNL     1      27.293  -0.205  52.946  1.00  0.00     0.032 A 
ENDBRANCH   8  25
TORSDOF 5
ENDMDL
MODEL 4
REMARK VINA RESULT:      -8.3      2.730      4.079
REMARK  5 active torsions:
REMARK  status: ('A' for Active; 'I' for Inactive)
REMARK       I    between atoms: C1_2  and  N1_3 
REMARK       I    between atoms: C1_2  and  N3_12 
REMARK    1  A    between atoms: N1_3  and  C2_4 
REMARK    2  A    between atoms: C2_4  and  C3_5 
REMARK    3  A    between atoms: C3_5  and  N2_6 
REMARK    4  A    between atoms: N3_12  and  C8_13 
REMARK    5  A    between atoms: C13_20  and  C14_21 
ROOT
HETATM    1  C8  UNL     1      25.084   3.552  49.837  1.00  0.00     0.037 A 
HETATM    2  C9  UNL     1      23.737   3.469  49.468  1.00  0.00     0.032 A 
HETATM    3  C10 UNL     1      22.916   2.575  50.141  1.00  0.00     0.035 A 
HETATM    4  C11 UNL     1      23.376   1.755  51.168  1.00  0.00     0.070 A 
HETATM    5  N4  UNL     1      22.599   0.891  51.836  1.00  0.00    -0.241 NA
HETATM    6  C12 UNL     1      23.186   0.161  52.822  1.00  0.00     0.234 A 
HETATM    7  N5  UNL     1      24.486   0.289  53.125  1.00  0.00    -0.240 NA
HETATM    8  C13 UNL     1      25.297   1.143  52.478  1.00  0.00     0.081 A 
HETATM    9  C20 UNL     1      24.711   1.901  51.465  1.00  0.00     0.025 A 
HETATM   10  C21 UNL     1      25.587   2.764  50.845  1.00  0.00     0.045 A 
ENDROOT
BRANCH   1  11
HETATM   11  N3  UNL     1      25.861   4.486  49.101  1.00  0.00    -0.309 N 
HETATM   12  C1  UNL     1      26.069   5.857  49.358  1.00  0.00     0.320 C 
HETATM   13  O1  UNL     1      25.456   6.270  50.406  1.00  0.00    -0.247 OA
HETATM   14  N1  UNL     1      26.870   6.777  48.583  1.00  0.00    -0.341 N 
HETATM   15  H1  UNL     1      27.250   6.219  47.793  1.00  0.00     0.164 HD
HETATM   16  H14 UNL     1      26.341   4.105  48.258  1.00  0.00     0.170 HD
BRANCH  14  17
HETATM   17  C2  UNL     1      26.790   8.050  49.216  1.00  0.00     0.154 C 
BRANCH  17  18
HETATM   18  C3  UNL     1      28.035   8.867  49.271  1.00  0.00     0.292 C 
BRANCH  18  19
HETATM   19  N2  UNL     1      29.011   8.596  48.281  1.00  0.00     0.094 N 
HETATM   20  C4  UNL     1      29.365   9.635  47.372  1.00  0.00     0.298 C 
HETATM   21  C5  UNL     1      29.943  10.838  48.109  1.00  0.00     0.198 C 
HETATM   22  O2  UNL     1      30.545  10.395  49.302  1.00  0.00    -0.388 OA
HETATM   23  C6  UNL     1      31.231   9.223  49.005  1.00  0.00     0.198 C 
HETATM   24  C7  UNL     1      30.255   8.091  48.893  1.00  0.00     0.298 C 
ENDBRANCH  18  19
ENDBRANCH  17  18
ENDBRANCH  14  17
ENDBRANCH   1  11
BRANCH   8  25
HETATM   25  C14 UNL     1      26.667   1.129  52.963  1.00  0.00    -0.005 A 
HETATM   26  C15 UNL     1      27.425   2.161  53.470  1.00  0.00     0.014 A 
HETATM   27  C16 UNL     1      28.718   1.958  53.910  1.00  0.00     0.002 A 
HETATM   28  C17 UNL     1      29.280   0.709  53.850  1.00  0.00     0.019 A 
HETATM   29  C18 UNL     1      28.582  -0.373  53.354  1.00  0.00     0.011 A 
HETATM   30 BR1  UNL     1      29.355  -2.105  53.266  1.00  0.00    -0.051 Br
HETATM   31  C19 UNL     1      27.289  -0.124  52.924  1.00  0.00     0.032 A 
ENDBRANCH   8  25
TORSDOF 5
ENDMDL
MODEL 5
REMARK VINA RESULT:      -8.2      4.059      9.090
REMARK  5 active torsions:
REMARK  status: ('A' for Active; 'I' for Inactive)
REMARK       I    between atoms: C1_2  and  N1_3 
REMARK       I    between atoms: C1_2  and  N3_12 
REMARK    1  A    between atoms: N1_3  and  C2_4 
REMARK    2  A    between atoms: C2_4  and  C3_5 
REMARK    3  A    between atoms: C3_5  and  N2_6 
REMARK    4  A    between atoms: N3_12  and  C8_13 
REMARK    5  A    between atoms: C13_20  and  C14_21 
ROOT
HETATM    1  C8  UNL     1      26.183   6.344  49.004  1.00  0.00     0.037 A 
HETATM    2  C9  UNL     1      25.116   6.898  48.288  1.00  0.00     0.032 A 
HETATM    3  C10 UNL     1      25.396   7.705  47.192  1.00  0.00     0.035 A 
HETATM    4  C11 UNL     1      26.693   7.986  46.776  1.00  0.00     0.070 A 
HETATM    5  N4  UNL     1      26.986   8.755  45.718  1.00  0.00    -0.241 NA
HETATM    6  C12 UNL     1      28.301   8.935  45.425  1.00  0.00     0.234 A 
HETATM    7  N5  UNL     1      29.277   8.374  46.154  1.00  0.00    -0.240 NA
HETATM    8  C13 UNL     1      29.025   7.598  47.222  1.00  0.00     0.081 A 
HETATM    9  C20 UNL     1      27.681   7.401  47.536  1.00  0.00     0.025 A 
HETATM   10  C21 UNL     1      27.483   6.592  48.632  1.00  0.00     0.045 A 
ENDROOT
BRANCH   1  11
HETATM   11  N3  UNL     1      25.817   5.535  50.112  1.00  0.00    -0.309 N 
HETATM   12  C1  UNL     1      26.052   4.159  50.315  1.00  0.00     0.320 C 
HETATM   13  O1  UNL     1      26.680   3.607  49.342  1.00  0.00    -0.247 OA
HETATM   14  N1  UNL     1      25.663   3.368  51.461  1.00  0.00    -0.341 N 
HETATM   15  H1  UNL     1      25.168   4.024  52.097  1.00  0.00     0.164 HD
HETATM   16  H14 UNL     1      25.309   6.026  50.878  1.00  0.00     0.170 HD
BRANCH  14  17
HETATM   17  C2  UNL     1      26.108   2.036  51.230  1.00  0.00     0.154 C 
BRANCH  17  18
HETATM   18  C3  UNL     1      27.127   1.482  52.167  1.00  0.00     0.292 C 
BRANCH  18  19
HETATM   19  N2  UNL     1      26.982   0.118  52.520  1.00  0.00     0.094 N 
HETATM   20  C4  UNL     1      28.015  -0.502  53.281  1.00  0.00     0.298 C 
HETATM   21  C5  UNL     1      28.195   0.189  54.628  1.00  0.00     0.198 C 
HETATM   22  O2  UNL     1      26.970   0.766  55.013  1.00  0.00    -0.388 OA
HETATM   23  C6  UNL     1      25.971  -0.148  54.701  1.00  0.00     0.198 C 
HETATM   24  C7  UNL     1      25.706  -0.110  53.226  1.00  0.00     0.298 C 
ENDBRANCH  18  19
ENDBRANCH  17  18
ENDBRANCH  14  17
ENDBRANCH   1  11
BRANCH   8  25
HETATM   25  C14 UNL     1      30.222   7.088  47.870  1.00  0.00    -0.005 A 
HETATM   26  C15 UNL     1      30.935   7.614  48.924  1.00  0.00     0.014 A 
HETATM   27  C16 UNL     1      32.048   6.974  49.432  1.00  0.00     0.002 A 
HETATM   28  C17 UNL     1      32.472   5.788  48.887  1.00  0.00     0.019 A 
HETATM   29  C18 UNL     1      31.809   5.203  47.829  1.00  0.00     0.011 A 
HETATM   30 BR1  UNL     1      32.391   3.563  47.069  1.00  0.00    -0.051 Br
HETATM   31  C19 UNL     1      30.697   5.878  47.352  1.00  0.00     0.032 A 
ENDBRANCH   8  25
TORSDOF 5
ENDMDL
MODEL 6
REMARK VINA RESULT:      -8.0      3.530      8.472
REMARK  5 active torsions:
REMARK  status: ('A' for Active; 'I' for Inactive)
REMARK       I    between atoms: C1_2  and  N1_3 
REMARK       I    between atoms: C1_2  and  N3_12 
REMARK    1  A    between atoms: N1_3  and  C2_4 
REMARK    2  A    between atoms: C2_4  and  C3_5 
REMARK    3  A    between atoms: C3_5  and  N2_6 
REMARK    4  A    between atoms: N3_12  and  C8_13 
REMARK    5  A    between atoms: C13_20  and  C14_21 
ROOT
HETATM    1  C8  UNL     1      24.156   7.053  50.784  1.00  0.00     0.037 A 
HETATM    2  C9  UNL     1      22.996   7.790  50.524  1.00  0.00     0.032 A 
HETATM    3  C10 UNL     1      22.963   8.606  49.401  1.00  0.00     0.035 A 
HETATM    4  C11 UNL     1      24.036   8.723  48.523  1.00  0.00     0.070 A 
HETATM    5  N4  UNL     1      24.023   9.498  47.430  1.00  0.00    -0.241 NA
HETATM    6  C12 UNL     1      25.142   9.507  46.659  1.00  0.00     0.234 A 
HETATM    7  N5  UNL     1      26.224   8.775  46.966  1.00  0.00    -0.240 NA
HETATM    8  C13 UNL     1      26.276   7.986  48.053  1.00  0.00     0.081 A 
HETATM    9  C20 UNL     1      25.135   7.965  48.854  1.00  0.00     0.025 A 
HETATM   10  C21 UNL     1      25.243   7.134  49.946  1.00  0.00     0.045 A 
ENDROOT
BRANCH   1  11
HETATM   11  N3  UNL     1      24.116   6.245  51.952  1.00  0.00    -0.309 N 
HETATM   12  C1  UNL     1      24.128   4.838  52.052  1.00  0.00     0.320 C 
HETATM   13  O1  UNL     1      24.184   4.254  50.911  1.00  0.00    -0.247 OA
HETATM   14  N1  UNL     1      24.087   4.050  53.262  1.00  0.00    -0.341 N 
HETATM   15  H1  UNL     1      24.035   4.737  54.041  1.00  0.00     0.164 HD
HETATM   16  H14 UNL     1      24.072   6.763  52.855  1.00  0.00     0.170 HD
BRANCH  14  17
HETATM   17  C2  UNL     1      24.120   2.679  52.880  1.00  0.00     0.154 C 
BRANCH  17  18
HETATM   18  C3  UNL     1      25.201   1.832  53.460  1.00  0.00     0.292 C 
BRANCH  18  19
HETATM   19  N2  UNL     1      26.152   1.312  52.548  1.00  0.00     0.094 N 
HETATM   20  C4  UNL     1      27.319   2.082  52.269  1.00  0.00     0.298 C 
HETATM   21  C5  UNL     1      28.140   2.314  53.532  1.00  0.00     0.198 C 
HETATM   22  O2  UNL     1      27.916   1.249  54.425  1.00  0.00    -0.388 OA
HETATM   23  C6  UNL     1      27.902   0.080  53.673  1.00  0.00     0.198 C 
HETATM   24  C7  UNL     1      26.590  -0.036  52.957  1.00  0.00     0.298 C 
ENDBRANCH  18  19
ENDBRANCH  17  18
ENDBRANCH  14  17
ENDBRANCH   1  11
BRANCH   8  25
HETATM   25  C14 UNL     1      27.537   7.278  48.201  1.00  0.00    -0.005 A 
HETATM   26  C15 UNL     1      27.788   5.924  48.154  1.00  0.00     0.014 A 
HETATM   27  C16 UNL     1      29.067   5.423  48.292  1.00  0.00     0.002 A 
HETATM   28  C17 UNL     1      30.125   6.274  48.484  1.00  0.00     0.019 A 
HETATM   29  C18 UNL     1      29.950   7.641  48.543  1.00  0.00     0.011 A 
HETATM   30 BR1  UNL     1      31.411   8.825  48.809  1.00  0.00    -0.051 Br
HETATM   31  C19 UNL     1      28.651   8.100  48.399  1.00  0.00     0.032 A 
ENDBRANCH   8  25
TORSDOF 5
ENDMDL
MODEL 7
REMARK VINA RESULT:      -7.9      2.814      4.956
REMARK  5 active torsions:
REMARK  status: ('A' for Active; 'I' for Inactive)
REMARK       I    between atoms: C1_2  and  N1_3 
REMARK       I    between atoms: C1_2  and  N3_12 
REMARK    1  A    between atoms: N1_3  and  C2_4 
REMARK    2  A    between atoms: C2_4  and  C3_5 
REMARK    3  A    between atoms: C3_5  and  N2_6 
REMARK    4  A    between atoms: N3_12  and  C8_13 
REMARK    5  A    between atoms: C13_20  and  C14_21 
ROOT
HETATM    1  C8  UNL     1      25.893   1.022  52.256  1.00  0.00     0.037 A 
HETATM    2  C9  UNL     1      26.896   0.643  53.154  1.00  0.00     0.032 A 
HETATM    3  C10 UNL     1      26.545  -0.118  54.262  1.00  0.00     0.035 A 
HETATM    4  C11 UNL     1      25.238  -0.519  54.516  1.00  0.00     0.070 A 
HETATM    5  N4  UNL     1      24.878  -1.260  55.574  1.00  0.00    -0.241 NA
HETATM    6  C12 UNL     1      23.563  -1.584  55.689  1.00  0.00     0.234 A 
HETATM    7  N5  UNL     1      22.650  -1.186  54.790  1.00  0.00    -0.240 NA
HETATM    8  C13 UNL     1      22.970  -0.442  53.718  1.00  0.00     0.081 A 
HETATM    9  C20 UNL     1      24.316  -0.103  53.583  1.00  0.00     0.025 A 
HETATM   10  C21 UNL     1      24.586   0.651  52.463  1.00  0.00     0.045 A 
ENDROOT
BRANCH   1  11
HETATM   11  N3  UNL     1      26.328   1.803  51.151  1.00  0.00    -0.309 N 
HETATM   12  C1  UNL     1      25.956   3.117  50.799  1.00  0.00     0.320 C 
HETATM   13  O1  UNL     1      25.111   3.635  51.613  1.00  0.00    -0.247 OA
HETATM   14  N1  UNL     1      26.423   3.880  49.664  1.00  0.00    -0.341 N 
HETATM   15  H1  UNL     1      27.080   3.253  49.158  1.00  0.00     0.164 HD
HETATM   16  H14 UNL     1      27.014   1.341  50.518  1.00  0.00     0.170 HD
BRANCH  14  17
HETATM   17  C2  UNL     1      25.781   5.150  49.711  1.00  0.00     0.154 C 
BRANCH  17  18
HETATM   18  C3  UNL     1      24.618   5.364  48.803  1.00  0.00     0.292 C 
BRANCH  18  19
HETATM   19  N2  UNL     1      23.748   6.432  49.134  1.00  0.00     0.094 N 
HETATM   20  C4  UNL     1      22.411   6.397  48.643  1.00  0.00     0.298 C 
HETATM   21  C5  UNL     1      21.667   5.171  49.161  1.00  0.00     0.198 C 
HETATM   22  O2  UNL     1      22.218   4.793  50.400  1.00  0.00    -0.388 OA
HETATM   23  C6  UNL     1      22.451   5.960  51.118  1.00  0.00     0.198 C 
HETATM   24  C7  UNL     1      23.687   6.627  50.595  1.00  0.00     0.298 C 
ENDBRANCH  18  19
ENDBRANCH  17  18
ENDBRANCH  14  17
ENDBRANCH   1  11
BRANCH   8  25
HETATM   25  C14 UNL     1      21.835  -0.122  52.868  1.00  0.00    -0.005 A 
HETATM   26  C15 UNL     1      21.796   0.613  51.704  1.00  0.00     0.014 A 
HETATM   27  C16 UNL     1      20.618   0.798  51.008  1.00  0.00     0.002 A 
HETATM   28  C17 UNL     1      19.449   0.249  51.469  1.00  0.00     0.019 A 
HETATM   29  C18 UNL     1      19.411  -0.498  52.628  1.00  0.00     0.011 A 
HETATM   30 BR1  UNL     1      17.796  -1.261  53.273  1.00  0.00    -0.051 Br
HETATM   31  C19 UNL     1      20.615  -0.659  53.294  1.00  0.00     0.032 A 
ENDBRANCH   8  25
TORSDOF 5
ENDMDL
MODEL 8
REMARK VINA RESULT:      -7.9      3.555      6.267
REMARK  5 active torsions:
REMARK  status: ('A' for Active; 'I' for Inactive)
REMARK       I    between atoms: C1_2  and  N1_3 
REMARK       I    between atoms: C1_2  and  N3_12 
REMARK    1  A    between atoms: N1_3  and  C2_4 
REMARK    2  A    between atoms: C2_4  and  C3_5 
REMARK    3  A    between atoms: C3_5  and  N2_6 
REMARK    4  A    between atoms: N3_12  and  C8_13 
REMARK    5  A    between atoms: C13_20  and  C14_21 
ROOT
HETATM    1  C8  UNL     1      24.619   6.773  50.715  1.00  0.00     0.037 A 
HETATM    2  C9  UNL     1      23.605   7.704  50.462  1.00  0.00     0.032 A 
HETATM    3  C10 UNL     1      22.283   7.285  50.536  1.00  0.00     0.035 A 
HETATM    4  C11 UNL     1      21.924   5.978  50.851  1.00  0.00     0.070 A 
HETATM    5  N4  UNL     1      20.655   5.555  50.936  1.00  0.00    -0.241 NA
HETATM    6  C12 UNL     1      20.455   4.250  51.261  1.00  0.00     0.234 A 
HETATM    7  N5  UNL     1      21.474   3.409  51.491  1.00  0.00    -0.240 NA
HETATM    8  C13 UNL     1      22.759   3.795  51.415  1.00  0.00     0.081 A 
HETATM    9  C20 UNL     1      22.982   5.131  51.084  1.00  0.00     0.025 A 
HETATM   10  C21 UNL     1      24.315   5.470  51.030  1.00  0.00     0.045 A 
ENDROOT
BRANCH   1  11
HETATM   11  N3  UNL     1      25.945   7.274  50.615  1.00  0.00    -0.309 N 
HETATM   12  C1  UNL     1      26.783   7.331  49.482  1.00  0.00     0.320 C 
HETATM   13  O1  UNL     1      26.233   6.856  48.425  1.00  0.00    -0.247 OA
HETATM   14  N1  UNL     1      28.130   7.851  49.420  1.00  0.00    -0.341 N 
HETATM   15  H1  UNL     1      28.353   8.164  50.387  1.00  0.00     0.164 HD
HETATM   16  H14 UNL     1      26.350   7.651  51.498  1.00  0.00     0.170 HD
BRANCH  14  17
HETATM   17  C2  UNL     1      28.582   7.705  48.078  1.00  0.00     0.154 C 
BRANCH  17  18
HETATM   18  C3  UNL     1      29.643   6.690  47.820  1.00  0.00     0.292 C 
BRANCH  18  19
HETATM   19  N2  UNL     1      30.978   7.164  47.807  1.00  0.00     0.094 N 
HETATM   20  C4  UNL     1      31.654   7.330  49.050  1.00  0.00     0.298 C 
HETATM   21  C5  UNL     1      31.763   6.005  49.798  1.00  0.00     0.198 C 
HETATM   22  O2  UNL     1      31.772   4.953  48.863  1.00  0.00    -0.388 OA
HETATM   23  C6  UNL     1      32.579   5.352  47.804  1.00  0.00     0.198 C 
HETATM   24  C7  UNL     1      31.826   6.321  46.943  1.00  0.00     0.298 C 
ENDBRANCH  18  19
ENDBRANCH  17  18
ENDBRANCH  14  17
ENDBRANCH   1  11
BRANCH   8  25
HETATM   25  C14 UNL     1      23.706   2.730  51.703  1.00  0.00    -0.005 A 
HETATM   26  C15 UNL     1      25.014   2.592  51.293  1.00  0.00     0.014 A 
HETATM   27  C16 UNL     1      25.782   1.515  51.686  1.00  0.00     0.002 A 
HETATM   28  C17 UNL     1      25.251   0.548  52.501  1.00  0.00     0.019 A 
HETATM   29  C18 UNL     1      23.949   0.619  52.949  1.00  0.00     0.011 A 
HETATM   30 BR1  UNL     1      23.206  -0.717  54.077  1.00  0.00    -0.051 Br
HETATM   31  C19 UNL     1      23.214   1.716  52.531  1.00  0.00     0.032 A 
ENDBRANCH   8  25
TORSDOF 5
ENDMDL
MODEL 9
REMARK VINA RESULT:      -7.8      2.927      4.839
REMARK  5 active torsions:
REMARK  status: ('A' for Active; 'I' for Inactive)
REMARK       I    between atoms: C1_2  and  N1_3 
REMARK       I    between atoms: C1_2  and  N3_12 
REMARK    1  A    between atoms: N1_3  and  C2_4 
REMARK    2  A    between atoms: C2_4  and  C3_5 
REMARK    3  A    between atoms: C3_5  and  N2_6 
REMARK    4  A    between atoms: N3_12  and  C8_13 
REMARK    5  A    between atoms: C13_20  and  C14_21 
ROOT
HETATM    1  C8  UNL     1      26.382   1.318  52.458  1.00  0.00     0.037 A 
HETATM    2  C9  UNL     1      27.306   0.896  53.421  1.00  0.00     0.032 A 
HETATM    3  C10 UNL     1      26.865   0.081  54.455  1.00  0.00     0.035 A 
HETATM    4  C11 UNL     1      25.542  -0.334  54.575  1.00  0.00     0.070 A 
HETATM    5  N4  UNL     1      25.096  -1.126  55.560  1.00  0.00    -0.241 NA
HETATM    6  C12 UNL     1      23.778  -1.457  55.544  1.00  0.00     0.234 A 
HETATM    7  N5  UNL     1      22.944  -1.017  54.590  1.00  0.00    -0.240 NA
HETATM    8  C13 UNL     1      23.352  -0.220  53.588  1.00  0.00     0.081 A 
HETATM    9  C20 UNL     1      24.702   0.127  53.587  1.00  0.00     0.025 A 
HETATM   10  C21 UNL     1      25.064   0.935  52.533  1.00  0.00     0.045 A 
ENDROOT
BRANCH   1  11
HETATM   11  N3  UNL     1      26.906   2.153  51.435  1.00  0.00    -0.309 N 
HETATM   12  C1  UNL     1      26.275   3.213  50.752  1.00  0.00     0.320 C 
HETATM   13  O1  UNL     1      25.069   3.413  51.139  1.00  0.00    -0.247 OA
HETATM   14  N1  UNL     1      26.844   4.042  49.714  1.00  0.00    -0.341 N 
HETATM   15  H1  UNL     1      27.811   3.686  49.571  1.00  0.00     0.164 HD
HETATM   16  H14 UNL     1      27.890   1.954  51.154  1.00  0.00     0.170 HD
BRANCH  14  17
HETATM   17  C2  UNL     1      25.847   4.978  49.321  1.00  0.00     0.154 C 
BRANCH  17  18
HETATM   18  C3  UNL     1      26.179   6.426  49.447  1.00  0.00     0.292 C 
BRANCH  18  19
HETATM   19  N2  UNL     1      26.678   7.062  48.284  1.00  0.00     0.094 N 
HETATM   20  C4  UNL     1      25.822   7.955  47.576  1.00  0.00     0.298 C 
HETATM   21  C5  UNL     1      25.398   9.125  48.457  1.00  0.00     0.198 C 
HETATM   22  O2  UNL     1      26.399   9.357  49.420  1.00  0.00    -0.388 OA
HETATM   23  C6  UNL     1      27.624   9.232  48.776  1.00  0.00     0.198 C 
HETATM   24  C7  UNL     1      27.934   7.779  48.575  1.00  0.00     0.298 C 
ENDBRANCH  18  19
ENDBRANCH  17  18
ENDBRANCH  14  17
ENDBRANCH   1  11
BRANCH   8  25
HETATM   25  C14 UNL     1      22.292   0.140  52.660  1.00  0.00    -0.005 A 
HETATM   26  C15 UNL     1      22.367   0.855  51.485  1.00  0.00     0.014 A 
HETATM   27  C16 UNL     1      21.248   1.086  50.709  1.00  0.00     0.002 A 
HETATM   28  C17 UNL     1      20.025   0.602  51.099  1.00  0.00     0.019 A 
HETATM   29  C18 UNL     1      19.874  -0.120  52.264  1.00  0.00     0.011 A 
HETATM   30 BR1  UNL     1      18.184  -0.791  52.811  1.00  0.00    -0.051 Br
HETATM   31  C19 UNL     1      21.022  -0.328  53.011  1.00  0.00     0.032 A 
ENDBRANCH   8  25
TORSDOF 5
ENDMDL
