MODEL 1
REMARK VINA RESULT:      -9.1      0.000      0.000
REMARK  1 active torsions:
REMARK  status: ('A' for Active; 'I' for Inactive)
REMARK    1  A    between atoms: O1_2  and  C2_3 
ROOT
HETATM    1  C2  UNL     1      19.839   3.191  50.360  1.00  0.00     0.179 C 
HETATM    2  C3  UNL     1      20.196   4.270  51.276  1.00  0.00     0.038 C 
HETATM    3  C4  UNL     1      21.516   4.795  51.559  1.00  0.00     0.025 C 
HETATM    4  C5  UNL     1      22.574   4.350  52.432  1.00  0.00     0.157 C 
HETATM    5  N1  UNL     1      23.328   3.194  52.422  1.00  0.00    -0.252 N 
HETATM    6  O2  UNL     1      22.520   2.336  52.960  1.00  0.00    -0.234 OA
HETATM    7  C6  UNL     1      22.640   1.033  53.293  1.00  0.00     0.113 A 
HETATM    8  C7  UNL     1      23.837   0.525  53.008  1.00  0.00     0.014 A 
HETATM    9  C8  UNL     1      24.362  -0.826  53.226  1.00  0.00     0.165 A 
HETATM   10  N2  UNL     1      25.732  -0.776  52.677  1.00  0.00    -0.352 N 
HETATM   11  C9  UNL     1      25.985   0.525  52.219  1.00  0.00     0.254 A 
HETATM   12  O3  UNL     1      27.097   0.772  51.742  1.00  0.00    -0.268 OA
HETATM   13  C10 UNL     1      24.826   1.448  52.384  1.00  0.00     0.071 A 
HETATM   14  C11 UNL     1      24.671   2.768  52.063  1.00  0.00     0.076 A 
HETATM   15  C12 UNL     1      25.948   3.246  51.550  1.00  0.00     0.066 C 
HETATM   16  C13 UNL     1      26.556   3.475  50.425  1.00  0.00     0.082 C 
HETATM   17  N3  UNL     1      25.844   3.019  49.420  1.00  0.00    -0.284 NA
HETATM   18  C14 UNL     1      24.483   3.489  49.581  1.00  0.00     0.176 C 
HETATM   19  C15 UNL     1      23.391   2.649  49.163  1.00  0.00    -0.007 C 
HETATM   20  C16 UNL     1      22.292   2.276  48.525  1.00  0.00    -0.003 C 
HETATM   21  C17 UNL     1      21.532   0.993  48.551  1.00  0.00     0.198 C 
HETATM   22  O4  UNL     1      20.225   1.282  49.022  1.00  0.00    -0.352 OA
HETATM   23  C18 UNL     1      20.375   1.849  50.324  1.00  0.00     0.386 C 
HETATM   24  N4  UNL     1      19.912   0.856  51.268  1.00  0.00     0.118 NA
HETATM   25  C19 UNL     1      20.193   1.234  52.615  1.00  0.00     0.301 C 
HETATM   26  C20 UNL     1      20.282   0.199  53.618  1.00  0.00     0.012 C 
HETATM   27  C21 UNL     1      21.620   0.189  53.901  1.00  0.00    -0.028 C 
HETATM   28  C22 UNL     1      22.129  -0.763  54.941  1.00  0.00     0.051 C 
HETATM   29  H13 UNL     1      26.327  -1.628  52.680  1.00  0.00     0.163 HD
HETATM   30  H22 UNL     1      20.270  -0.080  51.069  1.00  0.00     0.319 HD
ENDROOT
BRANCH   1  31
HETATM   31  O1  UNL     1      18.387   3.132  50.260  1.00  0.00    -0.386 OA
HETATM   32  C1  UNL     1      17.832   3.955  51.239  1.00  0.00     0.202 C 
ENDBRANCH   1  31
TORSDOF 1
ENDMDL
MODEL 2
REMARK VINA RESULT:      -8.9      2.032      5.276
REMARK  1 active torsions:
REMARK  status: ('A' for Active; 'I' for Inactive)
REMARK    1  A    between atoms: O1_2  and  C2_3 
ROOT
HETATM    1  C2  UNL     1      23.911   4.496  49.972  1.00  0.00     0.179 C 
HETATM    2  C3  UNL     1      23.765   3.559  48.863  1.00  0.00     0.038 C 
HETATM    3  C4  UNL     1      22.637   2.698  48.571  1.00  0.00     0.025 C 
HETATM    4  C5  UNL     1      22.237   1.411  49.084  1.00  0.00     0.157 C 
HETATM    5  N1  UNL     1      21.865   1.020  50.355  1.00  0.00    -0.252 N 
HETATM    6  O2  UNL     1      23.009   0.904  50.952  1.00  0.00    -0.234 OA
HETATM    7  C6  UNL     1      23.371   0.510  52.190  1.00  0.00     0.113 A 
HETATM    8  C7  UNL     1      22.338   0.172  52.959  1.00  0.00     0.014 A 
HETATM    9  C8  UNL     1      22.314  -0.317  54.340  1.00  0.00     0.165 A 
HETATM   10  N2  UNL     1      20.878  -0.487  54.640  1.00  0.00    -0.352 N 
HETATM   11  C9  UNL     1      20.138  -0.162  53.493  1.00  0.00     0.254 A 
HETATM   12  O3  UNL     1      18.909  -0.266  53.540  1.00  0.00    -0.268 OA
HETATM   13  C10 UNL     1      20.984   0.278  52.347  1.00  0.00     0.071 A 
HETATM   14  C11 UNL     1      20.653   0.679  51.082  1.00  0.00     0.076 A 
HETATM   15  C12 UNL     1      19.210   0.536  50.943  1.00  0.00     0.066 C 
HETATM   16  C13 UNL     1      18.121   1.241  51.001  1.00  0.00     0.082 C 
HETATM   17  N3  UNL     1      18.381   2.447  51.450  1.00  0.00    -0.284 NA
HETATM   18  C14 UNL     1      19.507   2.972  50.703  1.00  0.00     0.176 C 
HETATM   19  C15 UNL     1      20.453   3.833  51.365  1.00  0.00    -0.007 C 
HETATM   20  C16 UNL     1      21.193   4.904  51.603  1.00  0.00    -0.003 C 
HETATM   21  C17 UNL     1      22.164   5.201  52.695  1.00  0.00     0.198 C 
HETATM   22  O4  UNL     1      23.430   5.423  52.091  1.00  0.00    -0.352 OA
HETATM   23  C18 UNL     1      23.759   4.226  51.384  1.00  0.00     0.386 C 
HETATM   24  N4  UNL     1      24.827   3.585  52.120  1.00  0.00     0.118 NA
HETATM   25  C19 UNL     1      25.110   2.282  51.614  1.00  0.00     0.301 C 
HETATM   26  C20 UNL     1      25.740   1.324  52.491  1.00  0.00     0.012 C 
HETATM   27  C21 UNL     1      24.726   0.436  52.722  1.00  0.00    -0.028 C 
HETATM   28  C22 UNL     1      24.994  -0.753  53.596  1.00  0.00     0.051 C 
HETATM   29  H13 UNL     1      20.574  -0.803  55.582  1.00  0.00     0.163 HD
HETATM   30  H22 UNL     1      24.654   3.557  53.127  1.00  0.00     0.319 HD
ENDROOT
BRANCH   1  31
HETATM   31  O1  UNL     1      25.123   5.276  49.759  1.00  0.00    -0.386 OA
HETATM   32  C1  UNL     1      24.918   6.152  48.693  1.00  0.00     0.202 C 
ENDBRANCH   1  31
TORSDOF 1
ENDMDL
MODEL 3
REMARK VINA RESULT:      -8.1      8.840     12.515
REMARK  1 active torsions:
REMARK  status: ('A' for Active; 'I' for Inactive)
REMARK    1  A    between atoms: O1_2  and  C2_3 
ROOT
HETATM    1  C2  UNL     1      33.291   5.005  46.540  1.00  0.00     0.179 C 
HETATM    2  C3  UNL     1      32.783   5.332  45.211  1.00  0.00     0.038 C 
HETATM    3  C4  UNL     1      32.597   6.645  44.629  1.00  0.00     0.025 C 
HETATM    4  C5  UNL     1      31.542   7.622  44.749  1.00  0.00     0.157 C 
HETATM    5  N1  UNL     1      31.089   8.334  45.841  1.00  0.00    -0.252 N 
HETATM    6  O2  UNL     1      30.351   7.460  46.451  1.00  0.00    -0.234 OA
HETATM    7  C6  UNL     1      29.578   7.512  47.555  1.00  0.00     0.113 A 
HETATM    8  C7  UNL     1      29.572   8.708  48.139  1.00  0.00     0.014 A 
HETATM    9  C8  UNL     1      28.856   9.168  49.332  1.00  0.00     0.165 A 
HETATM   10  N2  UNL     1      29.277  10.575  49.488  1.00  0.00    -0.352 N 
HETATM   11  C9  UNL     1      30.138  10.906  48.431  1.00  0.00     0.254 A 
HETATM   12  O3  UNL     1      30.581  12.056  48.375  1.00  0.00    -0.268 OA
HETATM   13  C10 UNL     1      30.397   9.770  47.500  1.00  0.00     0.071 A 
HETATM   14  C11 UNL     1      31.169   9.684  46.375  1.00  0.00     0.076 A 
HETATM   15  C12 UNL     1      31.713  11.011  46.116  1.00  0.00     0.066 C 
HETATM   16  C13 UNL     1      32.795  11.705  46.299  1.00  0.00     0.082 C 
HETATM   17  N3  UNL     1      33.631  11.052  47.073  1.00  0.00    -0.284 NA
HETATM   18  C14 UNL     1      33.753   9.700  46.566  1.00  0.00     0.176 C 
HETATM   19  C15 UNL     1      33.938   8.613  47.492  1.00  0.00    -0.007 C 
HETATM   20  C16 UNL     1      34.491   7.551  48.056  1.00  0.00    -0.003 C 
HETATM   21  C17 UNL     1      34.081   6.747  49.243  1.00  0.00     0.198 C 
HETATM   22  O4  UNL     1      33.846   5.419  48.799  1.00  0.00    -0.352 OA
HETATM   23  C18 UNL     1      32.815   5.496  47.813  1.00  0.00     0.386 C 
HETATM   24  N4  UNL     1      31.624   4.931  48.410  1.00  0.00     0.118 NA
HETATM   25  C19 UNL     1      30.476   5.127  47.587  1.00  0.00     0.301 C 
HETATM   26  C20 UNL     1      29.171   5.109  48.206  1.00  0.00     0.012 C 
HETATM   27  C21 UNL     1      28.797   6.421  48.126  1.00  0.00    -0.028 C 
HETATM   28  C22 UNL     1      27.454   6.821  48.658  1.00  0.00     0.051 C 
HETATM   29  H13 UNL     1      28.930  11.139  50.289  1.00  0.00     0.163 HD
HETATM   30  H22 UNL     1      31.455   5.271  49.359  1.00  0.00     0.319 HD
ENDROOT
BRANCH   1  31
HETATM   31  O1  UNL     1      33.480   3.563  46.620  1.00  0.00    -0.386 OA
HETATM   32  C1  UNL     1      34.815   3.265  46.347  1.00  0.00     0.202 C 
ENDBRANCH   1  31
TORSDOF 1
ENDMDL
MODEL 4
REMARK VINA RESULT:      -8.1      2.230      3.532
REMARK  1 active torsions:
REMARK  status: ('A' for Active; 'I' for Inactive)
REMARK    1  A    between atoms: O1_2  and  C2_3 
ROOT
HETATM    1  C2  UNL     1      20.111   1.830  50.915  1.00  0.00     0.179 C 
HETATM    2  C3  UNL     1      19.882   2.993  51.767  1.00  0.00     0.038 C 
HETATM    3  C4  UNL     1      20.302   4.360  51.536  1.00  0.00     0.025 C 
HETATM    4  C5  UNL     1      21.552   5.045  51.754  1.00  0.00     0.157 C 
HETATM    5  N1  UNL     1      22.800   4.849  51.197  1.00  0.00    -0.252 N 
HETATM    6  O2  UNL     1      23.240   3.828  51.862  1.00  0.00    -0.234 OA
HETATM    7  C6  UNL     1      24.408   3.152  51.856  1.00  0.00     0.113 A 
HETATM    8  C7  UNL     1      25.291   3.635  50.984  1.00  0.00     0.014 A 
HETATM    9  C8  UNL     1      26.659   3.198  50.690  1.00  0.00     0.165 A 
HETATM   10  N2  UNL     1      27.108   4.107  49.616  1.00  0.00    -0.352 N 
HETATM   11  C9  UNL     1      26.083   5.027  49.349  1.00  0.00     0.254 A 
HETATM   12  O3  UNL     1      26.281   5.890  48.489  1.00  0.00    -0.268 OA
HETATM   13  C10 UNL     1      24.862   4.811  50.177  1.00  0.00     0.071 A 
HETATM   14  C11 UNL     1      23.667   5.475  50.212  1.00  0.00     0.076 A 
HETATM   15  C12 UNL     1      23.765   6.600  49.291  1.00  0.00     0.066 C 
HETATM   16  C13 UNL     1      23.440   6.937  48.080  1.00  0.00     0.082 C 
HETATM   17  N3  UNL     1      22.983   5.895  47.423  1.00  0.00    -0.284 NA
HETATM   18  C14 UNL     1      21.990   5.240  48.250  1.00  0.00     0.176 C 
HETATM   19  C15 UNL     1      21.866   3.806  48.203  1.00  0.00    -0.007 C 
HETATM   20  C16 UNL     1      21.300   2.619  48.054  1.00  0.00    -0.003 C 
HETATM   21  C17 UNL     1      21.864   1.243  48.168  1.00  0.00     0.198 C 
HETATM   22  O4  UNL     1      21.164   0.580  49.210  1.00  0.00    -0.352 OA
HETATM   23  C18 UNL     1      21.371   1.350  50.395  1.00  0.00     0.386 C 
HETATM   24  N4  UNL     1      22.261   0.585  51.240  1.00  0.00     0.118 NA
HETATM   25  C19 UNL     1      22.694   1.339  52.371  1.00  0.00     0.301 C 
HETATM   26  C20 UNL     1      23.930   0.965  53.018  1.00  0.00     0.012 C 
HETATM   27  C21 UNL     1      24.756   2.001  52.678  1.00  0.00    -0.028 C 
HETATM   28  C22 UNL     1      26.166   1.995  53.188  1.00  0.00     0.051 C 
HETATM   29  H13 UNL     1      28.052   3.994  49.197  1.00  0.00     0.163 HD
HETATM   30  H22 UNL     1      23.059   0.200  50.731  1.00  0.00     0.319 HD
ENDROOT
BRANCH   1  31
HETATM   31  O1  UNL     1      19.353   0.709  51.452  1.00  0.00    -0.386 OA
HETATM   32  C1  UNL     1      18.089   0.691  50.862  1.00  0.00     0.202 C 
ENDBRANCH   1  31
TORSDOF 1
ENDMDL
MODEL 5
REMARK VINA RESULT:      -8.0      7.254     11.116
REMARK  1 active torsions:
REMARK  status: ('A' for Active; 'I' for Inactive)
REMARK    1  A    between atoms: O1_2  and  C2_3 
ROOT
HETATM    1  C2  UNL     1      31.917   6.613  47.320  1.00  0.00     0.179 C 
HETATM    2  C3  UNL     1      31.445   6.680  45.940  1.00  0.00     0.038 C 
HETATM    3  C4  UNL     1      30.749   7.773  45.292  1.00  0.00     0.025 C 
HETATM    4  C5  UNL     1      29.364   8.175  45.282  1.00  0.00     0.157 C 
HETATM    5  N1  UNL     1      28.541   8.609  46.302  1.00  0.00    -0.252 N 
HETATM    6  O2  UNL     1      28.215   7.496  46.882  1.00  0.00    -0.234 OA
HETATM    7  C6  UNL     1      27.399   7.195  47.914  1.00  0.00     0.113 A 
HETATM    8  C7  UNL     1      26.807   8.261  48.446  1.00  0.00     0.014 A 
HETATM    9  C8  UNL     1      25.852   8.352  49.554  1.00  0.00     0.165 A 
HETATM   10  N2  UNL     1      25.587   9.798  49.688  1.00  0.00    -0.352 N 
HETATM   11  C9  UNL     1      26.306  10.480  48.695  1.00  0.00     0.254 A 
HETATM   12  O3  UNL     1      26.194  11.708  48.630  1.00  0.00    -0.268 OA
HETATM   13  C10 UNL     1      27.130   9.581  47.836  1.00  0.00     0.071 A 
HETATM   14  C11 UNL     1      27.962   9.851  46.785  1.00  0.00     0.076 A 
HETATM   15  C12 UNL     1      27.880  11.282  46.520  1.00  0.00     0.066 C 
HETATM   16  C13 UNL     1      28.518  12.386  46.765  1.00  0.00     0.082 C 
HETATM   17  N3  UNL     1      29.480  12.174  47.634  1.00  0.00    -0.284 NA
HETATM   18  C14 UNL     1      30.238  11.020  47.194  1.00  0.00     0.176 C 
HETATM   19  C15 UNL     1      30.799  10.128  48.176  1.00  0.00    -0.007 C 
HETATM   20  C16 UNL     1      31.711   9.424  48.828  1.00  0.00    -0.003 C 
HETATM   21  C17 UNL     1      31.591   8.520  50.007  1.00  0.00     0.198 C 
HETATM   22  O4  UNL     1      32.015   7.228  49.599  1.00  0.00    -0.352 OA
HETATM   23  C18 UNL     1      31.155   6.837  48.527  1.00  0.00     0.386 C 
HETATM   24  N4  UNL     1      30.290   5.799  49.043  1.00  0.00     0.118 NA
HETATM   25  C19 UNL     1      29.257   5.463  48.118  1.00  0.00     0.301 C 
HETATM   26  C20 UNL     1      28.045   4.862  48.625  1.00  0.00     0.012 C 
HETATM   27  C21 UNL     1      27.135   5.870  48.460  1.00  0.00    -0.028 C 
HETATM   28  C22 UNL     1      25.711   5.626  48.860  1.00  0.00     0.051 C 
HETATM   29  H13 UNL     1      24.952  10.147  50.433  1.00  0.00     0.163 HD
HETATM   30  H22 UNL     1      29.899   6.026  49.960  1.00  0.00     0.319 HD
ENDROOT
BRANCH   1  31
HETATM   31  O1  UNL     1      32.719   5.407  47.474  1.00  0.00    -0.386 OA
HETATM   32  C1  UNL     1      32.517   4.583  46.367  1.00  0.00     0.202 C 
ENDBRANCH   1  31
TORSDOF 1
ENDMDL
MODEL 6
REMARK VINA RESULT:      -7.9      2.743      5.465
REMARK  1 active torsions:
REMARK  status: ('A' for Active; 'I' for Inactive)
REMARK    1  A    between atoms: O1_2  and  C2_3 
ROOT
HETATM    1  C2  UNL     1      22.223   6.091  47.736  1.00  0.00     0.179 C 
HETATM    2  C3  UNL     1      22.293   5.001  46.767  1.00  0.00     0.038 C 
HETATM    3  C4  UNL     1      21.744   3.666  46.891  1.00  0.00     0.025 C 
HETATM    4  C5  UNL     1      22.223   2.474  47.547  1.00  0.00     0.157 C 
HETATM    5  N1  UNL     1      22.463   2.211  48.881  1.00  0.00    -0.252 N 
HETATM    6  O2  UNL     1      23.613   2.779  49.069  1.00  0.00    -0.234 OA
HETATM    7  C6  UNL     1      24.443   2.859  50.130  1.00  0.00     0.113 A 
HETATM    8  C7  UNL     1      23.985   2.224  51.207  1.00  0.00     0.014 A 
HETATM    9  C8  UNL     1      24.588   2.065  52.533  1.00  0.00     0.165 A 
HETATM   10  N2  UNL     1      23.590   1.289  53.295  1.00  0.00    -0.352 N 
HETATM   11  C9  UNL     1      22.513   0.987  52.448  1.00  0.00     0.254 A 
HETATM   12  O3  UNL     1      21.581   0.317  52.902  1.00  0.00    -0.268 OA
HETATM   13  C10 UNL     1      22.666   1.544  51.073  1.00  0.00     0.071 A 
HETATM   14  C11 UNL     1      21.850   1.480  49.978  1.00  0.00     0.076 A 
HETATM   15  C12 UNL     1      20.715   0.637  50.328  1.00  0.00     0.066 C 
HETATM   16  C13 UNL     1      19.481   0.728  50.722  1.00  0.00     0.082 C 
HETATM   17  N3  UNL     1      19.188   1.973  51.021  1.00  0.00    -0.284 NA
HETATM   18  C14 UNL     1      19.630   2.816  49.929  1.00  0.00     0.176 C 
HETATM   19  C15 UNL     1      20.131   4.136  50.214  1.00  0.00    -0.007 C 
HETATM   20  C16 UNL     1      20.241   5.454  50.162  1.00  0.00    -0.003 C 
HETATM   21  C17 UNL     1      21.169   6.388  50.861  1.00  0.00     0.198 C 
HETATM   22  O4  UNL     1      21.920   7.067  49.867  1.00  0.00    -0.352 OA
HETATM   23  C18 UNL     1      22.618   6.064  49.127  1.00  0.00     0.386 C 
HETATM   24  N4  UNL     1      24.014   6.173  49.488  1.00  0.00     0.118 NA
HETATM   25  C19 UNL     1      24.784   5.095  48.957  1.00  0.00     0.301 C 
HETATM   26  C20 UNL     1      26.027   4.751  49.606  1.00  0.00     0.012 C 
HETATM   27  C21 UNL     1      25.725   3.550  50.186  1.00  0.00    -0.028 C 
HETATM   28  C22 UNL     1      26.792   2.834  50.958  1.00  0.00     0.051 C 
HETATM   29  H13 UNL     1      23.760   1.058  54.294  1.00  0.00     0.163 HD
HETATM   30  H22 UNL     1      24.158   6.263  50.496  1.00  0.00     0.319 HD
ENDROOT
BRANCH   1  31
HETATM   31  O1  UNL     1      22.747   7.298  47.111  1.00  0.00    -0.386 OA
HETATM   32  C1  UNL     1      22.717   7.141  45.725  1.00  0.00     0.202 C 
ENDBRANCH   1  31
TORSDOF 1
ENDMDL
MODEL 7
REMARK VINA RESULT:      -7.7      4.637      6.275
REMARK  1 active torsions:
REMARK  status: ('A' for Active; 'I' for Inactive)
REMARK    1  A    between atoms: O1_2  and  C2_3 
ROOT
HETATM    1  C2  UNL     1      21.225   6.543  48.354  1.00  0.00     0.179 C 
HETATM    2  C3  UNL     1      21.294   7.026  49.730  1.00  0.00     0.038 C 
HETATM    3  C4  UNL     1      22.227   7.981  50.290  1.00  0.00     0.025 C 
HETATM    4  C5  UNL     1      23.579   7.850  50.775  1.00  0.00     0.157 C 
HETATM    5  N1  UNL     1      24.744   7.499  50.122  1.00  0.00    -0.252 N 
HETATM    6  O2  UNL     1      24.641   6.208  50.056  1.00  0.00    -0.234 OA
HETATM    7  C6  UNL     1      25.454   5.238  49.587  1.00  0.00     0.113 A 
HETATM    8  C7  UNL     1      26.597   5.704  49.088  1.00  0.00     0.014 A 
HETATM    9  C8  UNL     1      27.732   4.982  48.506  1.00  0.00     0.165 A 
HETATM   10  N2  UNL     1      28.677   6.047  48.114  1.00  0.00    -0.352 N 
HETATM   11  C9  UNL     1      28.136   7.287  48.488  1.00  0.00     0.254 A 
HETATM   12  O3  UNL     1      28.796   8.305  48.261  1.00  0.00    -0.268 OA
HETATM   13  C10 UNL     1      26.793   7.180  49.126  1.00  0.00     0.071 A 
HETATM   14  C11 UNL     1      25.947   8.137  49.613  1.00  0.00     0.076 A 
HETATM   15  C12 UNL     1      26.624   9.421  49.493  1.00  0.00     0.066 C 
HETATM   16  C13 UNL     1      26.677  10.459  48.715  1.00  0.00     0.082 C 
HETATM   17  N3  UNL     1      25.995  10.240  47.614  1.00  0.00    -0.284 NA
HETATM   18  C14 UNL     1      24.695   9.718  47.986  1.00  0.00     0.176 C 
HETATM   19  C15 UNL     1      24.057   8.744  47.139  1.00  0.00    -0.007 C 
HETATM   20  C16 UNL     1      23.127   8.187  46.379  1.00  0.00    -0.003 C 
HETATM   21  C17 UNL     1      23.107   6.886  45.651  1.00  0.00     0.198 C 
HETATM   22  O4  UNL     1      22.031   6.121  46.173  1.00  0.00    -0.352 OA
HETATM   23  C18 UNL     1      22.288   5.957  47.569  1.00  0.00     0.386 C 
HETATM   24  N4  UNL     1      22.658   4.572  47.766  1.00  0.00     0.118 NA
HETATM   25  C19 UNL     1      23.124   4.333  49.092  1.00  0.00     0.301 C 
HETATM   26  C20 UNL     1      23.990   3.200  49.325  1.00  0.00     0.012 C 
HETATM   27  C21 UNL     1      25.190   3.805  49.581  1.00  0.00    -0.028 C 
HETATM   28  C22 UNL     1      26.376   2.945  49.900  1.00  0.00     0.051 C 
HETATM   29  H13 UNL     1      29.571   5.806  47.642  1.00  0.00     0.163 HD
HETATM   30  H22 UNL     1      23.334   4.239  47.075  1.00  0.00     0.319 HD
ENDROOT
BRANCH   1  31
HETATM   31  O1  UNL     1      20.019   5.740  48.206  1.00  0.00    -0.386 OA
HETATM   32  C1  UNL     1      18.904   6.557  48.392  1.00  0.00     0.202 C 
ENDBRANCH   1  31
TORSDOF 1
ENDMDL
MODEL 8
REMARK VINA RESULT:      -7.5      3.605      6.904
REMARK  1 active torsions:
REMARK  status: ('A' for Active; 'I' for Inactive)
REMARK    1  A    between atoms: O1_2  and  C2_3 
ROOT
HETATM    1  C2  UNL     1      23.607   2.635  51.191  1.00  0.00     0.179 C 
HETATM    2  C3  UNL     1      23.828   3.497  52.348  1.00  0.00     0.038 C 
HETATM    3  C4  UNL     1      23.276   4.813  52.593  1.00  0.00     0.025 C 
HETATM    4  C5  UNL     1      23.659   6.129  52.141  1.00  0.00     0.157 C 
HETATM    5  N1  UNL     1      23.698   6.674  50.874  1.00  0.00    -0.252 N 
HETATM    6  O2  UNL     1      24.803   6.188  50.401  1.00  0.00    -0.234 OA
HETATM    7  C6  UNL     1      25.464   6.354  49.237  1.00  0.00     0.113 A 
HETATM    8  C7  UNL     1      24.854   7.190  48.399  1.00  0.00     0.014 A 
HETATM    9  C8  UNL     1      25.252   7.640  47.063  1.00  0.00     0.165 A 
HETATM   10  N2  UNL     1      24.156   8.535  46.639  1.00  0.00    -0.352 N 
HETATM   11  C9  UNL     1      23.221   8.623  47.681  1.00  0.00     0.254 A 
HETATM   12  O3  UNL     1      22.236   9.350  47.523  1.00  0.00    -0.268 OA
HETATM   13  C10 UNL     1      23.574   7.793  48.867  1.00  0.00     0.071 A 
HETATM   14  C11 UNL     1      22.932   7.603  50.060  1.00  0.00     0.076 A 
HETATM   15  C12 UNL     1      21.763   8.472  50.069  1.00  0.00     0.066 C 
HETATM   16  C13 UNL     1      20.483   8.435  49.852  1.00  0.00     0.082 C 
HETATM   17  N3  UNL     1      20.140   7.274  49.341  1.00  0.00    -0.284 NA
HETATM   18  C14 UNL     1      20.736   6.231  50.152  1.00  0.00     0.176 C 
HETATM   19  C15 UNL     1      21.179   5.015  49.522  1.00  0.00    -0.007 C 
HETATM   20  C16 UNL     1      21.287   3.718  49.277  1.00  0.00    -0.003 C 
HETATM   21  C17 UNL     1      22.094   2.976  48.265  1.00  0.00     0.198 C 
HETATM   22  O4  UNL     1      22.981   2.123  48.971  1.00  0.00    -0.352 OA
HETATM   23  C18 UNL     1      23.788   2.965  49.795  1.00  0.00     0.386 C 
HETATM   24  N4  UNL     1      25.114   2.970  49.217  1.00  0.00     0.118 NA
HETATM   25  C19 UNL     1      25.961   3.930  49.844  1.00  0.00     0.301 C 
HETATM   26  C20 UNL     1      27.096   4.435  49.107  1.00  0.00     0.012 C 
HETATM   27  C21 UNL     1      26.718   5.724  48.846  1.00  0.00    -0.028 C 
HETATM   28  C22 UNL     1      27.663   6.613  48.095  1.00  0.00     0.051 C 
HETATM   29  H13 UNL     1      24.175   8.976  45.698  1.00  0.00     0.163 HD
HETATM   30  H22 UNL     1      25.105   3.098  48.202  1.00  0.00     0.319 HD
ENDROOT
BRANCH   1  31
HETATM   31  O1  UNL     1      24.211   1.337  51.460  1.00  0.00    -0.386 OA
HETATM   32  C1  UNL     1      24.880   1.394  52.683  1.00  0.00     0.202 C 
ENDBRANCH   1  31
TORSDOF 1
ENDMDL
MODEL 9
REMARK VINA RESULT:      -7.3      8.168     11.008
REMARK  1 active torsions:
REMARK  status: ('A' for Active; 'I' for Inactive)
REMARK    1  A    between atoms: O1_2  and  C2_3 
ROOT
HETATM    1  C2  UNL     1      29.241  12.276  46.219  1.00  0.00     0.179 C 
HETATM    2  C3  UNL     1      30.050  12.472  47.418  1.00  0.00     0.038 C 
HETATM    3  C4  UNL     1      30.988  11.544  48.017  1.00  0.00     0.025 C 
HETATM    4  C5  UNL     1      30.813  10.417  48.900  1.00  0.00     0.157 C 
HETATM    5  N1  UNL     1      30.155   9.218  48.715  1.00  0.00    -0.252 N 
HETATM    6  O2  UNL     1      28.917   9.554  48.895  1.00  0.00    -0.234 OA
HETATM    7  C6  UNL     1      27.761   8.858  48.907  1.00  0.00     0.113 A 
HETATM    8  C7  UNL     1      27.928   7.555  48.687  1.00  0.00     0.014 A 
HETATM    9  C8  UNL     1      26.939   6.475  48.638  1.00  0.00     0.165 A 
HETATM   10  N2  UNL     1      27.733   5.269  48.330  1.00  0.00    -0.352 N 
HETATM   11  C9  UNL     1      29.087   5.630  48.254  1.00  0.00     0.254 A 
HETATM   12  O3  UNL     1      29.917   4.746  48.025  1.00  0.00    -0.268 OA
HETATM   13  C10 UNL     1      29.325   7.087  48.469  1.00  0.00     0.071 A 
HETATM   14  C11 UNL     1      30.478   7.822  48.467  1.00  0.00     0.076 A 
HETATM   15  C12 UNL     1      31.587   6.895  48.286  1.00  0.00     0.066 C 
HETATM   16  C13 UNL     1      32.372   6.438  47.358  1.00  0.00     0.082 C 
HETATM   17  N3  UNL     1      31.965   6.841  46.176  1.00  0.00    -0.284 NA
HETATM   18  C14 UNL     1      31.732   8.270  46.244  1.00  0.00     0.176 C 
HETATM   19  C15 UNL     1      30.663   8.848  45.470  1.00  0.00    -0.007 C 
HETATM   20  C16 UNL     1      30.054   9.641  44.603  1.00  0.00    -0.003 C 
HETATM   21  C17 UNL     1      28.622   9.730  44.195  1.00  0.00     0.198 C 
HETATM   22  O4  UNL     1      28.166  11.034  44.521  1.00  0.00    -0.352 OA
HETATM   23  C18 UNL     1      28.337  11.185  45.931  1.00  0.00     0.386 C 
HETATM   24  N4  UNL     1      27.016  11.162  46.517  1.00  0.00     0.118 NA
HETATM   25  C19 UNL     1      27.069  11.112  47.942  1.00  0.00     0.301 C 
HETATM   26  C20 UNL     1      25.934  10.579  48.657  1.00  0.00     0.012 C 
HETATM   27  C21 UNL     1      26.422   9.391  49.126  1.00  0.00    -0.028 C 
HETATM   28  C22 UNL     1      25.528   8.523  49.959  1.00  0.00     0.051 C 
HETATM   29  H13 UNL     1      27.263   4.350  48.210  1.00  0.00     0.163 HD
HETATM   30  H22 UNL     1      26.429  10.411  46.147  1.00  0.00     0.319 HD
ENDROOT
BRANCH   1  31
HETATM   31  O1  UNL     1      28.591  13.538  45.891  1.00  0.00    -0.386 OA
HETATM   32  C1  UNL     1      29.001  14.510  46.804  1.00  0.00     0.202 C 
ENDBRANCH   1  31
TORSDOF 1
ENDMDL
