MODEL 1
REMARK VINA RESULT:      -8.1      0.000      0.000
REMARK  7 active torsions:
REMARK  status: ('A' for Active; 'I' for Inactive)
REMARK    1  A    between atoms: C5_5  and  C6_6 
REMARK    2  A    between atoms: C7_7  and  C8_8 
REMARK    3  A    between atoms: N2_10  and  C9_11 
REMARK    4  A    between atoms: C9_11  and  S1_12 
REMARK    5  A    between atoms: S1_12  and  C10_13 
REMARK    6  A    between atoms: C11_14  and  O1_15 
REMARK    7  A    between atoms: C12_17  and  C13_18 
ROOT
HETATM    1  C1  UNL     1      26.975   8.145  47.364  1.00  0.00     0.017 C 
HETATM    2  C2  UNL     1      27.012   7.062  47.904  1.00  0.00    -0.083 C 
HETATM    3  C3  UNL     1      27.034   5.758  48.545  1.00  0.00    -0.009 C 
HETATM    4  C4  UNL     1      28.281   4.944  48.504  1.00  0.00     0.058 C 
HETATM    5  C5  UNL     1      25.963   5.283  49.164  1.00  0.00     0.016 C 
ENDROOT
BRANCH   5   6
HETATM    6  C6  UNL     1      25.996   3.975  49.802  1.00  0.00     0.003 C 
HETATM    7  C7  UNL     1      25.258   3.763  50.858  1.00  0.00     0.029 C 
BRANCH   7   8
HETATM    8  C8  UNL     1      25.263   2.448  51.535  1.00  0.00     0.056 C 
HETATM    9  N1  UNL     1      26.150   1.531  51.411  1.00  0.00    -0.181 NA
HETATM   10  N2  UNL     1      25.852   0.413  52.193  1.00  0.00    -0.288 N 
HETATM   11  C12 UNL     1      24.737   0.720  53.035  1.00  0.00     0.144 C 
HETATM   12  C18 UNL     1      24.204   2.005  52.484  1.00  0.00     0.090 C 
BRANCH  10  13
HETATM   13  C9  UNL     1      26.755  -0.712  51.917  1.00  0.00     0.226 C 
BRANCH  13  14
HETATM   14  S1  UNL     1      27.962  -0.843  53.231  1.00  0.00    -0.086 SA
BRANCH  14  15
HETATM   15  C10 UNL     1      28.471   0.846  53.624  1.00  0.00     0.125 A 
HETATM   16  C11 UNL     1      28.714   2.143  53.914  1.00  0.00     0.175 A 
HETATM   17  N3  UNL     1      29.834   1.278  53.821  1.00  0.00    -0.326 N 
HETATM   18  H11 UNL     1      30.829   1.588  53.964  1.00  0.00     0.168 HD
BRANCH  16  19
HETATM   19  O1  UNL     1      27.654   3.053  54.021  1.00  0.00    -0.344 OA
HETATM   20  H10 UNL     1      27.329   3.440  54.896  1.00  0.00     0.219 HD
ENDBRANCH  16  19
ENDBRANCH  14  15
ENDBRANCH  13  14
ENDBRANCH  10  13
BRANCH  11  21
HETATM   21  C13 UNL     1      23.617  -0.290  52.986  1.00  0.00     0.175 A 
HETATM   22  C14 UNL     1      23.608  -0.947  54.343  1.00  0.00     0.007 A 
HETATM   23  C15 UNL     1      22.621  -1.018  55.217  1.00  0.00     0.000 A 
HETATM   24  C16 UNL     1      21.387  -0.371  54.801  1.00  0.00     0.024 A 
HETATM   25  C17 UNL     1      21.302   0.225  53.643  1.00  0.00     0.135 A 
HETATM   26  O2  UNL     1      22.352   0.280  52.756  1.00  0.00    -0.352 OA
ENDBRANCH  11  21
ENDBRANCH   7   8
ENDBRANCH   5   6
TORSDOF 7
ENDMDL
MODEL 2
REMARK VINA RESULT:      -7.6      3.200      7.596
REMARK  7 active torsions:
REMARK  status: ('A' for Active; 'I' for Inactive)
REMARK    1  A    between atoms: C5_5  and  C6_6 
REMARK    2  A    between atoms: C7_7  and  C8_8 
REMARK    3  A    between atoms: N2_10  and  C9_11 
REMARK    4  A    between atoms: C9_11  and  S1_12 
REMARK    5  A    between atoms: S1_12  and  C10_13 
REMARK    6  A    between atoms: C11_14  and  O1_15 
REMARK    7  A    between atoms: C12_17  and  C13_18 
ROOT
HETATM    1  C1  UNL     1      17.433  -2.226  53.472  1.00  0.00     0.017 C 
HETATM    2  C2  UNL     1      18.315  -1.429  53.246  1.00  0.00    -0.083 C 
HETATM    3  C3  UNL     1      19.391  -0.488  52.980  1.00  0.00    -0.009 C 
HETATM    4  C4  UNL     1      19.248   0.489  51.865  1.00  0.00     0.058 C 
HETATM    5  C5  UNL     1      20.493  -0.486  53.714  1.00  0.00     0.016 C 
ENDROOT
BRANCH   5   6
HETATM    6  C6  UNL     1      21.564   0.461  53.439  1.00  0.00     0.003 C 
HETATM    7  C7  UNL     1      22.754   0.010  53.148  1.00  0.00     0.029 C 
BRANCH   7   8
HETATM    8  C8  UNL     1      23.869   0.940  52.862  1.00  0.00     0.056 C 
HETATM    9  N1  UNL     1      23.838   1.944  52.067  1.00  0.00    -0.181 NA
HETATM   10  N2  UNL     1      25.063   2.612  52.030  1.00  0.00    -0.288 N 
HETATM   11  C12 UNL     1      25.919   2.069  53.039  1.00  0.00     0.144 C 
HETATM   12  C18 UNL     1      25.217   0.825  53.485  1.00  0.00     0.090 C 
BRANCH  10  13
HETATM   13  C9  UNL     1      25.098   3.646  50.987  1.00  0.00     0.226 C 
BRANCH  13  14
HETATM   14  S1  UNL     1      23.474   4.377  50.819  1.00  0.00    -0.086 SA
BRANCH  14  15
HETATM   15  C10 UNL     1      23.698   6.162  50.990  1.00  0.00     0.125 A 
HETATM   16  C11 UNL     1      23.790   7.510  50.998  1.00  0.00     0.175 A 
HETATM   17  N3  UNL     1      24.425   6.809  52.054  1.00  0.00    -0.326 N 
HETATM   18  H11 UNL     1      24.956   7.277  52.833  1.00  0.00     0.168 HD
BRANCH  16  19
HETATM   19  O1  UNL     1      23.185   8.264  49.983  1.00  0.00    -0.344 OA
HETATM   20  H10 UNL     1      23.574   8.379  49.057  1.00  0.00     0.219 HD
ENDBRANCH  16  19
ENDBRANCH  14  15
ENDBRANCH  13  14
ENDBRANCH  10  13
BRANCH  11  21
HETATM   21  C13 UNL     1      27.288   1.663  52.550  1.00  0.00     0.175 A 
HETATM   22  C14 UNL     1      28.262   2.288  53.516  1.00  0.00     0.007 A 
HETATM   23  C15 UNL     1      29.181   1.697  54.257  1.00  0.00     0.000 A 
HETATM   24  C16 UNL     1      29.248   0.251  54.112  1.00  0.00     0.024 A 
HETATM   25  C17 UNL     1      28.442  -0.377  53.299  1.00  0.00     0.135 A 
HETATM   26  O2  UNL     1      27.496   0.273  52.541  1.00  0.00    -0.352 OA
ENDBRANCH  11  21
ENDBRANCH   7   8
ENDBRANCH   5   6
TORSDOF 7
ENDMDL
MODEL 3
REMARK VINA RESULT:      -7.4      3.758      6.192
REMARK  7 active torsions:
REMARK  status: ('A' for Active; 'I' for Inactive)
REMARK    1  A    between atoms: C5_5  and  C6_6 
REMARK    2  A    between atoms: C7_7  and  C8_8 
REMARK    3  A    between atoms: N2_10  and  C9_11 
REMARK    4  A    between atoms: C9_11  and  S1_12 
REMARK    5  A    between atoms: S1_12  and  C10_13 
REMARK    6  A    between atoms: C11_14  and  O1_15 
REMARK    7  A    between atoms: C12_17  and  C13_18 
ROOT
HETATM    1  C1  UNL     1      30.144  -1.256  53.813  1.00  0.00     0.017 C 
HETATM    2  C2  UNL     1      29.027  -0.960  53.450  1.00  0.00    -0.083 C 
HETATM    3  C3  UNL     1      27.696  -0.586  53.002  1.00  0.00    -0.009 C 
HETATM    4  C4  UNL     1      26.707  -1.653  52.681  1.00  0.00     0.058 C 
HETATM    5  C5  UNL     1      27.350   0.686  52.875  1.00  0.00     0.016 C 
ENDROOT
BRANCH   5   6
HETATM    6  C6  UNL     1      26.014   1.049  52.425  1.00  0.00     0.003 C 
HETATM    7  C7  UNL     1      25.272   1.811  53.181  1.00  0.00     0.029 C 
BRANCH   7   8
HETATM    8  C8  UNL     1      23.909   2.202  52.760  1.00  0.00     0.056 C 
HETATM    9  N1  UNL     1      23.517   3.382  52.450  1.00  0.00    -0.181 NA
HETATM   10  N2  UNL     1      22.166   3.402  52.097  1.00  0.00    -0.288 N 
HETATM   11  C12 UNL     1      21.687   2.057  52.015  1.00  0.00     0.144 C 
HETATM   12  C18 UNL     1      22.777   1.241  52.636  1.00  0.00     0.090 C 
BRANCH  10  13
HETATM   13  C9  UNL     1      21.660   4.770  51.922  1.00  0.00     0.226 C 
BRANCH  13  14
HETATM   14  S1  UNL     1      22.177   5.396  50.328  1.00  0.00    -0.086 SA
BRANCH  14  15
HETATM   15  C10 UNL     1      23.741   6.259  50.602  1.00  0.00     0.125 A 
HETATM   16  C11 UNL     1      24.837   7.025  50.795  1.00  0.00     0.175 A 
HETATM   17  N3  UNL     1      25.016   5.619  50.815  1.00  0.00    -0.326 N 
HETATM   18  H11 UNL     1      25.944   5.148  50.972  1.00  0.00     0.168 HD
BRANCH  16  19
HETATM   19  O1  UNL     1      24.731   8.422  50.787  1.00  0.00    -0.344 OA
HETATM   20  H10 UNL     1      24.960   9.001  49.991  1.00  0.00     0.219 HD
ENDBRANCH  16  19
ENDBRANCH  14  15
ENDBRANCH  13  14
ENDBRANCH  10  13
BRANCH  11  21
HETATM   21  C13 UNL     1      20.425   1.790  52.797  1.00  0.00     0.175 A 
HETATM   22  C14 UNL     1      19.341   1.613  51.764  1.00  0.00     0.007 A 
HETATM   23  C15 UNL     1      18.544   0.577  51.576  1.00  0.00     0.000 A 
HETATM   24  C16 UNL     1      18.753  -0.531  52.495  1.00  0.00     0.024 A 
HETATM   25  C17 UNL     1      19.670  -0.467  53.422  1.00  0.00     0.135 A 
HETATM   26  O2  UNL     1      20.483   0.630  53.588  1.00  0.00    -0.352 OA
ENDBRANCH  11  21
ENDBRANCH   7   8
ENDBRANCH   5   6
TORSDOF 7
ENDMDL
MODEL 4
REMARK VINA RESULT:      -7.4      1.687      1.989
REMARK  7 active torsions:
REMARK  status: ('A' for Active; 'I' for Inactive)
REMARK    1  A    between atoms: C5_5  and  C6_6 
REMARK    2  A    between atoms: C7_7  and  C8_8 
REMARK    3  A    between atoms: N2_10  and  C9_11 
REMARK    4  A    between atoms: C9_11  and  S1_12 
REMARK    5  A    between atoms: S1_12  and  C10_13 
REMARK    6  A    between atoms: C11_14  and  O1_15 
REMARK    7  A    between atoms: C12_17  and  C13_18 
ROOT
HETATM    1  C1  UNL     1      28.010   7.544  47.206  1.00  0.00     0.017 C 
HETATM    2  C2  UNL     1      27.367   6.906  48.009  1.00  0.00    -0.083 C 
HETATM    3  C3  UNL     1      26.615   6.124  48.976  1.00  0.00    -0.009 C 
HETATM    4  C4  UNL     1      25.696   6.819  49.921  1.00  0.00     0.058 C 
HETATM    5  C5  UNL     1      26.733   4.806  49.029  1.00  0.00     0.016 C 
ENDROOT
BRANCH   5   6
HETATM    6  C6  UNL     1      25.975   4.033  50.002  1.00  0.00     0.003 C 
HETATM    7  C7  UNL     1      26.436   2.877  50.396  1.00  0.00     0.029 C 
BRANCH   7   8
HETATM    8  C8  UNL     1      25.694   2.061  51.383  1.00  0.00     0.056 C 
HETATM    9  N1  UNL     1      26.203   1.250  52.235  1.00  0.00    -0.181 NA
HETATM   10  N2  UNL     1      25.220   0.640  53.018  1.00  0.00    -0.288 N 
HETATM   11  C12 UNL     1      23.959   1.256  52.744  1.00  0.00     0.144 C 
HETATM   12  C18 UNL     1      24.211   2.079  51.520  1.00  0.00     0.090 C 
BRANCH  10  13
HETATM   13  C9  UNL     1      25.772  -0.425  53.866  1.00  0.00     0.226 C 
BRANCH  13  14
HETATM   14  S1  UNL     1      26.983   0.270  54.984  1.00  0.00    -0.086 SA
BRANCH  14  15
HETATM   15  C10 UNL     1      28.596   0.013  54.212  1.00  0.00     0.125 A 
HETATM   16  C11 UNL     1      29.795  -0.314  53.682  1.00  0.00     0.175 A 
HETATM   17  N3  UNL     1      29.343   1.018  53.495  1.00  0.00    -0.326 N 
HETATM   18  H11 UNL     1      29.884   1.753  52.972  1.00  0.00     0.168 HD
BRANCH  16  19
HETATM   19  O1  UNL     1      30.302  -1.611  53.829  1.00  0.00    -0.344 OA
HETATM   20  H10 UNL     1      30.880  -1.907  54.604  1.00  0.00     0.219 HD
ENDBRANCH  16  19
ENDBRANCH  14  15
ENDBRANCH  13  14
ENDBRANCH  10  13
BRANCH  11  21
HETATM   21  C13 UNL     1      22.847   0.291  52.416  1.00  0.00     0.175 A 
HETATM   22  C14 UNL     1      22.101   0.081  53.709  1.00  0.00     0.007 A 
HETATM   23  C15 UNL     1      20.823   0.291  53.966  1.00  0.00     0.000 A 
HETATM   24  C16 UNL     1      20.047   0.790  52.842  1.00  0.00     0.024 A 
HETATM   25  C17 UNL     1      20.608   1.003  51.683  1.00  0.00     0.135 A 
HETATM   26  O2  UNL     1      21.945   0.774  51.452  1.00  0.00    -0.352 OA
ENDBRANCH  11  21
ENDBRANCH   7   8
ENDBRANCH   5   6
TORSDOF 7
ENDMDL
MODEL 5
REMARK VINA RESULT:      -7.3      4.051      6.709
REMARK  7 active torsions:
REMARK  status: ('A' for Active; 'I' for Inactive)
REMARK    1  A    between atoms: C5_5  and  C6_6 
REMARK    2  A    between atoms: C7_7  and  C8_8 
REMARK    3  A    between atoms: N2_10  and  C9_11 
REMARK    4  A    between atoms: C9_11  and  S1_12 
REMARK    5  A    between atoms: S1_12  and  C10_13 
REMARK    6  A    between atoms: C11_14  and  O1_15 
REMARK    7  A    between atoms: C12_17  and  C13_18 
ROOT
HETATM    1  C1  UNL     1      29.600  -1.242  53.679  1.00  0.00     0.017 C 
HETATM    2  C2  UNL     1      28.658  -0.584  53.298  1.00  0.00    -0.083 C 
HETATM    3  C3  UNL     1      27.542   0.220  52.829  1.00  0.00    -0.009 C 
HETATM    4  C4  UNL     1      26.250  -0.444  52.500  1.00  0.00     0.058 C 
HETATM    5  C5  UNL     1      27.657   1.532  52.689  1.00  0.00     0.016 C 
ENDROOT
BRANCH   5   6
HETATM    6  C6  UNL     1      26.532   2.328  52.218  1.00  0.00     0.003 C 
HETATM    7  C7  UNL     1      26.549   2.794  50.999  1.00  0.00     0.029 C 
BRANCH   7   8
HETATM    8  C8  UNL     1      25.426   3.608  50.483  1.00  0.00     0.056 C 
HETATM    9  N1  UNL     1      25.039   4.744  50.932  1.00  0.00    -0.181 NA
HETATM   10  N2  UNL     1      23.949   5.240  50.214  1.00  0.00    -0.288 N 
HETATM   11  C12 UNL     1      23.721   4.402  49.077  1.00  0.00     0.144 C 
HETATM   12  C18 UNL     1      24.572   3.197  49.333  1.00  0.00     0.090 C 
BRANCH  10  13
HETATM   13  C9  UNL     1      23.380   6.444  50.834  1.00  0.00     0.226 C 
BRANCH  13  14
HETATM   14  S1  UNL     1      23.804   7.877  49.848  1.00  0.00    -0.086 SA
BRANCH  14  15
HETATM   15  C10 UNL     1      25.564   8.183  50.126  1.00  0.00     0.125 A 
HETATM   16  C11 UNL     1      26.841   8.538  50.387  1.00  0.00     0.175 A 
HETATM   17  N3  UNL     1      26.628   7.266  49.797  1.00  0.00    -0.326 N 
HETATM   18  H11 UNL     1      27.401   6.594  49.557  1.00  0.00     0.168 HD
BRANCH  16  19
HETATM   19  O1  UNL     1      27.123   9.781  50.968  1.00  0.00    -0.344 OA
HETATM   20  H10 UNL     1      26.415  10.443  51.256  1.00  0.00     0.219 HD
ENDBRANCH  16  19
ENDBRANCH  14  15
ENDBRANCH  13  14
ENDBRANCH  10  13
BRANCH  11  21
HETATM   21  C13 UNL     1      22.298   3.924  48.924  1.00  0.00     0.175 A 
HETATM   22  C14 UNL     1      22.366   2.760  47.968  1.00  0.00     0.007 A 
HETATM   23  C15 UNL     1      21.966   1.516  48.156  1.00  0.00     0.000 A 
HETATM   24  C16 UNL     1      21.388   1.249  49.464  1.00  0.00     0.024 A 
HETATM   25  C17 UNL     1      21.290   2.196  50.357  1.00  0.00     0.135 A 
HETATM   26  O2  UNL     1      21.718   3.483  50.126  1.00  0.00    -0.352 OA
ENDBRANCH  11  21
ENDBRANCH   7   8
ENDBRANCH   5   6
TORSDOF 7
ENDMDL
MODEL 6
REMARK VINA RESULT:      -7.2      3.008      3.456
REMARK  7 active torsions:
REMARK  status: ('A' for Active; 'I' for Inactive)
REMARK    1  A    between atoms: C5_5  and  C6_6 
REMARK    2  A    between atoms: C7_7  and  C8_8 
REMARK    3  A    between atoms: N2_10  and  C9_11 
REMARK    4  A    between atoms: C9_11  and  S1_12 
REMARK    5  A    between atoms: S1_12  and  C10_13 
REMARK    6  A    between atoms: C11_14  and  O1_15 
REMARK    7  A    between atoms: C12_17  and  C13_18 
ROOT
HETATM    1  C1  UNL     1      21.094   9.264  49.073  1.00  0.00     0.017 C 
HETATM    2  C2  UNL     1      21.298   8.188  49.589  1.00  0.00    -0.083 C 
HETATM    3  C3  UNL     1      21.554   6.908  50.227  1.00  0.00    -0.009 C 
HETATM    4  C4  UNL     1      20.536   5.825  50.127  1.00  0.00     0.058 C 
HETATM    5  C5  UNL     1      22.677   6.689  50.894  1.00  0.00     0.016 C 
ENDROOT
BRANCH   5   6
HETATM    6  C6  UNL     1      22.923   5.403  51.529  1.00  0.00     0.003 C 
HETATM    7  C7  UNL     1      23.900   4.654  51.094  1.00  0.00     0.029 C 
BRANCH   7   8
HETATM    8  C8  UNL     1      24.182   3.340  51.713  1.00  0.00     0.056 C 
HETATM    9  N1  UNL     1      25.285   2.691  51.652  1.00  0.00    -0.181 NA
HETATM   10  N2  UNL     1      25.213   1.482  52.348  1.00  0.00    -0.288 N 
HETATM   11  C12 UNL     1      23.979   1.434  53.069  1.00  0.00     0.144 C 
HETATM   12  C18 UNL     1      23.185   2.576  52.515  1.00  0.00     0.090 C 
BRANCH  10  13
HETATM   13  C9  UNL     1      26.402   0.647  52.130  1.00  0.00     0.226 C 
BRANCH  13  14
HETATM   14  S1  UNL     1      27.304   0.484  53.667  1.00  0.00    -0.086 SA
BRANCH  14  15
HETATM   15  C10 UNL     1      28.466  -0.881  53.433  1.00  0.00     0.125 A 
HETATM   16  C11 UNL     1      29.221  -1.985  53.250  1.00  0.00     0.175 A 
HETATM   17  N3  UNL     1      29.903  -0.751  53.403  1.00  0.00    -0.326 N 
HETATM   18  H11 UNL     1      30.950  -0.653  53.381  1.00  0.00     0.168 HD
BRANCH  16  19
HETATM   19  O1  UNL     1      28.612  -3.238  53.092  1.00  0.00    -0.344 OA
HETATM   20  H10 UNL     1      29.087  -4.055  52.733  1.00  0.00     0.219 HD
ENDBRANCH  16  19
ENDBRANCH  14  15
ENDBRANCH  13  14
ENDBRANCH  10  13
BRANCH  11  21
HETATM   21  C13 UNL     1      23.173   0.177  52.850  1.00  0.00     0.175 A 
HETATM   22  C14 UNL     1      23.446  -0.691  54.051  1.00  0.00     0.007 A 
HETATM   23  C15 UNL     1      22.585  -1.193  54.917  1.00  0.00     0.000 A 
HETATM   24  C16 UNL     1      21.194  -0.852  54.665  1.00  0.00     0.024 A 
HETATM   25  C17 UNL     1      20.862  -0.104  53.648  1.00  0.00     0.135 A 
HETATM   26  O2  UNL     1      21.788   0.402  52.765  1.00  0.00    -0.352 OA
ENDBRANCH  11  21
ENDBRANCH   7   8
ENDBRANCH   5   6
TORSDOF 7
ENDMDL
MODEL 7
REMARK VINA RESULT:      -6.8      2.223      4.734
REMARK  7 active torsions:
REMARK  status: ('A' for Active; 'I' for Inactive)
REMARK    1  A    between atoms: C5_5  and  C6_6 
REMARK    2  A    between atoms: C7_7  and  C8_8 
REMARK    3  A    between atoms: N2_10  and  C9_11 
REMARK    4  A    between atoms: C9_11  and  S1_12 
REMARK    5  A    between atoms: S1_12  and  C10_13 
REMARK    6  A    between atoms: C11_14  and  O1_15 
REMARK    7  A    between atoms: C12_17  and  C13_18 
ROOT
HETATM    1  C1  UNL     1      26.478   9.378  46.622  1.00  0.00     0.017 C 
HETATM    2  C2  UNL     1      26.271   8.646  47.564  1.00  0.00    -0.083 C 
HETATM    3  C3  UNL     1      26.032   7.748  48.682  1.00  0.00    -0.009 C 
HETATM    4  C4  UNL     1      26.267   8.232  50.071  1.00  0.00     0.058 C 
HETATM    5  C5  UNL     1      25.609   6.509  48.484  1.00  0.00     0.016 C 
ENDROOT
BRANCH   5   6
HETATM    6  C6  UNL     1      25.373   5.618  49.611  1.00  0.00     0.003 C 
HETATM    7  C7  UNL     1      25.835   4.398  49.566  1.00  0.00     0.029 C 
BRANCH   7   8
HETATM    8  C8  UNL     1      25.616   3.462  50.691  1.00  0.00     0.056 C 
HETATM    9  N1  UNL     1      24.484   3.106  51.175  1.00  0.00    -0.181 NA
HETATM   10  N2  UNL     1      24.634   2.208  52.234  1.00  0.00    -0.288 N 
HETATM   11  C12 UNL     1      26.009   1.823  52.325  1.00  0.00     0.144 C 
HETATM   12  C18 UNL     1      26.720   2.789  51.430  1.00  0.00     0.090 C 
BRANCH  10  13
HETATM   13  C9  UNL     1      23.361   1.939  52.916  1.00  0.00     0.226 C 
BRANCH  13  14
HETATM   14  S1  UNL     1      22.658   0.420  52.286  1.00  0.00    -0.086 SA
BRANCH  14  15
HETATM   15  C10 UNL     1      22.352  -0.634  53.723  1.00  0.00     0.125 A 
HETATM   16  C11 UNL     1      21.988  -1.426  54.754  1.00  0.00     0.175 A 
HETATM   17  N3  UNL     1      23.351  -1.043  54.680  1.00  0.00    -0.326 N 
HETATM   18  H11 UNL     1      24.083  -1.339  55.376  1.00  0.00     0.168 HD
BRANCH  16  19
HETATM   19  O1  UNL     1      20.657  -1.842  54.888  1.00  0.00    -0.344 OA
HETATM   20  H10 UNL     1      20.119  -1.750  55.739  1.00  0.00     0.219 HD
ENDBRANCH  16  19
ENDBRANCH  14  15
ENDBRANCH  13  14
ENDBRANCH  10  13
BRANCH  11  21
HETATM   21  C13 UNL     1      26.610   1.961  53.703  1.00  0.00     0.175 A 
HETATM   22  C14 UNL     1      26.622   0.568  54.278  1.00  0.00     0.007 A 
HETATM   23  C15 UNL     1      27.651  -0.130  54.724  1.00  0.00     0.000 A 
HETATM   24  C16 UNL     1      28.934   0.550  54.640  1.00  0.00     0.024 A 
HETATM   25  C17 UNL     1      29.020   1.759  54.155  1.00  0.00     0.135 A 
HETATM   26  O2  UNL     1      27.925   2.456  53.699  1.00  0.00    -0.352 OA
ENDBRANCH  11  21
ENDBRANCH   7   8
ENDBRANCH   5   6
TORSDOF 7
ENDMDL
MODEL 8
REMARK VINA RESULT:      -6.8      4.839      8.719
REMARK  7 active torsions:
REMARK  status: ('A' for Active; 'I' for Inactive)
REMARK    1  A    between atoms: C5_5  and  C6_6 
REMARK    2  A    between atoms: C7_7  and  C8_8 
REMARK    3  A    between atoms: N2_10  and  C9_11 
REMARK    4  A    between atoms: C9_11  and  S1_12 
REMARK    5  A    between atoms: S1_12  and  C10_13 
REMARK    6  A    between atoms: C11_14  and  O1_15 
REMARK    7  A    between atoms: C12_17  and  C13_18 
ROOT
HETATM    1  C1  UNL     1      22.081   1.117  50.740  1.00  0.00     0.017 C 
HETATM    2  C2  UNL     1      22.752   1.981  50.222  1.00  0.00    -0.083 C 
HETATM    3  C3  UNL     1      23.577   3.006  49.604  1.00  0.00    -0.009 C 
HETATM    4  C4  UNL     1      23.062   3.742  48.416  1.00  0.00     0.058 C 
HETATM    5  C5  UNL     1      24.779   3.295  50.082  1.00  0.00     0.016 C 
ENDROOT
BRANCH   5   6
HETATM    6  C6  UNL     1      25.597   4.323  49.455  1.00  0.00     0.003 C 
HETATM    7  C7  UNL     1      26.864   4.090  49.248  1.00  0.00     0.029 C 
BRANCH   7   8
HETATM    8  C8  UNL     1      27.729   5.109  48.614  1.00  0.00     0.056 C 
HETATM    9  N1  UNL     1      28.973   4.983  48.332  1.00  0.00    -0.181 NA
HETATM   10  N2  UNL     1      29.488   6.137  47.738  1.00  0.00    -0.288 N 
HETATM   11  C12 UNL     1      28.412   7.038  47.462  1.00  0.00     0.144 C 
HETATM   12  C18 UNL     1      27.250   6.460  48.208  1.00  0.00     0.090 C 
BRANCH  10  13
HETATM   13  C9  UNL     1      30.948   6.074  47.582  1.00  0.00     0.226 C 
BRANCH  13  14
HETATM   14  S1  UNL     1      31.712   5.913  49.191  1.00  0.00    -0.086 SA
BRANCH  14  15
HETATM   15  C10 UNL     1      33.497   5.975  48.916  1.00  0.00     0.125 A 
HETATM   16  C11 UNL     1      34.822   6.163  48.730  1.00  0.00     0.175 A 
HETATM   17  N3  UNL     1      34.334   4.834  48.636  1.00  0.00    -0.326 N 
HETATM   18  H11 UNL     1      34.941   4.000  48.433  1.00  0.00     0.168 HD
BRANCH  16  19
HETATM   19  O1  UNL     1      35.370   7.449  48.809  1.00  0.00    -0.344 OA
HETATM   20  H10 UNL     1      35.079   8.147  49.480  1.00  0.00     0.219 HD
ENDBRANCH  16  19
ENDBRANCH  14  15
ENDBRANCH  13  14
ENDBRANCH  10  13
BRANCH  11  21
HETATM   21  C13 UNL     1      28.622   8.442  47.974  1.00  0.00     0.175 A 
HETATM   22  C14 UNL     1      27.523   9.265  47.351  1.00  0.00     0.007 A 
HETATM   23  C15 UNL     1      26.598   9.993  47.951  1.00  0.00     0.000 A 
HETATM   24  C16 UNL     1      26.662   9.988  49.403  1.00  0.00     0.024 A 
HETATM   25  C17 UNL     1      27.580   9.302  50.030  1.00  0.00     0.135 A 
HETATM   26  O2  UNL     1      28.528   8.554  49.372  1.00  0.00    -0.352 OA
ENDBRANCH  11  21
ENDBRANCH   7   8
ENDBRANCH   5   6
TORSDOF 7
ENDMDL
MODEL 9
REMARK VINA RESULT:      -6.7      4.736      7.365
REMARK  7 active torsions:
REMARK  status: ('A' for Active; 'I' for Inactive)
REMARK    1  A    between atoms: C5_5  and  C6_6 
REMARK    2  A    between atoms: C7_7  and  C8_8 
REMARK    3  A    between atoms: N2_10  and  C9_11 
REMARK    4  A    between atoms: C9_11  and  S1_12 
REMARK    5  A    between atoms: S1_12  and  C10_13 
REMARK    6  A    between atoms: C11_14  and  O1_15 
REMARK    7  A    between atoms: C12_17  and  C13_18 
ROOT
HETATM    1  C1  UNL     1      30.189  -0.915  53.829  1.00  0.00     0.017 C 
HETATM    2  C2  UNL     1      29.044  -0.922  53.437  1.00  0.00    -0.083 C 
HETATM    3  C3  UNL     1      27.672  -0.910  52.955  1.00  0.00    -0.009 C 
HETATM    4  C4  UNL     1      27.011  -2.197  52.601  1.00  0.00     0.058 C 
HETATM    5  C5  UNL     1      27.004   0.226  52.827  1.00  0.00     0.016 C 
ENDROOT
BRANCH   5   6
HETATM    6  C6  UNL     1      25.631   0.226  52.343  1.00  0.00     0.003 C 
HETATM    7  C7  UNL     1      24.917   1.313  52.454  1.00  0.00     0.029 C 
BRANCH   7   8
HETATM    8  C8  UNL     1      23.518   1.354  51.974  1.00  0.00     0.056 C 
HETATM    9  N1  UNL     1      23.031   2.172  51.116  1.00  0.00    -0.181 NA
HETATM   10  N2  UNL     1      21.673   1.935  50.888  1.00  0.00    -0.288 N 
HETATM   11  C12 UNL     1      21.295   0.726  51.553  1.00  0.00     0.144 C 
HETATM   12  C18 UNL     1      22.458   0.417  52.442  1.00  0.00     0.090 C 
BRANCH  10  13
HETATM   13  C9  UNL     1      21.062   2.978  50.054  1.00  0.00     0.226 C 
BRANCH  13  14
HETATM   14  S1  UNL     1      20.369   4.250  51.104  1.00  0.00    -0.086 SA
BRANCH  14  15
HETATM   15  C10 UNL     1      18.594   4.281  50.764  1.00  0.00     0.125 A 
HETATM   16  C11 UNL     1      17.300   4.375  50.392  1.00  0.00     0.175 A 
HETATM   17  N3  UNL     1      17.578   3.699  51.607  1.00  0.00    -0.326 N 
HETATM   18  H11 UNL     1      16.839   3.273  52.223  1.00  0.00     0.168 HD
BRANCH  16  19
HETATM   19  O1  UNL     1      16.954   5.031  49.202  1.00  0.00    -0.344 OA
HETATM   20  H10 UNL     1      17.071   4.630  48.282  1.00  0.00     0.219 HD
ENDBRANCH  16  19
ENDBRANCH  14  15
ENDBRANCH  13  14
ENDBRANCH  10  13
BRANCH  11  21
HETATM   21  C13 UNL     1      20.076   0.849  52.434  1.00  0.00     0.175 A 
HETATM   22  C14 UNL     1      18.910   0.447  51.567  1.00  0.00     0.007 A 
HETATM   23  C15 UNL     1      18.027  -0.514  51.768  1.00  0.00     0.000 A 
HETATM   24  C16 UNL     1      18.220  -1.276  52.992  1.00  0.00     0.024 A 
HETATM   25  C17 UNL     1      19.204  -1.000  53.804  1.00  0.00     0.135 A 
HETATM   26  O2  UNL     1      20.106   0.010  53.561  1.00  0.00    -0.352 OA
ENDBRANCH  11  21
ENDBRANCH   7   8
ENDBRANCH   5   6
TORSDOF 7
ENDMDL
