MODEL 1
REMARK VINA RESULT:      -7.8      0.000      0.000
REMARK  6 active torsions:
REMARK  status: ('A' for Active; 'I' for Inactive)
REMARK    1  A    between atoms: O1_2  and  C2_3 
REMARK    2  A    between atoms: C11_12  and  C12_13 
REMARK    3  A    between atoms: C13_14  and  C14_15 
REMARK    4  A    between atoms: N1_16  and  N2_17 
REMARK    5  A    between atoms: N2_17  and  C15_18 
REMARK    6  A    between atoms: C15_18  and  N3_19 
ROOT
HETATM    1  C2  UNL     1      19.380  -0.906  53.355  1.00  0.00     0.064 C 
HETATM    2  C3  UNL     1      18.683  -0.485  52.313  1.00  0.00     0.014 C 
HETATM    3  C4  UNL     1      18.840   0.737  51.528  1.00  0.00     0.069 C 
HETATM    4  C5  UNL     1      20.168   1.051  51.042  1.00  0.00    -0.047 A 
HETATM    5  C6  UNL     1      20.060   1.211  49.656  1.00  0.00     0.008 A 
HETATM    6  C7  UNL     1      21.088   1.519  48.787  1.00  0.00     0.001 A 
HETATM    7  C8  UNL     1      22.331   1.679  49.360  1.00  0.00     0.001 A 
HETATM    8  C9  UNL     1      22.489   1.531  50.720  1.00  0.00     0.009 A 
HETATM    9  C10 UNL     1      21.425   1.218  51.576  1.00  0.00    -0.040 A 
HETATM   10  C11 UNL     1      22.081   1.172  52.885  1.00  0.00     0.064 C 
HETATM   11  C16 UNL     1      21.484   0.305  53.895  1.00  0.00    -0.011 C 
HETATM   12  C17 UNL     1      20.489  -0.516  54.193  1.00  0.00     0.033 C 
ENDROOT
BRANCH  10  13
HETATM   13  C12 UNL     1      23.471   0.636  52.646  1.00  0.00    -0.012 C 
HETATM   14  C13 UNL     1      24.082  -0.104  53.574  1.00  0.00     0.018 C 
BRANCH  14  15
HETATM   15  C14 UNL     1      25.438  -0.631  53.350  1.00  0.00     0.138 C 
HETATM   16  N1  UNL     1      26.108  -0.075  54.316  1.00  0.00    -0.185 NA
BRANCH  16  17
HETATM   17  N2  UNL     1      27.469  -0.273  54.527  1.00  0.00    -0.254 N 
HETATM   18  H15 UNL     1      27.053  -1.113  54.957  1.00  0.00     0.191 HD
BRANCH  17  19
HETATM   19  C15 UNL     1      28.837   0.113  54.420  1.00  0.00     0.185 C 
HETATM   20  S1  UNL     1      29.751  -0.976  53.614  1.00  0.00    -0.040 SA
BRANCH  19  21
HETATM   21  N3  UNL     1      28.885   1.376  55.096  1.00  0.00    -0.375 N 
HETATM   22  H16 UNL     1      29.538   2.101  54.712  1.00  0.00     0.158 HD
HETATM   23  H17 UNL     1      28.234   1.404  55.920  1.00  0.00     0.158 HD
ENDBRANCH  19  21
ENDBRANCH  17  19
ENDBRANCH  16  17
ENDBRANCH  14  15
ENDBRANCH  10  13
BRANCH   1  24
HETATM   24  O1  UNL     1      18.829  -2.142  53.745  1.00  0.00    -0.356 OA
HETATM   25  C1  UNL     1      17.468  -2.391  53.377  1.00  0.00     0.210 C 
ENDBRANCH   1  24
TORSDOF 6
ENDMDL
MODEL 2
REMARK VINA RESULT:      -7.5      4.575      6.273
REMARK  6 active torsions:
REMARK  status: ('A' for Active; 'I' for Inactive)
REMARK    1  A    between atoms: O1_2  and  C2_3 
REMARK    2  A    between atoms: C11_12  and  C12_13 
REMARK    3  A    between atoms: C13_14  and  C14_15 
REMARK    4  A    between atoms: N1_16  and  N2_17 
REMARK    5  A    between atoms: N2_17  and  C15_18 
REMARK    6  A    between atoms: C15_18  and  N3_19 
ROOT
HETATM    1  C2  UNL     1      26.325  -0.034  54.171  1.00  0.00     0.064 C 
HETATM    2  C3  UNL     1      25.302  -0.856  54.338  1.00  0.00     0.014 C 
HETATM    3  C4  UNL     1      23.872  -0.560  54.356  1.00  0.00     0.069 C 
HETATM    4  C5  UNL     1      23.341   0.229  53.263  1.00  0.00    -0.047 A 
HETATM    5  C6  UNL     1      22.295  -0.514  52.704  1.00  0.00     0.008 A 
HETATM    6  C7  UNL     1      21.506  -0.139  51.635  1.00  0.00     0.001 A 
HETATM    7  C8  UNL     1      21.795   1.089  51.078  1.00  0.00     0.001 A 
HETATM    8  C9  UNL     1      22.816   1.858  51.593  1.00  0.00     0.009 A 
HETATM    9  C10 UNL     1      23.598   1.448  52.680  1.00  0.00    -0.040 A 
HETATM   10  C11 UNL     1      24.520   2.575  52.844  1.00  0.00     0.064 C 
HETATM   11  C16 UNL     1      25.826   2.284  53.422  1.00  0.00    -0.011 C 
HETATM   12  C17 UNL     1      26.616   1.362  53.950  1.00  0.00     0.033 C 
ENDROOT
BRANCH  10  13
HETATM   13  C12 UNL     1      24.787   3.111  51.460  1.00  0.00    -0.012 C 
HETATM   14  C13 UNL     1      25.913   2.796  50.815  1.00  0.00     0.018 C 
BRANCH  14  15
HETATM   15  C14 UNL     1      26.183   3.314  49.464  1.00  0.00     0.138 C 
HETATM   16  N1  UNL     1      27.167   4.135  49.681  1.00  0.00    -0.185 NA
BRANCH  16  17
HETATM   17  N2  UNL     1      27.784   4.885  48.683  1.00  0.00    -0.254 N 
HETATM   18  H15 UNL     1      27.515   4.024  48.182  1.00  0.00     0.191 HD
BRANCH  17  19
HETATM   19  C15 UNL     1      28.456   6.046  48.205  1.00  0.00     0.185 C 
HETATM   20  S1  UNL     1      30.077   5.859  48.113  1.00  0.00    -0.040 SA
BRANCH  19  21
HETATM   21  N3  UNL     1      27.394   6.982  47.975  1.00  0.00    -0.375 N 
HETATM   22  H16 UNL     1      26.936   6.966  47.033  1.00  0.00     0.158 HD
HETATM   23  H17 UNL     1      27.213   7.582  48.819  1.00  0.00     0.158 HD
ENDBRANCH  19  21
ENDBRANCH  17  19
ENDBRANCH  16  17
ENDBRANCH  14  15
ENDBRANCH  10  13
BRANCH   1  24
HETATM   24  O1  UNL     1      27.495  -0.817  54.237  1.00  0.00    -0.356 OA
HETATM   25  C1  UNL     1      28.707  -0.144  54.592  1.00  0.00     0.210 C 
ENDBRANCH   1  24
TORSDOF 6
ENDMDL
MODEL 3
REMARK VINA RESULT:      -7.2      5.077      7.610
REMARK  6 active torsions:
REMARK  status: ('A' for Active; 'I' for Inactive)
REMARK    1  A    between atoms: O1_2  and  C2_3 
REMARK    2  A    between atoms: C11_12  and  C12_13 
REMARK    3  A    between atoms: C13_14  and  C14_15 
REMARK    4  A    between atoms: N1_16  and  N2_17 
REMARK    5  A    between atoms: N2_17  and  C15_18 
REMARK    6  A    between atoms: C15_18  and  N3_19 
ROOT
HETATM    1  C2  UNL     1      24.257   3.380  50.168  1.00  0.00     0.064 C 
HETATM    2  C3  UNL     1      25.552   3.115  50.115  1.00  0.00     0.014 C 
HETATM    3  C4  UNL     1      26.441   2.632  51.168  1.00  0.00     0.069 C 
HETATM    4  C5  UNL     1      26.014   1.470  51.920  1.00  0.00    -0.047 A 
HETATM    5  C6  UNL     1      27.044   0.527  51.819  1.00  0.00     0.008 A 
HETATM    6  C7  UNL     1      27.058  -0.731  52.389  1.00  0.00     0.001 A 
HETATM    7  C8  UNL     1      25.940  -1.071  53.121  1.00  0.00     0.001 A 
HETATM    8  C9  UNL     1      24.900  -0.176  53.248  1.00  0.00     0.009 A 
HETATM    9  C10 UNL     1      24.917   1.094  52.658  1.00  0.00    -0.040 A 
HETATM   10  C11 UNL     1      23.624   1.647  53.071  1.00  0.00     0.064 C 
HETATM   11  C16 UNL     1      23.017   2.640  52.193  1.00  0.00    -0.011 C 
HETATM   12  C17 UNL     1      23.148   3.363  51.091  1.00  0.00     0.033 C 
ENDROOT
BRANCH  10  13
HETATM   13  C12 UNL     1      22.660   0.488  53.117  1.00  0.00    -0.012 C 
HETATM   14  C13 UNL     1      21.408   0.662  53.549  1.00  0.00     0.018 C 
BRANCH  14  15
HETATM   15  C14 UNL     1      20.460  -0.463  53.598  1.00  0.00     0.138 C 
HETATM   16  N1  UNL     1      19.479  -0.020  52.868  1.00  0.00    -0.185 NA
BRANCH  16  17
HETATM   17  N2  UNL     1      18.319  -0.746  52.610  1.00  0.00    -0.254 N 
HETATM   18  H15 UNL     1      18.674  -0.549  51.662  1.00  0.00     0.191 HD
BRANCH  17  19
HETATM   19  C15 UNL     1      17.154  -1.457  53.018  1.00  0.00     0.185 C 
HETATM   20  S1  UNL     1      15.791  -0.932  52.284  1.00  0.00    -0.040 SA
BRANCH  19  21
HETATM   21  N3  UNL     1      17.653  -2.409  53.966  1.00  0.00    -0.375 N 
HETATM   22  H16 UNL     1      18.581  -2.205  54.408  1.00  0.00     0.158 HD
HETATM   23  H17 UNL     1      16.994  -3.217  54.092  1.00  0.00     0.158 HD
ENDBRANCH  19  21
ENDBRANCH  17  19
ENDBRANCH  16  17
ENDBRANCH  14  15
ENDBRANCH  10  13
BRANCH   1  24
HETATM   24  O1  UNL     1      23.874   3.817  48.886  1.00  0.00    -0.356 OA
HETATM   25  C1  UNL     1      23.385   5.158  48.776  1.00  0.00     0.210 C 
ENDBRANCH   1  24
TORSDOF 6
ENDMDL
MODEL 4
REMARK VINA RESULT:      -7.2      4.479      6.098
REMARK  6 active torsions:
REMARK  status: ('A' for Active; 'I' for Inactive)
REMARK    1  A    between atoms: O1_2  and  C2_3 
REMARK    2  A    between atoms: C11_12  and  C12_13 
REMARK    3  A    between atoms: C13_14  and  C14_15 
REMARK    4  A    between atoms: N1_16  and  N2_17 
REMARK    5  A    between atoms: N2_17  and  C15_18 
REMARK    6  A    between atoms: C15_18  and  N3_19 
ROOT
HETATM    1  C2  UNL     1      21.803   0.342  53.152  1.00  0.00     0.064 C 
HETATM    2  C3  UNL     1      22.584  -0.452  53.866  1.00  0.00     0.014 C 
HETATM    3  C4  UNL     1      23.967  -0.853  53.622  1.00  0.00     0.069 C 
HETATM    4  C5  UNL     1      24.925   0.197  53.340  1.00  0.00    -0.047 A 
HETATM    5  C6  UNL     1      25.962   0.051  54.269  1.00  0.00     0.008 A 
HETATM    6  C7  UNL     1      27.090   0.842  54.364  1.00  0.00     0.001 A 
HETATM    7  C8  UNL     1      27.183   1.868  53.448  1.00  0.00     0.001 A 
HETATM    8  C9  UNL     1      26.187   2.052  52.514  1.00  0.00     0.009 A 
HETATM    9  C10 UNL     1      25.054   1.231  52.444  1.00  0.00    -0.040 A 
HETATM   10  C11 UNL     1      24.315   1.815  51.321  1.00  0.00     0.064 C 
HETATM   11  C16 UNL     1      22.866   1.659  51.330  1.00  0.00    -0.011 C 
HETATM   12  C17 UNL     1      21.817   1.140  51.949  1.00  0.00     0.033 C 
ENDROOT
BRANCH  10  13
HETATM   13  C12 UNL     1      24.574   3.300  51.367  1.00  0.00    -0.012 C 
HETATM   14  C13 UNL     1      23.855   4.139  50.617  1.00  0.00     0.018 C 
BRANCH  14  15
HETATM   15  C14 UNL     1      24.100   5.590  50.656  1.00  0.00     0.138 C 
HETATM   16  N1  UNL     1      25.371   5.656  50.390  1.00  0.00    -0.185 NA
BRANCH  16  17
HETATM   17  N2  UNL     1      26.083   6.850  50.313  1.00  0.00    -0.254 N 
HETATM   18  H15 UNL     1      26.068   6.666  51.327  1.00  0.00     0.191 HD
BRANCH  17  19
HETATM   19  C15 UNL     1      26.665   7.932  49.591  1.00  0.00     0.185 C 
HETATM   20  S1  UNL     1      26.494   7.791  47.972  1.00  0.00    -0.040 SA
BRANCH  19  21
HETATM   21  N3  UNL     1      27.206   8.773  50.619  1.00  0.00    -0.375 N 
HETATM   22  H16 UNL     1      27.417   9.767  50.364  1.00  0.00     0.158 HD
HETATM   23  H17 UNL     1      27.322   8.255  51.526  1.00  0.00     0.158 HD
ENDBRANCH  19  21
ENDBRANCH  17  19
ENDBRANCH  16  17
ENDBRANCH  14  15
ENDBRANCH  10  13
BRANCH   1  24
HETATM   24  O1  UNL     1      20.563   0.405  53.817  1.00  0.00    -0.356 OA
HETATM   25  C1  UNL     1      19.562  -0.536  53.413  1.00  0.00     0.210 C 
ENDBRANCH   1  24
TORSDOF 6
ENDMDL
MODEL 5
REMARK VINA RESULT:      -7.1      6.026      7.626
REMARK  6 active torsions:
REMARK  status: ('A' for Active; 'I' for Inactive)
REMARK    1  A    between atoms: O1_2  and  C2_3 
REMARK    2  A    between atoms: C11_12  and  C12_13 
REMARK    3  A    between atoms: C13_14  and  C14_15 
REMARK    4  A    between atoms: N1_16  and  N2_17 
REMARK    5  A    between atoms: N2_17  and  C15_18 
REMARK    6  A    between atoms: C15_18  and  N3_19 
ROOT
HETATM    1  C2  UNL     1      22.556   4.646  51.072  1.00  0.00     0.064 C 
HETATM    2  C3  UNL     1      22.476   3.879  52.147  1.00  0.00     0.014 C 
HETATM    3  C4  UNL     1      23.116   2.594  52.415  1.00  0.00     0.069 C 
HETATM    4  C5  UNL     1      24.543   2.499  52.187  1.00  0.00    -0.047 A 
HETATM    5  C6  UNL     1      25.111   2.046  53.383  1.00  0.00     0.008 A 
HETATM    6  C7  UNL     1      26.452   1.812  53.614  1.00  0.00     0.001 A 
HETATM    7  C8  UNL     1      27.295   2.056  52.550  1.00  0.00     0.001 A 
HETATM    8  C9  UNL     1      26.783   2.503  51.352  1.00  0.00     0.009 A 
HETATM    9  C10 UNL     1      25.416   2.730  51.150  1.00  0.00    -0.040 A 
HETATM   10  C11 UNL     1      25.378   3.183  49.757  1.00  0.00     0.064 C 
HETATM   11  C16 UNL     1      24.287   4.075  49.381  1.00  0.00    -0.011 C 
HETATM   12  C17 UNL     1      23.183   4.692  49.773  1.00  0.00     0.033 C 
ENDROOT
BRANCH  10  13
HETATM   13  C12 UNL     1      26.649   3.961  49.527  1.00  0.00    -0.012 C 
HETATM   14  C13 UNL     1      26.657   5.028  48.724  1.00  0.00     0.018 C 
BRANCH  14  15
HETATM   15  C14 UNL     1      27.893   5.794  48.494  1.00  0.00     0.138 C 
HETATM   16  N1  UNL     1      27.556   6.980  48.905  1.00  0.00    -0.185 NA
BRANCH  16  17
HETATM   17  N2  UNL     1      28.413   8.077  48.888  1.00  0.00    -0.254 N 
HETATM   18  H15 UNL     1      28.689   7.566  48.036  1.00  0.00     0.191 HD
BRANCH  17  19
HETATM   19  C15 UNL     1      28.924   9.293  49.428  1.00  0.00     0.185 C 
HETATM   20  S1  UNL     1      30.167   9.908  48.562  1.00  0.00    -0.040 SA
BRANCH  19  21
HETATM   21  N3  UNL     1      28.108   9.520  50.584  1.00  0.00    -0.375 N 
HETATM   22  H16 UNL     1      27.268  10.136  50.465  1.00  0.00     0.158 HD
HETATM   23  H17 UNL     1      28.479   9.018  51.429  1.00  0.00     0.158 HD
ENDBRANCH  19  21
ENDBRANCH  17  19
ENDBRANCH  16  17
ENDBRANCH  14  15
ENDBRANCH  10  13
BRANCH   1  24
HETATM   24  O1  UNL     1      21.752   5.777  51.314  1.00  0.00    -0.356 OA
HETATM   25  C1  UNL     1      21.540   6.670  50.216  1.00  0.00     0.210 C 
ENDBRANCH   1  24
TORSDOF 6
ENDMDL
MODEL 6
REMARK VINA RESULT:      -7.0      2.810      4.481
REMARK  6 active torsions:
REMARK  status: ('A' for Active; 'I' for Inactive)
REMARK    1  A    between atoms: O1_2  and  C2_3 
REMARK    2  A    between atoms: C11_12  and  C12_13 
REMARK    3  A    between atoms: C13_14  and  C14_15 
REMARK    4  A    between atoms: N1_16  and  N2_17 
REMARK    5  A    between atoms: N2_17  and  C15_18 
REMARK    6  A    between atoms: C15_18  and  N3_19 
ROOT
HETATM    1  C2  UNL     1      21.268   4.419  51.071  1.00  0.00     0.064 C 
HETATM    2  C3  UNL     1      20.254   3.854  51.705  1.00  0.00     0.014 C 
HETATM    3  C4  UNL     1      19.952   2.437  51.891  1.00  0.00     0.069 C 
HETATM    4  C5  UNL     1      21.017   1.589  52.386  1.00  0.00    -0.047 A 
HETATM    5  C6  UNL     1      20.521   0.951  53.529  1.00  0.00     0.008 A 
HETATM    6  C7  UNL     1      21.203   0.049  54.321  1.00  0.00     0.001 A 
HETATM    7  C8  UNL     1      22.495  -0.236  53.932  1.00  0.00     0.001 A 
HETATM    8  C9  UNL     1      23.028   0.368  52.814  1.00  0.00     0.009 A 
HETATM    9  C10 UNL     1      22.308   1.279  52.031  1.00  0.00    -0.040 A 
HETATM   10  C11 UNL     1      23.279   1.629  50.990  1.00  0.00     0.064 C 
HETATM   11  C16 UNL     1      23.152   2.949  50.383  1.00  0.00    -0.011 C 
HETATM   12  C17 UNL     1      22.455   4.073  50.326  1.00  0.00     0.033 C 
ENDROOT
BRANCH  10  13
HETATM   13  C12 UNL     1      24.636   1.602  51.646  1.00  0.00    -0.012 C 
HETATM   14  C13 UNL     1      25.640   2.338  51.162  1.00  0.00     0.018 C 
BRANCH  14  15
HETATM   15  C14 UNL     1      26.968   2.318  51.796  1.00  0.00     0.138 C 
HETATM   16  N1  UNL     1      26.962   1.166  52.399  1.00  0.00    -0.185 NA
BRANCH  16  17
HETATM   17  N2  UNL     1      28.028   0.683  53.153  1.00  0.00    -0.254 N 
HETATM   18  H15 UNL     1      28.484   1.379  52.545  1.00  0.00     0.191 HD
BRANCH  17  19
HETATM   19  C15 UNL     1      28.591  -0.161  54.155  1.00  0.00     0.185 C 
HETATM   20  S1  UNL     1      29.879  -1.016  53.626  1.00  0.00    -0.040 SA
BRANCH  19  21
HETATM   21  N3  UNL     1      27.765   0.080  55.302  1.00  0.00    -0.375 N 
HETATM   22  H16 UNL     1      28.204   0.579  56.112  1.00  0.00     0.158 HD
HETATM   23  H17 UNL     1      26.793  -0.295  55.169  1.00  0.00     0.158 HD
ENDBRANCH  19  21
ENDBRANCH  17  19
ENDBRANCH  16  17
ENDBRANCH  14  15
ENDBRANCH  10  13
BRANCH   1  24
HETATM   24  O1  UNL     1      21.097   5.812  51.181  1.00  0.00    -0.356 OA
HETATM   25  C1  UNL     1      22.076   6.639  50.544  1.00  0.00     0.210 C 
ENDBRANCH   1  24
TORSDOF 6
ENDMDL
MODEL 7
REMARK VINA RESULT:      -7.0      5.180      6.849
REMARK  6 active torsions:
REMARK  status: ('A' for Active; 'I' for Inactive)
REMARK    1  A    between atoms: O1_2  and  C2_3 
REMARK    2  A    between atoms: C11_12  and  C12_13 
REMARK    3  A    between atoms: C13_14  and  C14_15 
REMARK    4  A    between atoms: N1_16  and  N2_17 
REMARK    5  A    between atoms: N2_17  and  C15_18 
REMARK    6  A    between atoms: C15_18  and  N3_19 
ROOT
HETATM    1  C2  UNL     1      22.399   3.883  51.163  1.00  0.00     0.064 C 
HETATM    2  C3  UNL     1      22.440   3.124  52.245  1.00  0.00     0.014 C 
HETATM    3  C4  UNL     1      23.290   1.972  52.534  1.00  0.00     0.069 C 
HETATM    4  C5  UNL     1      24.714   2.125  52.323  1.00  0.00    -0.047 A 
HETATM    5  C6  UNL     1      25.337   1.788  53.530  1.00  0.00     0.008 A 
HETATM    6  C7  UNL     1      26.696   1.793  53.778  1.00  0.00     0.001 A 
HETATM    7  C8  UNL     1      27.497   2.170  52.722  1.00  0.00     0.001 A 
HETATM    8  C9  UNL     1      26.931   2.511  51.513  1.00  0.00     0.009 A 
HETATM    9  C10 UNL     1      25.547   2.495  51.293  1.00  0.00    -0.040 A 
HETATM   10  C11 UNL     1      25.448   2.923  49.895  1.00  0.00     0.064 C 
HETATM   11  C16 UNL     1      24.225   3.608  49.497  1.00  0.00    -0.011 C 
HETATM   12  C17 UNL     1      23.025   4.027  49.871  1.00  0.00     0.033 C 
ENDROOT
BRANCH  10  13
HETATM   13  C12 UNL     1      26.568   3.909  49.671  1.00  0.00    -0.012 C 
HETATM   14  C13 UNL     1      26.408   4.942  48.841  1.00  0.00     0.018 C 
BRANCH  14  15
HETATM   15  C14 UNL     1      27.494   5.909  48.616  1.00  0.00     0.138 C 
HETATM   16  N1  UNL     1      28.528   5.130  48.493  1.00  0.00    -0.185 NA
BRANCH  16  17
HETATM   17  N2  UNL     1      29.821   5.592  48.261  1.00  0.00    -0.254 N 
HETATM   18  H15 UNL     1      29.254   6.203  47.655  1.00  0.00     0.191 HD
BRANCH  17  19
HETATM   19  C15 UNL     1      31.230   5.565  48.468  1.00  0.00     0.185 C 
HETATM   20  S1  UNL     1      32.030   4.700  47.335  1.00  0.00    -0.040 SA
BRANCH  19  21
HETATM   21  N3  UNL     1      31.414   6.349  49.654  1.00  0.00    -0.375 N 
HETATM   22  H16 UNL     1      32.034   7.191  49.581  1.00  0.00     0.158 HD
HETATM   23  H17 UNL     1      30.880   5.956  50.469  1.00  0.00     0.158 HD
ENDBRANCH  19  21
ENDBRANCH  17  19
ENDBRANCH  16  17
ENDBRANCH  14  15
ENDBRANCH  10  13
BRANCH   1  24
HETATM   24  O1  UNL     1      21.408   4.859  51.384  1.00  0.00    -0.356 OA
HETATM   25  C1  UNL     1      20.321   4.904  50.453  1.00  0.00     0.210 C 
ENDBRANCH   1  24
TORSDOF 6
ENDMDL
MODEL 8
REMARK VINA RESULT:      -6.9      5.015      6.468
REMARK  6 active torsions:
REMARK  status: ('A' for Active; 'I' for Inactive)
REMARK    1  A    between atoms: O1_2  and  C2_3 
REMARK    2  A    between atoms: C11_12  and  C12_13 
REMARK    3  A    between atoms: C13_14  and  C14_15 
REMARK    4  A    between atoms: N1_16  and  N2_17 
REMARK    5  A    between atoms: N2_17  and  C15_18 
REMARK    6  A    between atoms: C15_18  and  N3_19 
ROOT
HETATM    1  C2  UNL     1      21.286   2.286  51.995  1.00  0.00     0.064 C 
HETATM    2  C3  UNL     1      21.834   1.376  52.783  1.00  0.00     0.014 C 
HETATM    3  C4  UNL     1      23.042   0.581  52.578  1.00  0.00     0.069 C 
HETATM    4  C5  UNL     1      24.246   1.288  52.194  1.00  0.00    -0.047 A 
HETATM    5  C6  UNL     1      25.228   0.946  53.131  1.00  0.00     0.008 A 
HETATM    6  C7  UNL     1      26.535   1.393  53.146  1.00  0.00     0.001 A 
HETATM    7  C8  UNL     1      26.884   2.260  52.132  1.00  0.00     0.001 A 
HETATM    8  C9  UNL     1      25.952   2.627  51.186  1.00  0.00     0.009 A 
HETATM    9  C10 UNL     1      24.634   2.154  51.199  1.00  0.00    -0.040 A 
HETATM   10  C11 UNL     1      24.055   2.813  50.024  1.00  0.00     0.064 C 
HETATM   11  C16 UNL     1      22.621   3.072  50.049  1.00  0.00    -0.011 C 
HETATM   12  C17 UNL     1      21.487   2.929  50.719  1.00  0.00     0.033 C 
ENDROOT
BRANCH  10  13
HETATM   13  C12 UNL     1      24.720   4.163  49.922  1.00  0.00    -0.012 C 
HETATM   14  C13 UNL     1      24.385   5.013  48.948  1.00  0.00     0.018 C 
BRANCH  14  15
HETATM   15  C14 UNL     1      25.028   6.333  48.841  1.00  0.00     0.138 C 
HETATM   16  N1  UNL     1      26.227   6.086  49.279  1.00  0.00    -0.185 NA
BRANCH  16  17
HETATM   17  N2  UNL     1      27.230   7.047  49.370  1.00  0.00    -0.254 N 
HETATM   18  H15 UNL     1      27.761   6.165  49.433  1.00  0.00     0.191 HD
BRANCH  17  19
HETATM   19  C15 UNL     1      27.693   8.394  49.405  1.00  0.00     0.185 C 
HETATM   20  S1  UNL     1      28.363   8.880  47.995  1.00  0.00    -0.040 SA
BRANCH  19  21
HETATM   21  N3  UNL     1      27.375   8.828  50.734  1.00  0.00    -0.375 N 
HETATM   22  H16 UNL     1      26.585   9.509  50.840  1.00  0.00     0.158 HD
HETATM   23  H17 UNL     1      28.004   8.386  51.450  1.00  0.00     0.158 HD
ENDBRANCH  19  21
ENDBRANCH  17  19
ENDBRANCH  16  17
ENDBRANCH  14  15
ENDBRANCH  10  13
BRANCH   1  24
HETATM   24  O1  UNL     1      20.132   2.756  52.651  1.00  0.00    -0.356 OA
HETATM   25  C1  UNL     1      19.142   3.401  51.842  1.00  0.00     0.210 C 
ENDBRANCH   1  24
TORSDOF 6
ENDMDL
MODEL 9
REMARK VINA RESULT:      -6.6      4.180      5.491
REMARK  6 active torsions:
REMARK  status: ('A' for Active; 'I' for Inactive)
REMARK    1  A    between atoms: O1_2  and  C2_3 
REMARK    2  A    between atoms: C11_12  and  C12_13 
REMARK    3  A    between atoms: C13_14  and  C14_15 
REMARK    4  A    between atoms: N1_16  and  N2_17 
REMARK    5  A    between atoms: N2_17  and  C15_18 
REMARK    6  A    between atoms: C15_18  and  N3_19 
ROOT
HETATM    1  C2  UNL     1      18.724   1.965  50.702  1.00  0.00     0.064 C 
HETATM    2  C3  UNL     1      18.247   1.106  51.588  1.00  0.00     0.014 C 
HETATM    3  C4  UNL     1      18.821  -0.153  52.057  1.00  0.00     0.069 C 
HETATM    4  C5  UNL     1      20.202  -0.134  52.495  1.00  0.00    -0.047 A 
HETATM    5  C6  UNL     1      20.216  -0.649  53.796  1.00  0.00     0.008 A 
HETATM    6  C7  UNL     1      21.329  -0.813  54.598  1.00  0.00     0.001 A 
HETATM    7  C8  UNL     1      22.530  -0.425  54.043  1.00  0.00     0.001 A 
HETATM    8  C9  UNL     1      22.567   0.088  52.765  1.00  0.00     0.009 A 
HETATM    9  C10 UNL     1      21.419   0.241  51.977  1.00  0.00    -0.040 A 
HETATM   10  C11 UNL     1      21.963   0.809  50.741  1.00  0.00     0.064 C 
HETATM   11  C16 UNL     1      21.075   1.655  49.954  1.00  0.00    -0.011 C 
HETATM   12  C17 UNL     1      19.858   2.163  49.832  1.00  0.00     0.033 C 
ENDROOT
BRANCH  10  13
HETATM   13  C12 UNL     1      23.121   1.685  51.147  1.00  0.00    -0.012 C 
HETATM   14  C13 UNL     1      23.513   2.697  50.370  1.00  0.00     0.018 C 
BRANCH  14  15
HETATM   15  C14 UNL     1      24.641   3.559  50.758  1.00  0.00     0.138 C 
HETATM   16  N1  UNL     1      24.308   4.697  50.226  1.00  0.00    -0.185 NA
BRANCH  16  17
HETATM   17  N2  UNL     1      25.080   5.851  50.323  1.00  0.00    -0.254 N 
HETATM   18  H15 UNL     1      25.768   5.150  50.008  1.00  0.00     0.191 HD
BRANCH  17  19
HETATM   19  C15 UNL     1      25.256   7.237  50.607  1.00  0.00     0.185 C 
HETATM   20  S1  UNL     1      26.448   7.928  49.727  1.00  0.00    -0.040 SA
BRANCH  19  21
HETATM   21  N3  UNL     1      24.265   7.505  51.608  1.00  0.00    -0.375 N 
HETATM   22  H16 UNL     1      24.505   8.213  52.342  1.00  0.00     0.158 HD
HETATM   23  H17 UNL     1      23.398   6.930  51.463  1.00  0.00     0.158 HD
ENDBRANCH  19  21
ENDBRANCH  17  19
ENDBRANCH  16  17
ENDBRANCH  14  15
ENDBRANCH  10  13
BRANCH   1  24
HETATM   24  O1  UNL     1      17.791   3.016  50.607  1.00  0.00    -0.356 OA
HETATM   25  C1  UNL     1      18.315   4.331  50.394  1.00  0.00     0.210 C 
ENDBRANCH   1  24
TORSDOF 6
ENDMDL
