MODEL 1
REMARK VINA RESULT:      -8.3      0.000      0.000
REMARK  5 active torsions:
REMARK  status: ('A' for Active; 'I' for Inactive)
REMARK    1  A    between atoms: N1_1  and  C1_2 
REMARK    2  A    between atoms: C3_4  and  C4_5 
REMARK    3  A    between atoms: C4_5  and  N2_6 
REMARK    4  A    between atoms: C7_9  and  N3_10 
REMARK    5  A    between atoms: N3_10  and  C8_11 
ROOT
HETATM    1  C4  UNL     1      21.099   1.329  51.963  1.00  0.00     0.246 C 
HETATM    2  C5  UNL     1      22.131   1.152  53.035  1.00  0.00     0.084 C 
HETATM    3  C6  UNL     1      23.514   1.025  52.452  1.00  0.00     0.002 C 
HETATM    4  C7  UNL     1      24.282   1.888  51.803  1.00  0.00     0.015 C 
HETATM    5  C14 UNL     1      24.101   3.325  51.386  1.00  0.00     0.131 C 
HETATM    6  S1  UNL     1      22.924   4.130  52.499  1.00  0.00    -0.156 SA
HETATM    7  C15 UNL     1      21.299   4.108  51.701  1.00  0.00     0.155 C 
HETATM    8  C16 UNL     1      20.658   2.759  51.816  1.00  0.00     0.179 C 
HETATM    9  O1  UNL     1      19.428   2.911  51.775  1.00  0.00    -0.294 OA
ENDROOT
BRANCH   1  10
HETATM   10  C3  UNL     1      19.884   0.548  52.315  1.00  0.00     0.001 C 
HETATM   11  C2  UNL     1      19.377  -0.005  53.393  1.00  0.00     0.013 C 
HETATM   12  C1  UNL     1      18.457  -0.901  53.155  1.00  0.00     0.037 C 
HETATM   13  C18 UNL     1      17.987  -0.670  51.792  1.00  0.00     0.030 C 
HETATM   14  C17 UNL     1      18.867   0.215  51.296  1.00  0.00     0.013 C 
BRANCH  12  15
HETATM   15  N1  UNL     1      17.915  -1.956  53.966  1.00  0.00    -0.398 N 
HETATM   16  H1  UNL     1      17.500  -1.559  54.838  1.00  0.00     0.156 HD
HETATM   17  H2  UNL     1      18.018  -2.932  53.566  1.00  0.00     0.156 HD
ENDBRANCH  12  15
ENDBRANCH   1  10
BRANCH   1  18
HETATM   18  N2  UNL     1      21.523   0.806  50.665  1.00  0.00     0.100 N 
HETATM   19  H3  UNL     1      20.719   0.660  50.049  1.00  0.00     0.314 HD
HETATM   20  H4  UNL     1      22.152  -0.004  50.816  1.00  0.00     0.314 HD
ENDBRANCH   1  18
BRANCH   4  21
HETATM   21  N3  UNL     1      25.508   1.254  51.469  1.00  0.00    -0.359 N 
HETATM   22  H8  UNL     1      25.504   1.241  50.423  1.00  0.00     0.166 HD
BRANCH  21  23
HETATM   23  C8  UNL     1      26.576   0.720  52.203  1.00  0.00     0.034 A 
HETATM   24  C9  UNL     1      26.757  -0.647  52.252  1.00  0.00     0.032 A 
HETATM   25  C10 UNL     1      27.834  -1.075  53.001  1.00  0.00     0.046 A 
HETATM   26  C11 UNL     1      28.702  -0.242  53.676  1.00  0.00     0.138 A 
HETATM   27  F1  UNL     1      29.733  -0.818  54.382  1.00  0.00    -0.204 F 
HETATM   28  C12 UNL     1      28.505   1.109  53.615  1.00  0.00     0.074 A 
HETATM   29 CL1  UNL     1      29.581   2.182  54.454  1.00  0.00    -0.081 Cl
HETATM   30  C13 UNL     1      27.433   1.570  52.872  1.00  0.00     0.056 A 
ENDBRANCH  21  23
ENDBRANCH   4  21
TORSDOF 5
ENDMDL
MODEL 2
REMARK VINA RESULT:      -8.2      4.381      7.395
REMARK  5 active torsions:
REMARK  status: ('A' for Active; 'I' for Inactive)
REMARK    1  A    between atoms: N1_1  and  C1_2 
REMARK    2  A    between atoms: C3_4  and  C4_5 
REMARK    3  A    between atoms: C4_5  and  N2_6 
REMARK    4  A    between atoms: C7_9  and  N3_10 
REMARK    5  A    between atoms: N3_10  and  C8_11 
ROOT
HETATM    1  C4  UNL     1      25.824   5.642  49.265  1.00  0.00     0.246 C 
HETATM    2  C5  UNL     1      26.485   4.298  49.223  1.00  0.00     0.084 C 
HETATM    3  C6  UNL     1      26.363   3.581  50.541  1.00  0.00     0.002 C 
HETATM    4  C7  UNL     1      25.314   3.086  51.183  1.00  0.00     0.015 C 
HETATM    5  C14 UNL     1      23.841   3.032  50.873  1.00  0.00     0.131 C 
HETATM    6  S1  UNL     1      23.602   3.095  49.081  1.00  0.00    -0.156 SA
HETATM    7  C15 UNL     1      23.230   4.808  48.628  1.00  0.00     0.155 C 
HETATM    8  C16 UNL     1      24.473   5.643  48.605  1.00  0.00     0.179 C 
HETATM    9  O1  UNL     1      24.296   6.578  47.811  1.00  0.00    -0.294 OA
ENDROOT
BRANCH   1  10
HETATM   10  C3  UNL     1      26.657   6.625  48.523  1.00  0.00     0.001 C 
HETATM   11  C2  UNL     1      26.543   7.870  48.121  1.00  0.00     0.013 C 
HETATM   12  C1  UNL     1      27.389   8.212  47.186  1.00  0.00     0.037 C 
HETATM   13  C18 UNL     1      28.467   7.228  47.214  1.00  0.00     0.030 C 
HETATM   14  C17 UNL     1      28.005   6.269  48.033  1.00  0.00     0.013 C 
BRANCH  12  15
HETATM   15  N1  UNL     1      27.392   9.301  46.249  1.00  0.00    -0.398 N 
HETATM   16  H1  UNL     1      26.495   9.832  46.316  1.00  0.00     0.156 HD
HETATM   17  H2  UNL     1      28.270   9.390  45.662  1.00  0.00     0.156 HD
ENDBRANCH  12  15
ENDBRANCH   1  10
BRANCH   1  18
HETATM   18  N2  UNL     1      25.714   6.185  50.619  1.00  0.00     0.100 N 
HETATM   19  H3  UNL     1      26.181   7.092  50.689  1.00  0.00     0.314 HD
HETATM   20  H4  UNL     1      26.000   5.456  51.299  1.00  0.00     0.314 HD
ENDBRANCH   1  18
BRANCH   4  21
HETATM   21  N3  UNL     1      25.753   2.504  52.403  1.00  0.00    -0.359 N 
HETATM   22  H8  UNL     1      25.121   2.926  53.121  1.00  0.00     0.166 HD
BRANCH  21  23
HETATM   23  C8  UNL     1      26.750   1.585  52.755  1.00  0.00     0.034 A 
HETATM   24  C9  UNL     1      27.922   2.034  53.329  1.00  0.00     0.032 A 
HETATM   25  C10 UNL     1      28.842   1.053  53.639  1.00  0.00     0.046 A 
HETATM   26  C11 UNL     1      28.660  -0.296  53.413  1.00  0.00     0.138 A 
HETATM   27  F1  UNL     1      29.670  -1.155  53.777  1.00  0.00    -0.204 F 
HETATM   28  C12 UNL     1      27.491  -0.719  52.843  1.00  0.00     0.074 A 
HETATM   29 CL1  UNL     1      27.233  -2.410  52.547  1.00  0.00    -0.081 Cl
HETATM   30  C13 UNL     1      26.549   0.240  52.520  1.00  0.00     0.056 A 
ENDBRANCH  21  23
ENDBRANCH   4  21
TORSDOF 5
ENDMDL
MODEL 3
REMARK VINA RESULT:      -8.2      2.689      4.959
REMARK  5 active torsions:
REMARK  status: ('A' for Active; 'I' for Inactive)
REMARK    1  A    between atoms: N1_1  and  C1_2 
REMARK    2  A    between atoms: C3_4  and  C4_5 
REMARK    3  A    between atoms: C4_5  and  N2_6 
REMARK    4  A    between atoms: C7_9  and  N3_10 
REMARK    5  A    between atoms: N3_10  and  C8_11 
ROOT
HETATM    1  C4  UNL     1      23.544   3.685  51.737  1.00  0.00     0.246 C 
HETATM    2  C5  UNL     1      23.952   2.433  51.021  1.00  0.00     0.084 C 
HETATM    3  C6  UNL     1      24.447   1.385  51.982  1.00  0.00     0.002 C 
HETATM    4  C7  UNL     1      23.829   0.688  52.925  1.00  0.00     0.015 C 
HETATM    5  C14 UNL     1      22.406   0.651  53.420  1.00  0.00     0.131 C 
HETATM    6  S1  UNL     1      21.295   1.179  52.094  1.00  0.00    -0.156 SA
HETATM    7  C15 UNL     1      20.918   2.932  52.349  1.00  0.00     0.155 C 
HETATM    8  C16 UNL     1      22.053   3.800  51.897  1.00  0.00     0.179 C 
HETATM    9  O1  UNL     1      21.590   4.904  51.576  1.00  0.00    -0.294 OA
ENDROOT
BRANCH   1  10
HETATM   10  C3  UNL     1      23.976   4.868  50.948  1.00  0.00     0.001 C 
HETATM   11  C2  UNL     1      24.257   6.128  51.183  1.00  0.00     0.013 C 
HETATM   12  C1  UNL     1      24.248   6.889  50.120  1.00  0.00     0.037 C 
HETATM   13  C18 UNL     1      24.363   6.000  48.967  1.00  0.00     0.030 C 
HETATM   14  C17 UNL     1      24.195   4.774  49.489  1.00  0.00     0.013 C 
BRANCH  12  15
HETATM   15  N1  UNL     1      24.151   8.314  49.963  1.00  0.00    -0.398 N 
HETATM   16  H1  UNL     1      24.889   8.786  50.530  1.00  0.00     0.156 HD
HETATM   17  H2  UNL     1      23.375   8.646  49.322  1.00  0.00     0.156 HD
ENDBRANCH  12  15
ENDBRANCH   1  10
BRANCH   1  18
HETATM   18  N2  UNL     1      24.194   3.840  53.038  1.00  0.00     0.100 N 
HETATM   19  H3  UNL     1      24.784   4.675  53.055  1.00  0.00     0.314 HD
HETATM   20  H4  UNL     1      24.644   2.942  53.300  1.00  0.00     0.314 HD
ENDBRANCH   1  18
BRANCH   4  21
HETATM   21  N3  UNL     1      24.766  -0.178  53.548  1.00  0.00    -0.359 N 
HETATM   22  H8  UNL     1      24.174  -0.796  54.148  1.00  0.00     0.166 HD
BRANCH  21  23
HETATM   23  C8  UNL     1      26.160  -0.325  53.498  1.00  0.00     0.034 A 
HETATM   24  C9  UNL     1      26.709  -1.453  52.924  1.00  0.00     0.032 A 
HETATM   25  C10 UNL     1      28.088  -1.505  52.924  1.00  0.00     0.046 A 
HETATM   26  C11 UNL     1      28.911  -0.529  53.446  1.00  0.00     0.138 A 
HETATM   27  F1  UNL     1      30.271  -0.722  53.372  1.00  0.00    -0.204 F 
HETATM   28  C12 UNL     1      28.346   0.581  54.010  1.00  0.00     0.074 A 
HETATM   29 CL1  UNL     1      29.357   1.826  54.674  1.00  0.00    -0.081 Cl
HETATM   30  C13 UNL     1      26.966   0.663  54.026  1.00  0.00     0.056 A 
ENDBRANCH  21  23
ENDBRANCH   4  21
TORSDOF 5
ENDMDL
MODEL 4
REMARK VINA RESULT:      -8.2      4.299      7.654
REMARK  5 active torsions:
REMARK  status: ('A' for Active; 'I' for Inactive)
REMARK    1  A    between atoms: N1_1  and  C1_2 
REMARK    2  A    between atoms: C3_4  and  C4_5 
REMARK    3  A    between atoms: C4_5  and  N2_6 
REMARK    4  A    between atoms: C7_9  and  N3_10 
REMARK    5  A    between atoms: N3_10  and  C8_11 
ROOT
HETATM    1  C4  UNL     1      25.632   5.365  49.638  1.00  0.00     0.246 C 
HETATM    2  C5  UNL     1      24.517   4.827  48.794  1.00  0.00     0.084 C 
HETATM    3  C6  UNL     1      23.930   3.574  49.389  1.00  0.00     0.002 C 
HETATM    4  C7  UNL     1      23.240   3.363  50.501  1.00  0.00     0.015 C 
HETATM    5  C14 UNL     1      22.763   4.265  51.610  1.00  0.00     0.131 C 
HETATM    6  S1  UNL     1      22.578   5.949  50.976  1.00  0.00    -0.156 SA
HETATM    7  C15 UNL     1      24.074   6.874  51.407  1.00  0.00     0.155 C 
HETATM    8  C16 UNL     1      25.204   6.531  50.486  1.00  0.00     0.179 C 
HETATM    9  O1  UNL     1      25.973   7.503  50.439  1.00  0.00    -0.294 OA
ENDROOT
BRANCH   1  10
HETATM   10  C3  UNL     1      26.721   5.862  48.757  1.00  0.00     0.001 C 
HETATM   11  C2  UNL     1      27.967   5.540  48.497  1.00  0.00     0.013 C 
HETATM   12  C1  UNL     1      28.655   6.484  47.909  1.00  0.00     0.037 C 
HETATM   13  C18 UNL     1      27.686   7.417  47.340  1.00  0.00     0.030 C 
HETATM   14  C17 UNL     1      26.515   7.023  47.866  1.00  0.00     0.013 C 
BRANCH  12  15
HETATM   15  N1  UNL     1      30.070   6.692  47.770  1.00  0.00    -0.398 N 
HETATM   16  H1  UNL     1      30.324   7.648  48.103  1.00  0.00     0.156 HD
HETATM   17  H2  UNL     1      30.609   5.874  47.366  1.00  0.00     0.156 HD
ENDBRANCH  12  15
ENDBRANCH   1  10
BRANCH   1  18
HETATM   18  N2  UNL     1      26.259   4.346  50.478  1.00  0.00     0.100 N 
HETATM   19  H3  UNL     1      27.255   4.254  50.261  1.00  0.00     0.314 HD
HETATM   20  H4  UNL     1      25.689   3.480  50.442  1.00  0.00     0.314 HD
ENDBRANCH   1  18
BRANCH   4  21
HETATM   21  N3  UNL     1      22.923   1.982  50.592  1.00  0.00    -0.359 N 
HETATM   22  H8  UNL     1      22.772   1.695  49.598  1.00  0.00     0.166 HD
BRANCH  21  23
HETATM   23  C8  UNL     1      22.798   1.066  51.645  1.00  0.00     0.034 A 
HETATM   24  C9  UNL     1      21.575   0.479  51.900  1.00  0.00     0.032 A 
HETATM   25  C10 UNL     1      21.554  -0.408  52.957  1.00  0.00     0.046 A 
HETATM   26  C11 UNL     1      22.645  -0.724  53.740  1.00  0.00     0.138 A 
HETATM   27  F1  UNL     1      22.467  -1.629  54.761  1.00  0.00    -0.204 F 
HETATM   28  C12 UNL     1      23.847  -0.131  53.471  1.00  0.00     0.074 A 
HETATM   29 CL1  UNL     1      25.237  -0.510  54.439  1.00  0.00    -0.081 Cl
HETATM   30  C13 UNL     1      23.901   0.763  52.417  1.00  0.00     0.056 A 
ENDBRANCH  21  23
ENDBRANCH   4  21
TORSDOF 5
ENDMDL
MODEL 5
REMARK VINA RESULT:      -8.1      4.325      7.809
REMARK  5 active torsions:
REMARK  status: ('A' for Active; 'I' for Inactive)
REMARK    1  A    between atoms: N1_1  and  C1_2 
REMARK    2  A    between atoms: C3_4  and  C4_5 
REMARK    3  A    between atoms: C4_5  and  N2_6 
REMARK    4  A    between atoms: C7_9  and  N3_10 
REMARK    5  A    between atoms: N3_10  and  C8_11 
ROOT
HETATM    1  C4  UNL     1      25.767   1.522  52.574  1.00  0.00     0.246 C 
HETATM    2  C5  UNL     1      24.749   0.632  51.928  1.00  0.00     0.084 C 
HETATM    3  C6  UNL     1      23.348   1.023  52.317  1.00  0.00     0.002 C 
HETATM    4  C7  UNL     1      22.626   2.103  52.052  1.00  0.00     0.015 C 
HETATM    5  C14 UNL     1      22.896   3.362  51.269  1.00  0.00     0.131 C 
HETATM    6  S1  UNL     1      24.150   3.027  50.009  1.00  0.00    -0.156 SA
HETATM    7  C15 UNL     1      25.751   3.565  50.661  1.00  0.00     0.155 C 
HETATM    8  C16 UNL     1      26.301   2.567  51.634  1.00  0.00     0.179 C 
HETATM    9  O1  UNL     1      27.537   2.664  51.629  1.00  0.00    -0.294 OA
ENDROOT
BRANCH   1  10
HETATM   10  C3  UNL     1      26.933   0.707  53.005  1.00  0.00     0.001 C 
HETATM   11  C2  UNL     1      27.613  -0.315  52.540  1.00  0.00     0.013 C 
HETATM   12  C1  UNL     1      28.343  -0.927  53.435  1.00  0.00     0.037 C 
HETATM   13  C18 UNL     1      28.500  -0.001  54.553  1.00  0.00     0.030 C 
HETATM   14  C17 UNL     1      27.635   0.988  54.275  1.00  0.00     0.013 C 
BRANCH  12  15
HETATM   15  N1  UNL     1      28.937  -2.235  53.454  1.00  0.00    -0.398 N 
HETATM   16  H1  UNL     1      28.194  -2.965  53.388  1.00  0.00     0.156 HD
HETATM   17  H2  UNL     1      29.994  -2.250  53.530  1.00  0.00     0.156 HD
ENDBRANCH  12  15
ENDBRANCH   1  10
BRANCH   1  18
HETATM   18  N2  UNL     1      25.278   2.160  53.796  1.00  0.00     0.100 N 
HETATM   19  H3  UNL     1      24.719   2.989  53.578  1.00  0.00     0.314 HD
HETATM   20  H4  UNL     1      26.073   2.290  54.451  1.00  0.00     0.314 HD
ENDBRANCH   1  18
BRANCH   4  21
HETATM   21  N3  UNL     1      21.352   1.968  52.665  1.00  0.00    -0.359 N 
HETATM   22  H8  UNL     1      21.263   2.834  53.246  1.00  0.00     0.166 HD
BRANCH  21  23
HETATM   23  C8  UNL     1      20.335   1.005  52.627  1.00  0.00     0.034 A 
HETATM   24  C9  UNL     1      20.199   0.111  53.670  1.00  0.00     0.032 A 
HETATM   25  C10 UNL     1      19.169  -0.798  53.539  1.00  0.00     0.046 A 
HETATM   26  C11 UNL     1      18.306  -0.859  52.464  1.00  0.00     0.138 A 
HETATM   27  F1  UNL     1      17.326  -1.824  52.476  1.00  0.00    -0.204 F 
HETATM   28  C12 UNL     1      18.459   0.035  51.441  1.00  0.00     0.074 A 
HETATM   29 CL1  UNL     1      17.388  -0.018  50.077  1.00  0.00    -0.081 Cl
HETATM   30  C13 UNL     1      19.482   0.960  51.543  1.00  0.00     0.056 A 
ENDBRANCH  21  23
ENDBRANCH   4  21
TORSDOF 5
ENDMDL
MODEL 6
REMARK VINA RESULT:      -8.0      3.699      6.776
REMARK  5 active torsions:
REMARK  status: ('A' for Active; 'I' for Inactive)
REMARK    1  A    between atoms: N1_1  and  C1_2 
REMARK    2  A    between atoms: C3_4  and  C4_5 
REMARK    3  A    between atoms: C4_5  and  N2_6 
REMARK    4  A    between atoms: C7_9  and  N3_10 
REMARK    5  A    between atoms: N3_10  and  C8_11 
ROOT
HETATM    1  C4  UNL     1      25.221   5.261  49.731  1.00  0.00     0.246 C 
HETATM    2  C5  UNL     1      25.951   3.973  49.501  1.00  0.00     0.084 C 
HETATM    3  C6  UNL     1      25.737   3.006  50.636  1.00  0.00     0.002 C 
HETATM    4  C7  UNL     1      24.657   2.362  51.055  1.00  0.00     0.015 C 
HETATM    5  C14 UNL     1      23.226   2.324  50.584  1.00  0.00     0.131 C 
HETATM    6  S1  UNL     1      23.163   2.730  48.823  1.00  0.00    -0.156 SA
HETATM    7  C15 UNL     1      22.748   4.486  48.671  1.00  0.00     0.155 C 
HETATM    8  C16 UNL     1      23.943   5.349  48.942  1.00  0.00     0.179 C 
HETATM    9  O1  UNL     1      23.796   6.416  48.329  1.00  0.00    -0.294 OA
ENDROOT
BRANCH   1  10
HETATM   10  C3  UNL     1      26.070   6.396  49.285  1.00  0.00     0.001 C 
HETATM   11  C2  UNL     1      26.903   6.642  48.301  1.00  0.00     0.013 C 
HETATM   12  C1  UNL     1      27.698   7.658  48.511  1.00  0.00     0.037 C 
HETATM   13  C18 UNL     1      27.094   8.450  49.579  1.00  0.00     0.030 C 
HETATM   14  C17 UNL     1      26.105   7.667  50.039  1.00  0.00     0.013 C 
BRANCH  12  15
HETATM   15  N1  UNL     1      28.938   8.047  47.898  1.00  0.00    -0.398 N 
HETATM   16  H1  UNL     1      28.798   8.904  47.320  1.00  0.00     0.156 HD
HETATM   17  H2  UNL     1      29.767   7.425  48.122  1.00  0.00     0.156 HD
ENDBRANCH  12  15
ENDBRANCH   1  10
BRANCH   1  18
HETATM   18  N2  UNL     1      24.949   5.522  51.144  1.00  0.00     0.100 N 
HETATM   19  H3  UNL     1      24.974   6.526  51.342  1.00  0.00     0.314 HD
HETATM   20  H4  UNL     1      25.558   4.914  51.723  1.00  0.00     0.314 HD
ENDBRANCH   1  18
BRANCH   4  21
HETATM   21  N3  UNL     1      25.003   1.565  52.179  1.00  0.00    -0.359 N 
HETATM   22  H8  UNL     1      24.110   1.498  52.720  1.00  0.00     0.166 HD
BRANCH  21  23
HETATM   23  C8  UNL     1      26.176   0.940  52.622  1.00  0.00     0.034 A 
HETATM   24  C9  UNL     1      26.366  -0.406  52.386  1.00  0.00     0.032 A 
HETATM   25  C10 UNL     1      27.551  -0.929  52.861  1.00  0.00     0.046 A 
HETATM   26  C11 UNL     1      28.515  -0.207  53.534  1.00  0.00     0.138 A 
HETATM   27  F1  UNL     1      29.648  -0.869  53.947  1.00  0.00    -0.204 F 
HETATM   28  C12 UNL     1      28.307   1.126  53.758  1.00  0.00     0.074 A 
HETATM   29 CL1  UNL     1      29.503   2.060  54.601  1.00  0.00    -0.081 Cl
HETATM   30  C13 UNL     1      27.129   1.680  53.293  1.00  0.00     0.056 A 
ENDBRANCH  21  23
ENDBRANCH   4  21
TORSDOF 5
ENDMDL
MODEL 7
REMARK VINA RESULT:      -8.0      2.022      2.509
REMARK  5 active torsions:
REMARK  status: ('A' for Active; 'I' for Inactive)
REMARK    1  A    between atoms: N1_1  and  C1_2 
REMARK    2  A    between atoms: C3_4  and  C4_5 
REMARK    3  A    between atoms: C4_5  and  N2_6 
REMARK    4  A    between atoms: C7_9  and  N3_10 
REMARK    5  A    between atoms: N3_10  and  C8_11 
ROOT
HETATM    1  C4  UNL     1      22.302   1.877  51.295  1.00  0.00     0.246 C 
HETATM    2  C5  UNL     1      22.698   2.952  52.260  1.00  0.00     0.084 C 
HETATM    3  C6  UNL     1      24.099   2.744  52.773  1.00  0.00     0.002 C 
HETATM    4  C7  UNL     1      25.278   2.799  52.170  1.00  0.00     0.015 C 
HETATM    5  C14 UNL     1      25.703   3.088  50.754  1.00  0.00     0.131 C 
HETATM    6  S1  UNL     1      24.453   4.118  49.949  1.00  0.00    -0.156 SA
HETATM    7  C15 UNL     1      23.375   3.031  48.982  1.00  0.00     0.155 C 
HETATM    8  C16 UNL     1      22.389   2.325  49.862  1.00  0.00     0.179 C 
HETATM    9  O1  UNL     1      21.387   2.058  49.183  1.00  0.00    -0.294 OA
ENDROOT
BRANCH   1  10
HETATM   10  C3  UNL     1      20.884   1.499  51.532  1.00  0.00     0.001 C 
HETATM   11  C2  UNL     1      20.176   0.394  51.552  1.00  0.00     0.013 C 
HETATM   12  C1  UNL     1      18.886   0.580  51.454  1.00  0.00     0.037 C 
HETATM   13  C18 UNL     1      18.635   1.976  51.800  1.00  0.00     0.030 C 
HETATM   14  C17 UNL     1      19.863   2.521  51.843  1.00  0.00     0.013 C 
BRANCH  12  15
HETATM   15  N1  UNL     1      17.815  -0.308  51.093  1.00  0.00    -0.398 N 
HETATM   16  H1  UNL     1      18.133  -0.966  50.348  1.00  0.00     0.156 HD
HETATM   17  H2  UNL     1      16.908  -0.159  51.621  1.00  0.00     0.156 HD
ENDBRANCH  12  15
ENDBRANCH   1  10
BRANCH   1  18
HETATM   18  N2  UNL     1      23.059   0.638  51.472  1.00  0.00     0.100 N 
HETATM   19  H3  UNL     1      23.153   0.136  50.585  1.00  0.00     0.314 HD
HETATM   20  H4  UNL     1      22.659   0.109  52.270  1.00  0.00     0.314 HD
ENDBRANCH   1  18
BRANCH   4  21
HETATM   21  N3  UNL     1      26.295   2.520  53.120  1.00  0.00    -0.359 N 
HETATM   22  H8  UNL     1      26.215   3.302  53.809  1.00  0.00     0.166 HD
BRANCH  21  23
HETATM   23  C8  UNL     1      27.255   1.509  53.270  1.00  0.00     0.034 A 
HETATM   24  C9  UNL     1      28.514   1.825  53.738  1.00  0.00     0.032 A 
HETATM   25  C10 UNL     1      29.388   0.763  53.850  1.00  0.00     0.046 A 
HETATM   26  C11 UNL     1      29.081  -0.544  53.529  1.00  0.00     0.138 A 
HETATM   27  F1  UNL     1      30.060  -1.496  53.694  1.00  0.00    -0.204 F 
HETATM   28  C12 UNL     1      27.829  -0.835  53.066  1.00  0.00     0.074 A 
HETATM   29 CL1  UNL     1      27.414  -2.469  52.655  1.00  0.00    -0.081 Cl
HETATM   30  C13 UNL     1      26.929   0.208  52.943  1.00  0.00     0.056 A 
ENDBRANCH  21  23
ENDBRANCH   4  21
TORSDOF 5
ENDMDL
MODEL 8
REMARK VINA RESULT:      -7.9      4.106      5.889
REMARK  5 active torsions:
REMARK  status: ('A' for Active; 'I' for Inactive)
REMARK    1  A    between atoms: N1_1  and  C1_2 
REMARK    2  A    between atoms: C3_4  and  C4_5 
REMARK    3  A    between atoms: C4_5  and  N2_6 
REMARK    4  A    between atoms: C7_9  and  N3_10 
REMARK    5  A    between atoms: N3_10  and  C8_11 
ROOT
HETATM    1  C4  UNL     1      23.747   1.802  52.213  1.00  0.00     0.246 C 
HETATM    2  C5  UNL     1      23.757   3.014  53.094  1.00  0.00     0.084 C 
HETATM    3  C6  UNL     1      24.171   4.246  52.333  1.00  0.00     0.002 C 
HETATM    4  C7  UNL     1      23.584   4.917  51.353  1.00  0.00     0.015 C 
HETATM    5  C14 UNL     1      22.287   4.738  50.607  1.00  0.00     0.131 C 
HETATM    6  S1  UNL     1      21.110   3.850  51.654  1.00  0.00    -0.156 SA
HETATM    7  C15 UNL     1      21.159   2.100  51.189  1.00  0.00     0.155 C 
HETATM    8  C16 UNL     1      22.361   1.421  51.770  1.00  0.00     0.179 C 
HETATM    9  O1  UNL     1      22.096   0.218  51.907  1.00  0.00    -0.294 OA
ENDROOT
BRANCH   1  10
HETATM   10  C3  UNL     1      24.282   0.639  52.968  1.00  0.00     0.001 C 
HETATM   11  C2  UNL     1      23.907  -0.100  53.986  1.00  0.00     0.013 C 
HETATM   12  C1  UNL     1      24.870  -0.793  54.532  1.00  0.00     0.037 C 
HETATM   13  C18 UNL     1      25.951  -0.855  53.551  1.00  0.00     0.030 C 
HETATM   14  C17 UNL     1      25.576   0.023  52.606  1.00  0.00     0.013 C 
BRANCH  12  15
HETATM   15  N1  UNL     1      24.986  -1.426  55.817  1.00  0.00    -0.398 N 
HETATM   16  H1  UNL     1      25.735  -0.961  56.377  1.00  0.00     0.156 HD
HETATM   17  H2  UNL     1      24.320  -2.233  55.985  1.00  0.00     0.156 HD
ENDBRANCH  12  15
ENDBRANCH   1  10
BRANCH   1  18
HETATM   18  N2  UNL     1      24.620   1.932  51.048  1.00  0.00     0.100 N 
HETATM   19  H3  UNL     1      24.157   1.588  50.203  1.00  0.00     0.314 HD
HETATM   20  H4  UNL     1      25.547   1.525  51.273  1.00  0.00     0.314 HD
ENDBRANCH   1  18
BRANCH   4  21
HETATM   21  N3  UNL     1      24.407   6.016  50.990  1.00  0.00    -0.359 N 
HETATM   22  H8  UNL     1      24.028   6.809  51.557  1.00  0.00     0.166 HD
BRANCH  21  23
HETATM   23  C8  UNL     1      25.492   6.192  50.120  1.00  0.00     0.034 A 
HETATM   24  C9  UNL     1      26.001   5.107  49.435  1.00  0.00     0.032 A 
HETATM   25  C10 UNL     1      27.069   5.381  48.604  1.00  0.00     0.046 A 
HETATM   26  C11 UNL     1      27.631   6.630  48.432  1.00  0.00     0.138 A 
HETATM   27  F1  UNL     1      28.694   6.746  47.568  1.00  0.00    -0.204 F 
HETATM   28  C12 UNL     1      27.111   7.690  49.121  1.00  0.00     0.074 A 
HETATM   29 CL1  UNL     1      27.797   9.272  48.924  1.00  0.00    -0.081 Cl
HETATM   30  C13 UNL     1      26.040   7.448  49.962  1.00  0.00     0.056 A 
ENDBRANCH  21  23
ENDBRANCH   4  21
TORSDOF 5
ENDMDL
MODEL 9
REMARK VINA RESULT:      -7.7      4.307      7.670
REMARK  5 active torsions:
REMARK  status: ('A' for Active; 'I' for Inactive)
REMARK    1  A    between atoms: N1_1  and  C1_2 
REMARK    2  A    between atoms: C3_4  and  C4_5 
REMARK    3  A    between atoms: C4_5  and  N2_6 
REMARK    4  A    between atoms: C7_9  and  N3_10 
REMARK    5  A    between atoms: N3_10  and  C8_11 
ROOT
HETATM    1  C4  UNL     1      23.532   1.719  52.264  1.00  0.00     0.246 C 
HETATM    2  C5  UNL     1      23.393   1.655  50.774  1.00  0.00     0.084 C 
HETATM    3  C6  UNL     1      21.959   1.450  50.361  1.00  0.00     0.002 C 
HETATM    4  C7  UNL     1      20.891   2.228  50.465  1.00  0.00     0.015 C 
HETATM    5  C14 UNL     1      20.666   3.609  51.023  1.00  0.00     0.131 C 
HETATM    6  S1  UNL     1      22.212   4.545  50.950  1.00  0.00    -0.156 SA
HETATM    7  C15 UNL     1      22.999   4.448  52.578  1.00  0.00     0.155 C 
HETATM    8  C16 UNL     1      23.677   3.127  52.772  1.00  0.00     0.179 C 
HETATM    9  O1  UNL     1      24.606   3.284  53.578  1.00  0.00    -0.294 OA
ENDROOT
BRANCH   1  10
HETATM   10  C3  UNL     1      24.762   0.993  52.676  1.00  0.00     0.001 C 
HETATM   11  C2  UNL     1      25.145   0.251  53.689  1.00  0.00     0.013 C 
HETATM   12  C1  UNL     1      26.440   0.119  53.800  1.00  0.00     0.037 C 
HETATM   13  C18 UNL     1      27.011   0.475  52.504  1.00  0.00     0.030 C 
HETATM   14  C17 UNL     1      25.976   1.006  51.833  1.00  0.00     0.013 C 
BRANCH  12  15
HETATM   15  N1  UNL     1      27.272  -0.283  54.901  1.00  0.00    -0.398 N 
HETATM   16  H1  UNL     1      27.188   0.405  55.682  1.00  0.00     0.156 HD
HETATM   17  H2  UNL     1      27.816  -1.181  54.752  1.00  0.00     0.156 HD
ENDBRANCH  12  15
ENDBRANCH   1  10
BRANCH   1  18
HETATM   18  N2  UNL     1      22.442   1.048  52.972  1.00  0.00     0.100 N 
HETATM   19  H3  UNL     1      22.219   1.533  53.845  1.00  0.00     0.314 HD
HETATM   20  H4  UNL     1      22.655   0.035  53.039  1.00  0.00     0.314 HD
ENDBRANCH   1  18
BRANCH   4  21
HETATM   21  N3  UNL     1      19.772   1.549  49.914  1.00  0.00    -0.359 N 
HETATM   22  H8  UNL     1      19.859   1.719  48.885  1.00  0.00     0.166 HD
BRANCH  21  23
HETATM   23  C8  UNL     1      18.717   0.793  50.444  1.00  0.00     0.034 A 
HETATM   24  C9  UNL     1      17.477   0.831  49.839  1.00  0.00     0.032 A 
HETATM   25  C10 UNL     1      16.505   0.054  50.435  1.00  0.00     0.046 A 
HETATM   26  C11 UNL     1      16.699  -0.725  51.557  1.00  0.00     0.138 A 
HETATM   27  F1  UNL     1      15.631  -1.446  52.036  1.00  0.00    -0.204 F 
HETATM   28  C12 UNL     1      17.935  -0.747  52.141  1.00  0.00     0.074 A 
HETATM   29 CL1  UNL     1      18.209  -1.717  53.554  1.00  0.00    -0.081 Cl
HETATM   30  C13 UNL     1      18.931   0.021  51.567  1.00  0.00     0.056 A 
ENDBRANCH  21  23
ENDBRANCH   4  21
TORSDOF 5
ENDMDL
