MODEL 1
REMARK VINA RESULT:      -6.9      0.000      0.000
REMARK  5 active torsions:
REMARK  status: ('A' for Active; 'I' for Inactive)
REMARK    1  A    between atoms: C2_2  and  C3_3 
REMARK    2  A    between atoms: N2_6  and  C5_7 
REMARK    3  A    between atoms: C6_9  and  O1_10 
REMARK    4  A    between atoms: C8_13  and  P1_14 
REMARK    5  A    between atoms: C8_13  and  C9_15 
ROOT
HETATM    1  C3  UNL     1      26.037   0.954  52.149  1.00  0.00     0.071 C 
HETATM    2  C4  UNL     1      25.206   1.907  51.790  1.00  0.00     0.051 C 
HETATM    3  N1  UNL     1      25.772   3.194  52.206  1.00  0.00    -0.299 N 
HETATM    4  N2  UNL     1      25.308   3.633  50.939  1.00  0.00    -0.244 N 
HETATM    5  C8  UNL     1      24.139   2.862  51.303  1.00  0.00     0.140 C 
HETATM    6  H5  UNL     1      26.289   3.788  52.942  1.00  0.00     0.186 HD
ENDROOT
BRANCH   5   7
HETATM    7  P1  UNL     1      23.288   3.754  52.677  1.00  0.00    -0.097 P 
HETATM    8  H8  UNL     1      22.834   5.034  52.165  1.00  0.00     0.057 HD
HETATM    9  H9  UNL     1      22.222   2.980  53.236  1.00  0.00     0.057 HD
ENDBRANCH   5   7
BRANCH   5  10
HETATM   10  C9  UNL     1      23.347   2.443  50.174  1.00  0.00    -0.012 A 
HETATM   11  C10 UNL     1      23.319   2.851  48.856  1.00  0.00     0.011 A 
HETATM   12  C11 UNL     1      22.496   2.352  47.894  1.00  0.00     0.001 A 
HETATM   13  C12 UNL     1      21.604   1.368  48.198  1.00  0.00     0.001 A 
HETATM   14  C13 UNL     1      21.589   0.922  49.503  1.00  0.00     0.007 A 
HETATM   15  C14 UNL     1      22.439   1.438  50.492  1.00  0.00    -0.052 A 
HETATM   16  C15 UNL     1      22.289   0.841  51.842  1.00  0.00     0.049 C 
ENDBRANCH   5  10
BRANCH   4  17
HETATM   17  C5  UNL     1      26.039   4.490  49.982  1.00  0.00     0.191 A 
HETATM   18  N3  UNL     1      27.260   4.201  49.468  1.00  0.00    -0.198 NA
HETATM   19  C6  UNL     1      27.677   5.149  48.621  1.00  0.00     0.171 A 
HETATM   20  C7  UNL     1      26.954   6.358  48.259  1.00  0.00     0.111 A 
HETATM   21  S1  UNL     1      25.449   6.145  49.255  1.00  0.00    -0.058 SA
BRANCH  19  22
HETATM   22  O1  UNL     1      28.950   4.775  48.133  1.00  0.00    -0.344 OA
HETATM   23  H6  UNL     1      29.566   5.464  47.675  1.00  0.00     0.219 HD
ENDBRANCH  19  22
ENDBRANCH   4  17
BRANCH   1  24
HETATM   24  C2  UNL     1      26.153  -0.481  52.084  1.00  0.00    -0.025 C 
HETATM   25  C1  UNL     1      25.494  -0.792  53.220  1.00  0.00     0.007 C 
ENDBRANCH   1  24
TORSDOF 5
ENDMDL
MODEL 2
REMARK VINA RESULT:      -6.8      2.739      5.142
REMARK  5 active torsions:
REMARK  status: ('A' for Active; 'I' for Inactive)
REMARK    1  A    between atoms: C2_2  and  C3_3 
REMARK    2  A    between atoms: N2_6  and  C5_7 
REMARK    3  A    between atoms: C6_9  and  O1_10 
REMARK    4  A    between atoms: C8_13  and  P1_14 
REMARK    5  A    between atoms: C8_13  and  C9_15 
ROOT
HETATM    1  C3  UNL     1      22.409   1.549  50.107  1.00  0.00     0.071 C 
HETATM    2  C4  UNL     1      23.232   2.341  50.756  1.00  0.00     0.051 C 
HETATM    3  N1  UNL     1      23.321   1.878  52.145  1.00  0.00    -0.299 N 
HETATM    4  N2  UNL     1      24.703   2.160  51.988  1.00  0.00    -0.244 N 
HETATM    5  C8  UNL     1      24.201   3.349  51.336  1.00  0.00     0.140 C 
HETATM    6  H5  UNL     1      22.840   1.493  53.029  1.00  0.00     0.186 HD
ENDROOT
BRANCH   5   7
HETATM    7  P1  UNL     1      23.440   4.419  52.633  1.00  0.00    -0.097 P 
HETATM    8  H8  UNL     1      24.226   4.281  53.845  1.00  0.00     0.057 HD
HETATM    9  H9  UNL     1      23.328   5.780  52.205  1.00  0.00     0.057 HD
ENDBRANCH   5   7
BRANCH   5  10
HETATM   10  C9  UNL     1      25.143   3.953  50.427  1.00  0.00    -0.012 A 
HETATM   11  C10 UNL     1      26.426   3.608  50.055  1.00  0.00     0.011 A 
HETATM   12  C11 UNL     1      27.202   4.294  49.173  1.00  0.00     0.001 A 
HETATM   13  C12 UNL     1      26.728   5.423  48.577  1.00  0.00     0.001 A 
HETATM   14  C13 UNL     1      25.449   5.814  48.913  1.00  0.00     0.007 A 
HETATM   15  C14 UNL     1      24.651   5.104  49.822  1.00  0.00    -0.052 A 
HETATM   16  C15 UNL     1      23.300   5.667  50.066  1.00  0.00     0.049 C 
ENDBRANCH   5  10
BRANCH   4  17
HETATM   17  C5  UNL     1      25.830   1.316  52.440  1.00  0.00     0.191 A 
HETATM   18  N3  UNL     1      25.814  -0.039  52.468  1.00  0.00    -0.198 NA
HETATM   19  C6  UNL     1      26.972  -0.538  52.913  1.00  0.00     0.171 A 
HETATM   20  C7  UNL     1      28.136   0.228  53.330  1.00  0.00     0.111 A 
HETATM   21  S1  UNL     1      27.525   1.918  53.059  1.00  0.00    -0.058 SA
BRANCH  19  22
HETATM   22  O1  UNL     1      26.874  -1.949  52.912  1.00  0.00    -0.344 OA
HETATM   23  H6  UNL     1      27.695  -2.538  53.118  1.00  0.00     0.219 HD
ENDBRANCH  19  22
ENDBRANCH   4  17
BRANCH   1  24
HETATM   24  C2  UNL     1      21.858   1.387  48.786  1.00  0.00    -0.025 C 
HETATM   25  C1  UNL     1      22.538   2.369  48.158  1.00  0.00     0.007 C 
ENDBRANCH   1  24
TORSDOF 5
ENDMDL
MODEL 3
REMARK VINA RESULT:      -6.4      6.607     10.118
REMARK  5 active torsions:
REMARK  status: ('A' for Active; 'I' for Inactive)
REMARK    1  A    between atoms: C2_2  and  C3_3 
REMARK    2  A    between atoms: N2_6  and  C5_7 
REMARK    3  A    between atoms: C6_9  and  O1_10 
REMARK    4  A    between atoms: C8_13  and  P1_14 
REMARK    5  A    between atoms: C8_13  and  C9_15 
ROOT
HETATM    1  C3  UNL     1      34.662   5.769  48.867  1.00  0.00     0.071 C 
HETATM    2  C4  UNL     1      33.847   5.170  48.029  1.00  0.00     0.051 C 
HETATM    3  N1  UNL     1      32.752   4.569  48.798  1.00  0.00    -0.299 N 
HETATM    4  N2  UNL     1      31.946   5.053  47.735  1.00  0.00    -0.244 N 
HETATM    5  C8  UNL     1      33.028   4.541  46.923  1.00  0.00     0.140 C 
HETATM    6  H5  UNL     1      32.414   4.027  49.666  1.00  0.00     0.186 HD
ENDROOT
BRANCH   5   7
HETATM    7  P1  UNL     1      32.976   2.699  47.021  1.00  0.00    -0.097 P 
HETATM    8  H8  UNL     1      32.350   2.335  48.278  1.00  0.00     0.057 HD
HETATM    9  H9  UNL     1      32.312   2.122  45.892  1.00  0.00     0.057 HD
ENDBRANCH   5   7
BRANCH   5  10
HETATM   10  C9  UNL     1      33.110   5.148  45.618  1.00  0.00    -0.012 A 
HETATM   11  C10 UNL     1      32.299   6.051  44.960  1.00  0.00     0.011 A 
HETATM   12  C11 UNL     1      32.512   6.533  43.707  1.00  0.00     0.001 A 
HETATM   13  C12 UNL     1      33.598   6.128  42.992  1.00  0.00     0.001 A 
HETATM   14  C13 UNL     1      34.443   5.225  43.601  1.00  0.00     0.007 A 
HETATM   15  C14 UNL     1      34.221   4.729  44.894  1.00  0.00    -0.052 A 
HETATM   16  C15 UNL     1      35.232   3.765  45.395  1.00  0.00     0.049 C 
ENDBRANCH   5  10
BRANCH   4  17
HETATM   17  C5  UNL     1      30.639   5.733  47.861  1.00  0.00     0.191 A 
HETATM   18  N3  UNL     1      29.471   5.109  48.149  1.00  0.00    -0.198 NA
HETATM   19  C6  UNL     1      28.451   5.971  48.210  1.00  0.00     0.171 A 
HETATM   20  C7  UNL     1      28.526   7.409  48.002  1.00  0.00     0.111 A 
HETATM   21  S1  UNL     1      30.302   7.596  47.669  1.00  0.00    -0.058 SA
BRANCH  19  22
HETATM   22  O1  UNL     1      27.276   5.244  48.512  1.00  0.00    -0.344 OA
HETATM   23  H6  UNL     1      26.377   5.727  48.661  1.00  0.00     0.219 HD
ENDBRANCH  19  22
ENDBRANCH   4  17
BRANCH   1  24
HETATM   24  C2  UNL     1      35.885   6.530  48.851  1.00  0.00    -0.025 C 
HETATM   25  C1  UNL     1      35.423   7.648  48.253  1.00  0.00     0.007 C 
ENDBRANCH   1  24
TORSDOF 5
ENDMDL
MODEL 4
REMARK VINA RESULT:      -6.3      1.876      2.061
REMARK  5 active torsions:
REMARK  status: ('A' for Active; 'I' for Inactive)
REMARK    1  A    between atoms: C2_2  and  C3_3 
REMARK    2  A    between atoms: N2_6  and  C5_7 
REMARK    3  A    between atoms: C6_9  and  O1_10 
REMARK    4  A    between atoms: C8_13  and  P1_14 
REMARK    5  A    between atoms: C8_13  and  C9_15 
ROOT
HETATM    1  C3  UNL     1      24.903   1.950  52.859  1.00  0.00     0.071 C 
HETATM    2  C4  UNL     1      24.055   2.718  52.213  1.00  0.00     0.051 C 
HETATM    3  N1  UNL     1      24.187   4.085  52.726  1.00  0.00    -0.299 N 
HETATM    4  N2  UNL     1      24.069   4.444  51.358  1.00  0.00    -0.244 N 
HETATM    5  C8  UNL     1      23.026   3.442  51.373  1.00  0.00     0.140 C 
HETATM    6  H5  UNL     1      24.312   4.758  53.559  1.00  0.00     0.186 HD
ENDROOT
BRANCH   5   7
HETATM    7  P1  UNL     1      21.622   4.110  52.367  1.00  0.00    -0.097 P 
HETATM    8  H8  UNL     1      20.736   3.007  52.688  1.00  0.00     0.057 HD
HETATM    9  H9  UNL     1      22.076   4.804  53.533  1.00  0.00     0.057 HD
ENDBRANCH   5   7
BRANCH   5  10
HETATM   10  C9  UNL     1      22.734   2.891  50.073  1.00  0.00    -0.012 A 
HETATM   11  C10 UNL     1      22.998   3.337  48.794  1.00  0.00     0.011 A 
HETATM   12  C11 UNL     1      22.647   2.695  47.647  1.00  0.00     0.001 A 
HETATM   13  C12 UNL     1      21.978   1.511  47.703  1.00  0.00     0.001 A 
HETATM   14  C13 UNL     1      21.687   1.018  48.957  1.00  0.00     0.007 A 
HETATM   15  C14 UNL     1      22.050   1.682  50.138  1.00  0.00    -0.052 A 
HETATM   16  C15 UNL     1      21.658   1.008  51.400  1.00  0.00     0.049 C 
ENDBRANCH   5  10
BRANCH   4  17
HETATM   17  C5  UNL     1      24.876   5.453  50.640  1.00  0.00     0.191 A 
HETATM   18  N3  UNL     1      24.847   6.785  50.893  1.00  0.00    -0.198 NA
HETATM   19  C6  UNL     1      25.687   7.458  50.099  1.00  0.00     0.171 A 
HETATM   20  C7  UNL     1      26.547   6.886  49.075  1.00  0.00     0.111 A 
HETATM   21  S1  UNL     1      26.123   5.127  49.241  1.00  0.00    -0.058 SA
BRANCH  19  22
HETATM   22  O1  UNL     1      25.596   8.831  50.425  1.00  0.00    -0.344 OA
HETATM   23  H6  UNL     1      25.124   9.142  51.288  1.00  0.00     0.219 HD
ENDBRANCH  19  22
ENDBRANCH   4  17
BRANCH   1  24
HETATM   24  C2  UNL     1      25.321   0.571  52.900  1.00  0.00    -0.025 C 
HETATM   25  C1  UNL     1      26.268   0.615  51.939  1.00  0.00     0.007 C 
ENDBRANCH   1  24
TORSDOF 5
ENDMDL
MODEL 5
REMARK VINA RESULT:      -6.1      6.737      9.104
REMARK  5 active torsions:
REMARK  status: ('A' for Active; 'I' for Inactive)
REMARK    1  A    between atoms: C2_2  and  C3_3 
REMARK    2  A    between atoms: N2_6  and  C5_7 
REMARK    3  A    between atoms: C6_9  and  O1_10 
REMARK    4  A    between atoms: C8_13  and  P1_14 
REMARK    5  A    between atoms: C8_13  and  C9_15 
ROOT
HETATM    1  C3  UNL     1      31.537   9.926  48.305  1.00  0.00     0.071 C 
HETATM    2  C4  UNL     1      31.205   8.912  47.538  1.00  0.00     0.051 C 
HETATM    3  N1  UNL     1      32.362   8.564  46.707  1.00  0.00    -0.299 N 
HETATM    4  N2  UNL     1      31.974   7.230  46.997  1.00  0.00    -0.244 N 
HETATM    5  C8  UNL     1      30.650   7.753  46.741  1.00  0.00     0.140 C 
HETATM    6  H5  UNL     1      33.200   8.872  46.103  1.00  0.00     0.186 HD
ENDROOT
BRANCH   5   7
HETATM    7  P1  UNL     1      30.530   8.110  44.934  1.00  0.00    -0.097 P 
HETATM    8  H8  UNL     1      31.342   9.280  44.654  1.00  0.00     0.057 HD
HETATM    9  H9  UNL     1      30.906   6.980  44.141  1.00  0.00     0.057 HD
ENDBRANCH   5   7
BRANCH   5  10
HETATM   10  C9  UNL     1      29.595   6.982  47.350  1.00  0.00    -0.012 A 
HETATM   11  C10 UNL     1      29.583   5.747  47.967  1.00  0.00     0.011 A 
HETATM   12  C11 UNL     1      28.487   5.141  48.497  1.00  0.00     0.001 A 
HETATM   13  C12 UNL     1      27.272   5.756  48.445  1.00  0.00     0.001 A 
HETATM   14  C13 UNL     1      27.226   6.993  47.839  1.00  0.00     0.007 A 
HETATM   15  C14 UNL     1      28.358   7.616  47.294  1.00  0.00    -0.052 A 
HETATM   16  C15 UNL     1      28.126   8.946  46.681  1.00  0.00     0.049 C 
ENDBRANCH   5  10
BRANCH   4  17
HETATM   17  C5  UNL     1      32.869   6.113  47.366  1.00  0.00     0.191 A 
HETATM   18  N3  UNL     1      33.782   6.157  48.367  1.00  0.00    -0.198 NA
HETATM   19  C6  UNL     1      34.446   5.002  48.483  1.00  0.00     0.171 A 
HETATM   20  C7  UNL     1      34.254   3.813  47.665  1.00  0.00     0.111 A 
HETATM   21  S1  UNL     1      32.937   4.393  46.556  1.00  0.00    -0.058 SA
BRANCH  19  22
HETATM   22  O1  UNL     1      35.374   5.130  49.541  1.00  0.00    -0.344 OA
HETATM   23  H6  UNL     1      35.066   5.408  50.486  1.00  0.00     0.219 HD
ENDBRANCH  19  22
ENDBRANCH   4  17
BRANCH   1  24
HETATM   24  C2  UNL     1      30.957  10.767  49.322  1.00  0.00    -0.025 C 
HETATM   25  C1  UNL     1      29.897   9.997  49.644  1.00  0.00     0.007 C 
ENDBRANCH   1  24
TORSDOF 5
ENDMDL
MODEL 6
REMARK VINA RESULT:      -6.0      5.318      6.946
REMARK  5 active torsions:
REMARK  status: ('A' for Active; 'I' for Inactive)
REMARK    1  A    between atoms: C2_2  and  C3_3 
REMARK    2  A    between atoms: N2_6  and  C5_7 
REMARK    3  A    between atoms: C6_9  and  O1_10 
REMARK    4  A    between atoms: C8_13  and  P1_14 
REMARK    5  A    between atoms: C8_13  and  C9_15 
ROOT
HETATM    1  C3  UNL     1      20.428  -0.048  53.190  1.00  0.00     0.071 C 
HETATM    2  C4  UNL     1      20.573   0.758  52.162  1.00  0.00     0.051 C 
HETATM    3  N1  UNL     1      19.488   0.493  51.212  1.00  0.00    -0.299 N 
HETATM    4  N2  UNL     1      19.457   1.907  51.091  1.00  0.00    -0.244 N 
HETATM    5  C8  UNL     1      20.895   1.754  51.072  1.00  0.00     0.140 C 
HETATM    6  H5  UNL     1      18.854  -0.210  50.696  1.00  0.00     0.186 HD
ENDROOT
BRANCH   5   7
HETATM    7  P1  UNL     1      21.350   0.953  49.472  1.00  0.00    -0.097 P 
HETATM    8  H8  UNL     1      22.699   1.367  49.132  1.00  0.00     0.057 HD
HETATM    9  H9  UNL     1      21.214  -0.471  49.531  1.00  0.00     0.057 HD
ENDBRANCH   5   7
BRANCH   5  10
HETATM   10  C9  UNL     1      21.609   2.945  51.459  1.00  0.00    -0.012 A 
HETATM   11  C10 UNL     1      21.239   4.273  51.517  1.00  0.00     0.011 A 
HETATM   12  C11 UNL     1      22.042   5.299  51.906  1.00  0.00     0.001 A 
HETATM   13  C12 UNL     1      23.329   5.058  52.281  1.00  0.00     0.001 A 
HETATM   14  C13 UNL     1      23.753   3.746  52.242  1.00  0.00     0.007 A 
HETATM   15  C14 UNL     1      22.922   2.690  51.841  1.00  0.00    -0.052 A 
HETATM   16  C15 UNL     1      23.542   1.342  51.860  1.00  0.00     0.049 C 
ENDBRANCH   5  10
BRANCH   4  17
HETATM   17  C5  UNL     1      18.251   2.761  51.053  1.00  0.00     0.191 A 
HETATM   18  N3  UNL     1      17.690   3.349  52.138  1.00  0.00    -0.198 NA
HETATM   19  C6  UNL     1      16.614   4.072  51.809  1.00  0.00     0.171 A 
HETATM   20  C7  UNL     1      16.068   4.241  50.471  1.00  0.00     0.111 A 
HETATM   21  S1  UNL     1      17.240   3.234  49.514  1.00  0.00    -0.058 SA
BRANCH  19  22
HETATM   22  O1  UNL     1      16.091   4.648  52.989  1.00  0.00    -0.344 OA
HETATM   23  H6  UNL     1      16.367   4.296  53.919  1.00  0.00     0.219 HD
ENDBRANCH  19  22
ENDBRANCH   4  17
BRANCH   1  24
HETATM   24  C2  UNL     1      21.072  -0.352  54.444  1.00  0.00    -0.025 C 
HETATM   25  C1  UNL     1      21.899  -1.329  54.018  1.00  0.00     0.007 C 
ENDBRANCH   1  24
TORSDOF 5
ENDMDL
MODEL 7
REMARK VINA RESULT:      -6.0      3.303      4.762
REMARK  5 active torsions:
REMARK  status: ('A' for Active; 'I' for Inactive)
REMARK    1  A    between atoms: C2_2  and  C3_3 
REMARK    2  A    between atoms: N2_6  and  C5_7 
REMARK    3  A    between atoms: C6_9  and  O1_10 
REMARK    4  A    between atoms: C8_13  and  P1_14 
REMARK    5  A    between atoms: C8_13  and  C9_15 
ROOT
HETATM    1  C3  UNL     1      25.461   4.556  49.279  1.00  0.00     0.071 C 
HETATM    2  C4  UNL     1      24.228   4.481  49.729  1.00  0.00     0.051 C 
HETATM    3  N1  UNL     1      23.437   5.533  49.084  1.00  0.00    -0.299 N 
HETATM    4  N2  UNL     1      22.445   4.521  49.000  1.00  0.00    -0.244 N 
HETATM    5  C8  UNL     1      22.872   4.246  50.354  1.00  0.00     0.140 C 
HETATM    6  H5  UNL     1      23.350   6.549  48.732  1.00  0.00     0.186 HD
ENDROOT
BRANCH   5   7
HETATM    7  P1  UNL     1      22.310   5.649  51.413  1.00  0.00    -0.097 P 
HETATM    8  H8  UNL     1      22.343   5.209  52.795  1.00  0.00     0.057 HD
HETATM    9  H9  UNL     1      23.092   6.828  51.196  1.00  0.00     0.057 HD
ENDBRANCH   5   7
BRANCH   5  10
HETATM   10  C9  UNL     1      22.574   2.905  50.793  1.00  0.00    -0.012 A 
HETATM   11  C10 UNL     1      21.844   1.881  50.224  1.00  0.00     0.011 A 
HETATM   12  C11 UNL     1      21.648   0.653  50.774  1.00  0.00     0.001 A 
HETATM   13  C12 UNL     1      22.190   0.351  51.986  1.00  0.00     0.001 A 
HETATM   14  C13 UNL     1      22.930   1.338  52.601  1.00  0.00     0.007 A 
HETATM   15  C14 UNL     1      23.132   2.604  52.031  1.00  0.00    -0.052 A 
HETATM   16  C15 UNL     1      23.954   3.544  52.830  1.00  0.00     0.049 C 
ENDBRANCH   5  10
BRANCH   4  17
HETATM   17  C5  UNL     1      21.589   4.224  47.832  1.00  0.00     0.191 A 
HETATM   18  N3  UNL     1      22.047   4.025  46.572  1.00  0.00    -0.198 NA
HETATM   19  C6  UNL     1      21.051   3.765  45.719  1.00  0.00     0.171 A 
HETATM   20  C7  UNL     1      19.635   3.692  46.045  1.00  0.00     0.111 A 
HETATM   21  S1  UNL     1      19.695   4.040  47.827  1.00  0.00    -0.058 SA
BRANCH  19  22
HETATM   22  O1  UNL     1      21.609   3.572  44.434  1.00  0.00    -0.344 OA
HETATM   23  H6  UNL     1      21.523   2.665  43.949  1.00  0.00     0.219 HD
ENDBRANCH  19  22
ENDBRANCH   4  17
BRANCH   1  24
HETATM   24  C2  UNL     1      26.730   3.893  49.444  1.00  0.00    -0.025 C 
HETATM   25  C1  UNL     1      26.308   2.811  50.132  1.00  0.00     0.007 C 
ENDBRANCH   1  24
TORSDOF 5
ENDMDL
MODEL 8
REMARK VINA RESULT:      -6.0      3.296      5.333
REMARK  5 active torsions:
REMARK  status: ('A' for Active; 'I' for Inactive)
REMARK    1  A    between atoms: C2_2  and  C3_3 
REMARK    2  A    between atoms: N2_6  and  C5_7 
REMARK    3  A    between atoms: C6_9  and  O1_10 
REMARK    4  A    between atoms: C8_13  and  P1_14 
REMARK    5  A    between atoms: C8_13  and  C9_15 
ROOT
HETATM    1  C3  UNL     1      25.223   3.846  49.869  1.00  0.00     0.071 C 
HETATM    2  C4  UNL     1      24.312   3.706  50.805  1.00  0.00     0.051 C 
HETATM    3  N1  UNL     1      23.327   4.782  50.656  1.00  0.00    -0.299 N 
HETATM    4  N2  UNL     1      22.390   3.752  50.936  1.00  0.00    -0.244 N 
HETATM    5  C8  UNL     1      23.365   3.390  51.941  1.00  0.00     0.140 C 
HETATM    6  H5  UNL     1      23.103   5.817  50.457  1.00  0.00     0.186 HD
ENDROOT
BRANCH   5   7
HETATM    7  P1  UNL     1      23.337   4.698  53.244  1.00  0.00    -0.097 P 
HETATM    8  H8  UNL     1      23.234   5.986  52.583  1.00  0.00     0.057 HD
HETATM    9  H9  UNL     1      22.287   4.484  54.192  1.00  0.00     0.057 HD
ENDBRANCH   5   7
BRANCH   5  10
HETATM   10  C9  UNL     1      23.279   2.014  52.362  1.00  0.00    -0.012 A 
HETATM   11  C10 UNL     1      22.282   1.067  52.245  1.00  0.00     0.011 A 
HETATM   12  C11 UNL     1      22.350  -0.211  52.705  1.00  0.00     0.001 A 
HETATM   13  C12 UNL     1      23.471  -0.650  53.343  1.00  0.00     0.001 A 
HETATM   14  C13 UNL     1      24.501   0.255  53.488  1.00  0.00     0.007 A 
HETATM   15  C14 UNL     1      24.427   1.573  53.012  1.00  0.00    -0.052 A 
HETATM   16  C15 UNL     1      25.627   2.410  53.253  1.00  0.00     0.049 C 
ENDBRANCH   5  10
BRANCH   4  17
HETATM   17  C5  UNL     1      21.106   3.518  50.243  1.00  0.00     0.191 A 
HETATM   18  N3  UNL     1      20.988   3.147  48.945  1.00  0.00    -0.198 NA
HETATM   19  C6  UNL     1      19.708   2.998  48.586  1.00  0.00     0.171 A 
HETATM   20  C7  UNL     1      18.547   3.196  49.440  1.00  0.00     0.111 A 
HETATM   21  S1  UNL     1      19.364   3.664  50.994  1.00  0.00    -0.058 SA
BRANCH  19  22
HETATM   22  O1  UNL     1      19.673   2.613  47.226  1.00  0.00    -0.344 OA
HETATM   23  H6  UNL     1      19.025   3.067  46.563  1.00  0.00     0.219 HD
ENDBRANCH  19  22
ENDBRANCH   4  17
BRANCH   1  24
HETATM   24  C2  UNL     1      26.430   3.206  49.409  1.00  0.00    -0.025 C 
HETATM   25  C1  UNL     1      27.126   4.309  49.062  1.00  0.00     0.007 C 
ENDBRANCH   1  24
TORSDOF 5
ENDMDL
MODEL 9
REMARK VINA RESULT:      -5.9      3.164      4.843
REMARK  5 active torsions:
REMARK  status: ('A' for Active; 'I' for Inactive)
REMARK    1  A    between atoms: C2_2  and  C3_3 
REMARK    2  A    between atoms: N2_6  and  C5_7 
REMARK    3  A    between atoms: C6_9  and  O1_10 
REMARK    4  A    between atoms: C8_13  and  P1_14 
REMARK    5  A    between atoms: C8_13  and  C9_15 
ROOT
HETATM    1  C3  UNL     1      19.464   3.846  50.655  1.00  0.00     0.071 C 
HETATM    2  C4  UNL     1      20.599   3.309  50.269  1.00  0.00     0.051 C 
HETATM    3  N1  UNL     1      21.122   4.092  49.145  1.00  0.00    -0.299 N 
HETATM    4  N2  UNL     1      22.369   3.911  49.800  1.00  0.00    -0.244 N 
HETATM    5  C8  UNL     1      21.878   2.561  49.966  1.00  0.00     0.140 C 
HETATM    6  H5  UNL     1      20.952   4.629  48.226  1.00  0.00     0.186 HD
ENDROOT
BRANCH   5   7
HETATM    7  P1  UNL     1      21.870   1.760  48.303  1.00  0.00    -0.097 P 
HETATM    8  H8  UNL     1      20.639   1.004  48.176  1.00  0.00     0.057 HD
HETATM    9  H9  UNL     1      22.036   2.715  47.250  1.00  0.00     0.057 HD
ENDBRANCH   5   7
BRANCH   5  10
HETATM   10  C9  UNL     1      22.498   1.850  51.056  1.00  0.00    -0.012 A 
HETATM   11  C10 UNL     1      23.682   2.044  51.739  1.00  0.00     0.011 A 
HETATM   12  C11 UNL     1      24.138   1.271  52.760  1.00  0.00     0.001 A 
HETATM   13  C12 UNL     1      23.411   0.201  53.188  1.00  0.00     0.001 A 
HETATM   14  C13 UNL     1      22.218  -0.040  52.541  1.00  0.00     0.007 A 
HETATM   15  C14 UNL     1      21.749   0.760  51.488  1.00  0.00    -0.052 A 
HETATM   16  C15 UNL     1      20.445   0.356  50.907  1.00  0.00     0.049 C 
ENDBRANCH   5  10
BRANCH   4  17
HETATM   17  C5  UNL     1      23.412   4.938  50.006  1.00  0.00     0.191 A 
HETATM   18  N3  UNL     1      23.270   6.032  50.794  1.00  0.00    -0.198 NA
HETATM   19  C6  UNL     1      24.376   6.783  50.802  1.00  0.00     0.171 A 
HETATM   20  C7  UNL     1      25.607   6.510  50.076  1.00  0.00     0.111 A 
HETATM   21  S1  UNL     1      25.156   4.957  49.248  1.00  0.00    -0.058 SA
BRANCH  19  22
HETATM   22  O1  UNL     1      24.147   7.898  51.641  1.00  0.00    -0.344 OA
HETATM   23  H6  UNL     1      24.918   8.330  52.173  1.00  0.00     0.219 HD
ENDBRANCH  19  22
ENDBRANCH   4  17
BRANCH   1  24
HETATM   24  C2  UNL     1      18.434   3.641  51.642  1.00  0.00    -0.025 C 
HETATM   25  C1  UNL     1      17.658   2.779  50.951  1.00  0.00     0.007 C 
ENDBRANCH   1  24
TORSDOF 5
ENDMDL
