MODEL 1
REMARK VINA RESULT:      -6.9      0.000      0.000
REMARK  11 active torsions:
REMARK  status: ('A' for Active; 'I' for Inactive)
REMARK    1  A    between atoms: C3_4  and  C4_5 
REMARK    2  A    between atoms: C5_6  and  N1_8 
REMARK    3  A    between atoms: N1_8  and  C7_9 
REMARK    4  A    between atoms: C9_11  and  O1_12 
REMARK    5  A    between atoms: O1_12  and  C10_13 
REMARK    6  A    between atoms: C10_13  and  C11_14 
REMARK    7  A    between atoms: C11_14  and  C13_16 
REMARK    8  A    between atoms: C13_16  and  N2_17 
REMARK    9  A    between atoms: C13_16  and  C14_18 
REMARK   10  A    between atoms: C14_18  and  C15_19 
REMARK   11  A    between atoms: C15_19  and  N3_20 
ROOT
HETATM    1  C7  UNL     1      23.398   1.024  53.137  1.00  0.00     0.133 A 
HETATM    2  C8  UNL     1      24.462   0.174  52.927  1.00  0.00     0.108 A 
HETATM    3  C9  UNL     1      25.495   0.634  52.137  1.00  0.00     0.169 A 
HETATM    4  N4  UNL     1      25.462   1.875  51.588  1.00  0.00    -0.218 NA
HETATM    5  C16 UNL     1      24.421   2.703  51.794  1.00  0.00     0.238 A 
HETATM    6  N5  UNL     1      23.421   2.242  52.566  1.00  0.00    -0.224 NA
ENDROOT
BRANCH   3   7
HETATM    7  O1  UNL     1      26.565  -0.247  51.938  1.00  0.00    -0.334 OA
BRANCH   7   8
HETATM    8  C10 UNL     1      26.971  -1.019  53.053  1.00  0.00     0.183 C 
BRANCH   8   9
HETATM    9  C11 UNL     1      28.492  -0.831  53.263  1.00  0.00     0.039 C 
HETATM   10  C12 UNL     1      29.084  -2.192  53.131  1.00  0.00     0.014 C 
BRANCH   9  11
HETATM   11  C13 UNL     1      28.626  -0.180  54.595  1.00  0.00     0.225 C 
BRANCH  11  12
HETATM   12  N2  UNL     1      27.257  -0.206  55.179  1.00  0.00     0.083 N 
HETATM   13  H18 UNL     1      27.047  -1.150  55.579  1.00  0.00     0.313 HD
HETATM   14  H19 UNL     1      26.558   0.094  54.448  1.00  0.00     0.313 HD
ENDBRANCH  11  12
BRANCH  11  15
HETATM   15  C14 UNL     1      29.070   1.234  54.631  1.00  0.00     0.065 C 
BRANCH  15  16
HETATM   16  C15 UNL     1      28.685   2.114  53.501  1.00  0.00     0.269 C 
BRANCH  16  17
HETATM   17  N3  UNL     1      27.447   2.806  53.919  1.00  0.00     0.078 N 
HETATM   18  H24 UNL     1      27.049   2.230  54.699  1.00  0.00     0.312 HD
HETATM   19  H25 UNL     1      26.796   2.706  53.113  1.00  0.00     0.312 HD
ENDBRANCH  16  17
ENDBRANCH  15  16
ENDBRANCH  11  15
ENDBRANCH   9  11
ENDBRANCH   8   9
ENDBRANCH   7   8
ENDBRANCH   3   7
BRANCH   1  20
HETATM   20  N1  UNL     1      22.264   0.665  53.938  1.00  0.00    -0.345 N 
HETATM   21  H9  UNL     1      21.706   1.467  54.331  1.00  0.00     0.167 HD
BRANCH  20  22
HETATM   22  C5  UNL     1      21.784  -0.630  54.277  1.00  0.00     0.007 C 
HETATM   23  C4  UNL     1      20.640  -1.063  53.762  1.00  0.00     0.027 C 
HETATM   24  C6  UNL     1      22.597  -1.455  55.208  1.00  0.00     0.068 C 
BRANCH  23  25
HETATM   25  C3  UNL     1      19.742  -0.372  52.845  1.00  0.00     0.039 C 
HETATM   26  C2  UNL     1      18.467  -0.681  52.667  1.00  0.00     0.090 C 
HETATM   27  C1  UNL     1      17.942  -1.814  53.472  1.00  0.00     0.082 C 
HETATM   28  F1  UNL     1      17.795   0.079  51.769  1.00  0.00    -0.211 F 
ENDBRANCH  23  25
ENDBRANCH  20  22
ENDBRANCH   1  20
TORSDOF 11
ENDMDL
MODEL 2
REMARK VINA RESULT:      -6.9      3.362      5.748
REMARK  11 active torsions:
REMARK  status: ('A' for Active; 'I' for Inactive)
REMARK    1  A    between atoms: C3_4  and  C4_5 
REMARK    2  A    between atoms: C5_6  and  N1_8 
REMARK    3  A    between atoms: N1_8  and  C7_9 
REMARK    4  A    between atoms: C9_11  and  O1_12 
REMARK    5  A    between atoms: O1_12  and  C10_13 
REMARK    6  A    between atoms: C10_13  and  C11_14 
REMARK    7  A    between atoms: C11_14  and  C13_16 
REMARK    8  A    between atoms: C13_16  and  N2_17 
REMARK    9  A    between atoms: C13_16  and  C14_18 
REMARK   10  A    between atoms: C14_18  and  C15_19 
REMARK   11  A    between atoms: C15_19  and  N3_20 
ROOT
HETATM    1  C7  UNL     1      23.274   1.964  50.927  1.00  0.00     0.133 A 
HETATM    2  C8  UNL     1      24.273   1.755  51.853  1.00  0.00     0.108 A 
HETATM    3  C9  UNL     1      24.048   0.799  52.822  1.00  0.00     0.169 A 
HETATM    4  N4  UNL     1      22.889   0.094  52.860  1.00  0.00    -0.218 NA
HETATM    5  C16 UNL     1      21.915   0.301  51.954  1.00  0.00     0.238 A 
HETATM    6  N5  UNL     1      22.147   1.235  51.016  1.00  0.00    -0.224 NA
ENDROOT
BRANCH   3   7
HETATM    7  O1  UNL     1      25.077   0.604  53.752  1.00  0.00    -0.334 OA
BRANCH   7   8
HETATM    8  C10 UNL     1      25.643  -0.692  53.814  1.00  0.00     0.183 C 
BRANCH   8   9
HETATM    9  C11 UNL     1      26.868  -0.749  52.871  1.00  0.00     0.039 C 
HETATM   10  C12 UNL     1      26.856  -2.118  52.284  1.00  0.00     0.014 C 
BRANCH   9  11
HETATM   11  C13 UNL     1      28.036  -0.408  53.726  1.00  0.00     0.225 C 
BRANCH  11  12
HETATM   12  N2  UNL     1      27.513  -0.411  55.119  1.00  0.00     0.083 N 
HETATM   13  H18 UNL     1      28.219  -0.006  55.778  1.00  0.00     0.313 HD
HETATM   14  H19 UNL     1      27.222  -1.390  55.383  1.00  0.00     0.313 HD
ENDBRANCH  11  12
BRANCH  11  15
HETATM   15  C14 UNL     1      28.679   0.912  53.524  1.00  0.00     0.065 C 
BRANCH  15  16
HETATM   16  C15 UNL     1      27.895   1.971  52.843  1.00  0.00     0.269 C 
BRANCH  16  17
HETATM   17  N3  UNL     1      27.204   2.725  53.910  1.00  0.00     0.078 N 
HETATM   18  H24 UNL     1      27.395   3.737  53.713  1.00  0.00     0.312 HD
HETATM   19  H25 UNL     1      27.716   2.490  54.784  1.00  0.00     0.312 HD
ENDBRANCH  16  17
ENDBRANCH  15  16
ENDBRANCH  11  15
ENDBRANCH   9  11
ENDBRANCH   8   9
ENDBRANCH   7   8
ENDBRANCH   3   7
BRANCH   1  20
HETATM   20  N1  UNL     1      23.383   2.928  49.871  1.00  0.00    -0.345 N 
HETATM   21  H9  UNL     1      23.407   2.538  48.893  1.00  0.00     0.167 HD
BRANCH  20  22
HETATM   22  C5  UNL     1      23.465   4.345  49.960  1.00  0.00     0.007 C 
HETATM   23  C4  UNL     1      24.611   4.956  49.684  1.00  0.00     0.027 C 
HETATM   24  C6  UNL     1      22.246   5.092  50.366  1.00  0.00     0.068 C 
BRANCH  23  25
HETATM   25  C3  UNL     1      25.878   4.361  49.278  1.00  0.00     0.039 C 
HETATM   26  C2  UNL     1      26.911   5.044  48.808  1.00  0.00     0.090 C 
HETATM   27  C1  UNL     1      26.738   6.515  48.700  1.00  0.00     0.082 C 
HETATM   28  F1  UNL     1      28.004   4.311  48.484  1.00  0.00    -0.211 F 
ENDBRANCH  23  25
ENDBRANCH  20  22
ENDBRANCH   1  20
TORSDOF 11
ENDMDL
MODEL 3
REMARK VINA RESULT:      -6.8      2.390      3.498
REMARK  11 active torsions:
REMARK  status: ('A' for Active; 'I' for Inactive)
REMARK    1  A    between atoms: C3_4  and  C4_5 
REMARK    2  A    between atoms: C5_6  and  N1_8 
REMARK    3  A    between atoms: N1_8  and  C7_9 
REMARK    4  A    between atoms: C9_11  and  O1_12 
REMARK    5  A    between atoms: O1_12  and  C10_13 
REMARK    6  A    between atoms: C10_13  and  C11_14 
REMARK    7  A    between atoms: C11_14  and  C13_16 
REMARK    8  A    between atoms: C13_16  and  N2_17 
REMARK    9  A    between atoms: C13_16  and  C14_18 
REMARK   10  A    between atoms: C14_18  and  C15_19 
REMARK   11  A    between atoms: C15_19  and  N3_20 
ROOT
HETATM    1  C7  UNL     1      23.641   2.945  50.614  1.00  0.00     0.133 A 
HETATM    2  C8  UNL     1      24.794   2.538  51.250  1.00  0.00     0.108 A 
HETATM    3  C9  UNL     1      25.980   3.106  50.835  1.00  0.00     0.169 A 
HETATM    4  N4  UNL     1      26.009   4.027  49.838  1.00  0.00    -0.218 NA
HETATM    5  C16 UNL     1      24.881   4.421  49.219  1.00  0.00     0.238 A 
HETATM    6  N5  UNL     1      23.732   3.861  49.633  1.00  0.00    -0.224 NA
ENDROOT
BRANCH   3   7
HETATM    7  O1  UNL     1      27.138   2.678  51.496  1.00  0.00    -0.334 OA
BRANCH   7   8
HETATM    8  C10 UNL     1      27.122   1.364  52.023  1.00  0.00     0.183 C 
BRANCH   8   9
HETATM    9  C11 UNL     1      27.407   1.432  53.542  1.00  0.00     0.039 C 
HETATM   10  C12 UNL     1      28.740   2.085  53.670  1.00  0.00     0.014 C 
BRANCH   9  11
HETATM   11  C13 UNL     1      27.313   0.026  54.020  1.00  0.00     0.225 C 
BRANCH  11  12
HETATM   12  N2  UNL     1      28.319  -0.082  55.112  1.00  0.00     0.083 N 
HETATM   13  H18 UNL     1      29.195  -0.536  54.761  1.00  0.00     0.313 HD
HETATM   14  H19 UNL     1      27.894  -0.593  55.931  1.00  0.00     0.313 HD
ENDBRANCH  11  12
BRANCH  11  15
HETATM   15  C14 UNL     1      27.627  -1.054  53.055  1.00  0.00     0.065 C 
BRANCH  15  16
HETATM   16  C15 UNL     1      28.923  -1.761  53.196  1.00  0.00     0.269 C 
BRANCH  16  17
HETATM   17  N3  UNL     1      28.610  -3.206  53.176  1.00  0.00     0.078 N 
HETATM   18  H24 UNL     1      27.808  -3.314  52.510  1.00  0.00     0.312 HD
HETATM   19  H25 UNL     1      28.240  -3.416  54.125  1.00  0.00     0.312 HD
ENDBRANCH  16  17
ENDBRANCH  15  16
ENDBRANCH  11  15
ENDBRANCH   9  11
ENDBRANCH   8   9
ENDBRANCH   7   8
ENDBRANCH   3   7
BRANCH   1  20
HETATM   20  N1  UNL     1      22.345   2.431  50.952  1.00  0.00    -0.345 N 
HETATM   21  H9  UNL     1      21.757   3.040  51.578  1.00  0.00     0.167 HD
BRANCH  20  22
HETATM   22  C5  UNL     1      21.739   1.207  50.557  1.00  0.00     0.007 C 
HETATM   23  C4  UNL     1      21.428   0.300  51.475  1.00  0.00     0.027 C 
HETATM   24  C6  UNL     1      21.476   0.991  49.110  1.00  0.00     0.068 C 
BRANCH  23  25
HETATM   25  C3  UNL     1      21.625   0.370  52.918  1.00  0.00     0.039 C 
HETATM   26  C2  UNL     1      20.742  -0.038  53.816  1.00  0.00     0.090 C 
HETATM   27  C1  UNL     1      19.474  -0.604  53.288  1.00  0.00     0.082 C 
HETATM   28  F1  UNL     1      21.107   0.110  55.112  1.00  0.00    -0.211 F 
ENDBRANCH  23  25
ENDBRANCH  20  22
ENDBRANCH   1  20
TORSDOF 11
ENDMDL
MODEL 4
REMARK VINA RESULT:      -6.8      2.099      2.976
REMARK  11 active torsions:
REMARK  status: ('A' for Active; 'I' for Inactive)
REMARK    1  A    between atoms: C3_4  and  C4_5 
REMARK    2  A    between atoms: C5_6  and  N1_8 
REMARK    3  A    between atoms: N1_8  and  C7_9 
REMARK    4  A    between atoms: C9_11  and  O1_12 
REMARK    5  A    between atoms: O1_12  and  C10_13 
REMARK    6  A    between atoms: C10_13  and  C11_14 
REMARK    7  A    between atoms: C11_14  and  C13_16 
REMARK    8  A    between atoms: C13_16  and  N2_17 
REMARK    9  A    between atoms: C13_16  and  C14_18 
REMARK   10  A    between atoms: C14_18  and  C15_19 
REMARK   11  A    between atoms: C15_19  and  N3_20 
ROOT
HETATM    1  C7  UNL     1      23.596   2.596  50.968  1.00  0.00     0.133 A 
HETATM    2  C8  UNL     1      24.511   1.756  51.564  1.00  0.00     0.108 A 
HETATM    3  C9  UNL     1      25.847   2.075  51.428  1.00  0.00     0.169 A 
HETATM    4  N4  UNL     1      26.240   3.172  50.732  1.00  0.00    -0.218 NA
HETATM    5  C16 UNL     1      25.343   3.990  50.151  1.00  0.00     0.238 A 
HETATM    6  N5  UNL     1      24.046   3.668  50.292  1.00  0.00    -0.224 NA
ENDROOT
BRANCH   3   7
HETATM    7  O1  UNL     1      26.758   1.208  52.042  1.00  0.00    -0.334 OA
BRANCH   7   8
HETATM    8  C10 UNL     1      26.545  -0.179  51.854  1.00  0.00     0.183 C 
BRANCH   8   9
HETATM    9  C11 UNL     1      26.904  -0.922  53.162  1.00  0.00     0.039 C 
HETATM   10  C12 UNL     1      25.977  -0.382  54.196  1.00  0.00     0.014 C 
BRANCH   9  11
HETATM   11  C13 UNL     1      28.354  -0.660  53.375  1.00  0.00     0.225 C 
BRANCH  11  12
HETATM   12  N2  UNL     1      28.977  -2.004  53.512  1.00  0.00     0.083 N 
HETATM   13  H18 UNL     1      29.259  -2.178  54.505  1.00  0.00     0.313 HD
HETATM   14  H19 UNL     1      29.783  -2.088  52.836  1.00  0.00     0.313 HD
ENDBRANCH  11  12
BRANCH  11  15
HETATM   15  C14 UNL     1      28.747   0.108  54.580  1.00  0.00     0.065 C 
BRANCH  15  16
HETATM   16  C15 UNL     1      29.382   1.434  54.386  1.00  0.00     0.269 C 
BRANCH  16  17
HETATM   17  N3  UNL     1      28.277   2.404  54.236  1.00  0.00     0.078 N 
HETATM   18  H24 UNL     1      27.397   1.866  54.427  1.00  0.00     0.312 HD
HETATM   19  H25 UNL     1      28.264   2.646  53.224  1.00  0.00     0.312 HD
ENDBRANCH  16  17
ENDBRANCH  15  16
ENDBRANCH  11  15
ENDBRANCH   9  11
ENDBRANCH   8   9
ENDBRANCH   7   8
ENDBRANCH   3   7
BRANCH   1  20
HETATM   20  N1  UNL     1      22.180   2.375  51.036  1.00  0.00    -0.345 N 
HETATM   21  H9  UNL     1      21.615   3.145  51.479  1.00  0.00     0.167 HD
BRANCH  20  22
HETATM   22  C5  UNL     1      21.429   1.255  50.585  1.00  0.00     0.007 C 
HETATM   23  C4  UNL     1      20.795   0.491  51.466  1.00  0.00     0.027 C 
HETATM   24  C6  UNL     1      21.385   0.983  49.125  1.00  0.00     0.068 C 
BRANCH  23  25
HETATM   25  C3  UNL     1      20.747   0.632  52.917  1.00  0.00     0.039 C 
HETATM   26  C2  UNL     1      21.491  -0.064  53.763  1.00  0.00     0.090 C 
HETATM   27  C1  UNL     1      22.431  -1.047  53.165  1.00  0.00     0.082 C 
HETATM   28  F1  UNL     1      21.303   0.210  55.076  1.00  0.00    -0.211 F 
ENDBRANCH  23  25
ENDBRANCH  20  22
ENDBRANCH   1  20
TORSDOF 11
ENDMDL
MODEL 5
REMARK VINA RESULT:      -6.7      3.431      6.849
REMARK  11 active torsions:
REMARK  status: ('A' for Active; 'I' for Inactive)
REMARK    1  A    between atoms: C3_4  and  C4_5 
REMARK    2  A    between atoms: C5_6  and  N1_8 
REMARK    3  A    between atoms: N1_8  and  C7_9 
REMARK    4  A    between atoms: C9_11  and  O1_12 
REMARK    5  A    between atoms: O1_12  and  C10_13 
REMARK    6  A    between atoms: C10_13  and  C11_14 
REMARK    7  A    between atoms: C11_14  and  C13_16 
REMARK    8  A    between atoms: C13_16  and  N2_17 
REMARK    9  A    between atoms: C13_16  and  C14_18 
REMARK   10  A    between atoms: C14_18  and  C15_19 
REMARK   11  A    between atoms: C15_19  and  N3_20 
ROOT
HETATM    1  C7  UNL     1      24.974  -0.191  53.827  1.00  0.00     0.133 A 
HETATM    2  C8  UNL     1      24.831   0.998  53.145  1.00  0.00     0.108 A 
HETATM    3  C9  UNL     1      23.547   1.452  52.927  1.00  0.00     0.169 A 
HETATM    4  N4  UNL     1      22.469   0.753  53.366  1.00  0.00    -0.218 NA
HETATM    5  C16 UNL     1      22.613  -0.408  54.031  1.00  0.00     0.238 A 
HETATM    6  N5  UNL     1      23.870  -0.839  54.237  1.00  0.00    -0.224 NA
ENDROOT
BRANCH   3   7
HETATM    7  O1  UNL     1      23.426   2.662  52.233  1.00  0.00    -0.334 OA
BRANCH   7   8
HETATM    8  C10 UNL     1      24.562   3.099  51.510  1.00  0.00     0.183 C 
BRANCH   8   9
HETATM    9  C11 UNL     1      24.091   3.899  50.273  1.00  0.00     0.039 C 
HETATM   10  C12 UNL     1      23.506   2.892  49.345  1.00  0.00     0.014 C 
BRANCH   9  11
HETATM   11  C13 UNL     1      25.300   4.619  49.789  1.00  0.00     0.225 C 
BRANCH  11  12
HETATM   12  N2  UNL     1      26.440   3.996  50.515  1.00  0.00     0.083 N 
HETATM   13  H18 UNL     1      26.731   3.106  50.048  1.00  0.00     0.313 HD
HETATM   14  H19 UNL     1      26.178   3.861  51.528  1.00  0.00     0.313 HD
ENDBRANCH  11  12
BRANCH  11  15
HETATM   15  C14 UNL     1      25.386   6.076  50.046  1.00  0.00     0.065 C 
BRANCH  15  16
HETATM   16  C15 UNL     1      24.200   6.753  50.626  1.00  0.00     0.269 C 
BRANCH  16  17
HETATM   17  N3  UNL     1      24.513   6.984  52.052  1.00  0.00     0.078 N 
HETATM   18  H24 UNL     1      24.708   6.037  52.458  1.00  0.00     0.312 HD
HETATM   19  H25 UNL     1      23.620   7.312  52.475  1.00  0.00     0.312 HD
ENDBRANCH  16  17
ENDBRANCH  15  16
ENDBRANCH  11  15
ENDBRANCH   9  11
ENDBRANCH   8   9
ENDBRANCH   7   8
ENDBRANCH   3   7
BRANCH   1  20
HETATM   20  N1  UNL     1      26.254  -0.769  54.117  1.00  0.00    -0.345 N 
HETATM   21  H9  UNL     1      26.497  -0.861  55.138  1.00  0.00     0.167 HD
BRANCH  20  22
HETATM   22  C5  UNL     1      27.247  -1.240  53.215  1.00  0.00     0.007 C 
HETATM   23  C4  UNL     1      28.500  -0.819  53.337  1.00  0.00     0.027 C 
HETATM   24  C6  UNL     1      26.834  -2.197  52.156  1.00  0.00     0.068 C 
BRANCH  23  25
HETATM   25  C3  UNL     1      29.050   0.112  54.316  1.00  0.00     0.039 C 
HETATM   26  C2  UNL     1      29.016   1.430  54.200  1.00  0.00     0.090 C 
HETATM   27  C1  UNL     1      28.366   1.971  52.978  1.00  0.00     0.082 C 
HETATM   28  F1  UNL     1      29.580   2.126  55.216  1.00  0.00    -0.211 F 
ENDBRANCH  23  25
ENDBRANCH  20  22
ENDBRANCH   1  20
TORSDOF 11
ENDMDL
MODEL 6
REMARK VINA RESULT:      -6.7      2.838      4.801
REMARK  11 active torsions:
REMARK  status: ('A' for Active; 'I' for Inactive)
REMARK    1  A    between atoms: C3_4  and  C4_5 
REMARK    2  A    between atoms: C5_6  and  N1_8 
REMARK    3  A    between atoms: N1_8  and  C7_9 
REMARK    4  A    between atoms: C9_11  and  O1_12 
REMARK    5  A    between atoms: O1_12  and  C10_13 
REMARK    6  A    between atoms: C10_13  and  C11_14 
REMARK    7  A    between atoms: C11_14  and  C13_16 
REMARK    8  A    between atoms: C13_16  and  N2_17 
REMARK    9  A    between atoms: C13_16  and  C14_18 
REMARK   10  A    between atoms: C14_18  and  C15_19 
REMARK   11  A    between atoms: C15_19  and  N3_20 
ROOT
HETATM    1  C7  UNL     1      25.761  -0.101  53.248  1.00  0.00     0.133 A 
HETATM    2  C8  UNL     1      25.924   0.967  52.393  1.00  0.00     0.108 A 
HETATM    3  C9  UNL     1      27.113   1.662  52.467  1.00  0.00     0.169 A 
HETATM    4  N4  UNL     1      28.082   1.307  53.348  1.00  0.00    -0.218 NA
HETATM    5  C16 UNL     1      27.919   0.263  54.183  1.00  0.00     0.238 A 
HETATM    6  N5  UNL     1      26.756  -0.405  54.100  1.00  0.00    -0.224 NA
ENDROOT
BRANCH   3   7
HETATM    7  O1  UNL     1      27.256   2.743  51.589  1.00  0.00    -0.334 OA
BRANCH   7   8
HETATM    8  C10 UNL     1      26.545   2.670  50.366  1.00  0.00     0.183 C 
BRANCH   8   9
HETATM    9  C11 UNL     1      25.593   3.884  50.269  1.00  0.00     0.039 C 
HETATM   10  C12 UNL     1      24.240   3.312  50.021  1.00  0.00     0.014 C 
BRANCH   9  11
HETATM   11  C13 UNL     1      26.156   4.737  49.187  1.00  0.00     0.225 C 
BRANCH  11  12
HETATM   12  N2  UNL     1      27.624   4.756  49.432  1.00  0.00     0.083 N 
HETATM   13  H18 UNL     1      27.973   5.742  49.492  1.00  0.00     0.313 HD
HETATM   14  H19 UNL     1      28.112   4.194  48.684  1.00  0.00     0.313 HD
ENDBRANCH  11  12
BRANCH  11  15
HETATM   15  C14 UNL     1      25.724   6.154  49.128  1.00  0.00     0.065 C 
BRANCH  15  16
HETATM   16  C15 UNL     1      25.243   6.789  50.379  1.00  0.00     0.269 C 
BRANCH  16  17
HETATM   17  N3  UNL     1      26.292   7.748  50.786  1.00  0.00     0.078 N 
HETATM   18  H24 UNL     1      26.957   7.802  49.977  1.00  0.00     0.312 HD
HETATM   19  H25 UNL     1      26.803   7.278  51.561  1.00  0.00     0.312 HD
ENDBRANCH  16  17
ENDBRANCH  15  16
ENDBRANCH  11  15
ENDBRANCH   9  11
ENDBRANCH   8   9
ENDBRANCH   7   8
ENDBRANCH   3   7
BRANCH   1  20
HETATM   20  N1  UNL     1      24.572  -0.903  53.270  1.00  0.00    -0.345 N 
HETATM   21  H9  UNL     1      24.613  -1.802  52.723  1.00  0.00     0.167 HD
BRANCH  20  22
HETATM   22  C5  UNL     1      23.339  -0.654  53.933  1.00  0.00     0.007 C 
HETATM   23  C4  UNL     1      22.374   0.004  53.302  1.00  0.00     0.027 C 
HETATM   24  C6  UNL     1      23.181  -1.149  55.326  1.00  0.00     0.068 C 
BRANCH  23  25
HETATM   25  C3  UNL     1      22.385   0.546  51.948  1.00  0.00     0.039 C 
HETATM   26  C2  UNL     1      21.315   0.655  51.176  1.00  0.00     0.090 C 
HETATM   27  C1  UNL     1      20.029   0.188  51.755  1.00  0.00     0.082 C 
HETATM   28  F1  UNL     1      21.527   1.184  49.947  1.00  0.00    -0.211 F 
ENDBRANCH  23  25
ENDBRANCH  20  22
ENDBRANCH   1  20
TORSDOF 11
ENDMDL
MODEL 7
REMARK VINA RESULT:      -6.6      2.438      3.780
REMARK  11 active torsions:
REMARK  status: ('A' for Active; 'I' for Inactive)
REMARK    1  A    between atoms: C3_4  and  C4_5 
REMARK    2  A    between atoms: C5_6  and  N1_8 
REMARK    3  A    between atoms: N1_8  and  C7_9 
REMARK    4  A    between atoms: C9_11  and  O1_12 
REMARK    5  A    between atoms: O1_12  and  C10_13 
REMARK    6  A    between atoms: C10_13  and  C11_14 
REMARK    7  A    between atoms: C11_14  and  C13_16 
REMARK    8  A    between atoms: C13_16  and  N2_17 
REMARK    9  A    between atoms: C13_16  and  C14_18 
REMARK   10  A    between atoms: C14_18  and  C15_19 
REMARK   11  A    between atoms: C15_19  and  N3_20 
ROOT
HETATM    1  C7  UNL     1      21.159   3.064  52.197  1.00  0.00     0.133 A 
HETATM    2  C8  UNL     1      22.417   2.564  52.456  1.00  0.00     0.108 A 
HETATM    3  C9  UNL     1      23.487   3.416  52.275  1.00  0.00     0.169 A 
HETATM    4  N4  UNL     1      23.306   4.694  51.857  1.00  0.00    -0.218 NA
HETATM    5  C16 UNL     1      22.076   5.179  51.605  1.00  0.00     0.238 A 
HETATM    6  N5  UNL     1      21.043   4.339  51.786  1.00  0.00    -0.224 NA
ENDROOT
BRANCH   3   7
HETATM    7  O1  UNL     1      24.755   2.885  52.544  1.00  0.00    -0.334 OA
BRANCH   7   8
HETATM    8  C10 UNL     1      24.797   1.579  53.089  1.00  0.00     0.183 C 
BRANCH   8   9
HETATM    9  C11 UNL     1      26.252   1.057  53.024  1.00  0.00     0.039 C 
HETATM   10  C12 UNL     1      26.689   1.268  51.616  1.00  0.00     0.014 C 
BRANCH   9  11
HETATM   11  C13 UNL     1      26.181  -0.355  53.488  1.00  0.00     0.225 C 
BRANCH  11  12
HETATM   12  N2  UNL     1      26.774  -0.347  54.853  1.00  0.00     0.083 N 
HETATM   13  H18 UNL     1      27.453  -1.135  54.963  1.00  0.00     0.313 HD
HETATM   14  H19 UNL     1      26.001  -0.369  55.571  1.00  0.00     0.313 HD
ENDBRANCH  11  12
BRANCH  11  15
HETATM   15  C14 UNL     1      26.929  -1.374  52.713  1.00  0.00     0.065 C 
BRANCH  15  16
HETATM   16  C15 UNL     1      28.327  -1.667  53.114  1.00  0.00     0.269 C 
BRANCH  16  17
HETATM   17  N3  UNL     1      28.456  -3.139  53.122  1.00  0.00     0.078 N 
HETATM   18  H24 UNL     1      28.763  -3.403  52.155  1.00  0.00     0.312 HD
HETATM   19  H25 UNL     1      27.485  -3.495  53.233  1.00  0.00     0.312 HD
ENDBRANCH  16  17
ENDBRANCH  15  16
ENDBRANCH  11  15
ENDBRANCH   9  11
ENDBRANCH   8   9
ENDBRANCH   7   8
ENDBRANCH   3   7
BRANCH   1  20
HETATM   20  N1  UNL     1      19.967   2.282  52.347  1.00  0.00    -0.345 N 
HETATM   21  H9  UNL     1      19.199   2.717  52.923  1.00  0.00     0.167 HD
BRANCH  20  22
HETATM   22  C5  UNL     1      19.673   0.993  51.824  1.00  0.00     0.007 C 
HETATM   23  C4  UNL     1      19.897  -0.085  52.565  1.00  0.00     0.027 C 
HETATM   24  C6  UNL     1      19.119   0.906  50.448  1.00  0.00     0.068 C 
BRANCH  23  25
HETATM   25  C3  UNL     1      20.433  -0.155  53.920  1.00  0.00     0.039 C 
HETATM   26  C2  UNL     1      21.628  -0.633  54.229  1.00  0.00     0.090 C 
HETATM   27  C1  UNL     1      22.460  -1.123  53.100  1.00  0.00     0.082 C 
HETATM   28  F1  UNL     1      21.948  -0.615  55.546  1.00  0.00    -0.211 F 
ENDBRANCH  23  25
ENDBRANCH  20  22
ENDBRANCH   1  20
TORSDOF 11
ENDMDL
MODEL 8
REMARK VINA RESULT:      -6.6      3.491      7.146
REMARK  11 active torsions:
REMARK  status: ('A' for Active; 'I' for Inactive)
REMARK    1  A    between atoms: C3_4  and  C4_5 
REMARK    2  A    between atoms: C5_6  and  N1_8 
REMARK    3  A    between atoms: N1_8  and  C7_9 
REMARK    4  A    between atoms: C9_11  and  O1_12 
REMARK    5  A    between atoms: O1_12  and  C10_13 
REMARK    6  A    between atoms: C10_13  and  C11_14 
REMARK    7  A    between atoms: C11_14  and  C13_16 
REMARK    8  A    between atoms: C13_16  and  N2_17 
REMARK    9  A    between atoms: C13_16  and  C14_18 
REMARK   10  A    between atoms: C14_18  and  C15_19 
REMARK   11  A    between atoms: C15_19  and  N3_20 
ROOT
HETATM    1  C7  UNL     1      25.018  -0.232  53.934  1.00  0.00     0.133 A 
HETATM    2  C8  UNL     1      24.752   0.929  53.240  1.00  0.00     0.108 A 
HETATM    3  C9  UNL     1      23.428   1.282  53.081  1.00  0.00     0.169 A 
HETATM    4  N4  UNL     1      22.430   0.516  53.589  1.00  0.00    -0.218 NA
HETATM    5  C16 UNL     1      22.693  -0.617  54.267  1.00  0.00     0.238 A 
HETATM    6  N5  UNL     1      23.987  -0.950  54.414  1.00  0.00    -0.224 NA
ENDROOT
BRANCH   3   7
HETATM    7  O1  UNL     1      23.182   2.464  52.373  1.00  0.00    -0.334 OA
BRANCH   7   8
HETATM    8  C10 UNL     1      24.302   3.280  52.085  1.00  0.00     0.183 C 
BRANCH   8   9
HETATM    9  C11 UNL     1      23.952   4.209  50.898  1.00  0.00     0.039 C 
HETATM   10  C12 UNL     1      25.202   4.320  50.096  1.00  0.00     0.014 C 
BRANCH   9  11
HETATM   11  C13 UNL     1      23.454   5.466  51.520  1.00  0.00     0.225 C 
BRANCH  11  12
HETATM   12  N2  UNL     1      23.804   5.352  52.962  1.00  0.00     0.083 N 
HETATM   13  H18 UNL     1      24.844   5.316  53.086  1.00  0.00     0.313 HD
HETATM   14  H19 UNL     1      23.314   4.516  53.378  1.00  0.00     0.313 HD
ENDBRANCH  11  12
BRANCH  11  15
HETATM   15  C14 UNL     1      21.997   5.734  51.464  1.00  0.00     0.065 C 
BRANCH  15  16
HETATM   16  C15 UNL     1      21.132   4.742  50.780  1.00  0.00     0.269 C 
BRANCH  16  17
HETATM   17  N3  UNL     1      20.530   3.913  51.845  1.00  0.00     0.078 N 
HETATM   18  H24 UNL     1      21.321   3.647  52.480  1.00  0.00     0.312 HD
HETATM   19  H25 UNL     1      20.225   3.040  51.368  1.00  0.00     0.312 HD
ENDBRANCH  16  17
ENDBRANCH  15  16
ENDBRANCH  11  15
ENDBRANCH   9  11
ENDBRANCH   8   9
ENDBRANCH   7   8
ENDBRANCH   3   7
BRANCH   1  20
HETATM   20  N1  UNL     1      26.351  -0.708  54.167  1.00  0.00    -0.345 N 
HETATM   21  H9  UNL     1      26.665  -0.724  55.172  1.00  0.00     0.167 HD
BRANCH  20  22
HETATM   22  C5  UNL     1      27.313  -1.166  53.225  1.00  0.00     0.007 C 
HETATM   23  C4  UNL     1      28.562  -0.720  53.291  1.00  0.00     0.027 C 
HETATM   24  C6  UNL     1      26.873  -2.138  52.191  1.00  0.00     0.068 C 
BRANCH  23  25
HETATM   25  C3  UNL     1      29.135   0.227  54.240  1.00  0.00     0.039 C 
HETATM   26  C2  UNL     1      29.038   1.544  54.137  1.00  0.00     0.090 C 
HETATM   27  C1  UNL     1      28.288   2.063  52.965  1.00  0.00     0.082 C 
HETATM   28  F1  UNL     1      29.638   2.258  55.120  1.00  0.00    -0.211 F 
ENDBRANCH  23  25
ENDBRANCH  20  22
ENDBRANCH   1  20
TORSDOF 11
ENDMDL
MODEL 9
REMARK VINA RESULT:      -6.6      2.783      4.266
REMARK  11 active torsions:
REMARK  status: ('A' for Active; 'I' for Inactive)
REMARK    1  A    between atoms: C3_4  and  C4_5 
REMARK    2  A    between atoms: C5_6  and  N1_8 
REMARK    3  A    between atoms: N1_8  and  C7_9 
REMARK    4  A    between atoms: C9_11  and  O1_12 
REMARK    5  A    between atoms: O1_12  and  C10_13 
REMARK    6  A    between atoms: C10_13  and  C11_14 
REMARK    7  A    between atoms: C11_14  and  C13_16 
REMARK    8  A    between atoms: C13_16  and  N2_17 
REMARK    9  A    between atoms: C13_16  and  C14_18 
REMARK   10  A    between atoms: C14_18  and  C15_19 
REMARK   11  A    between atoms: C15_19  and  N3_20 
ROOT
HETATM    1  C7  UNL     1      21.221   0.355  52.687  1.00  0.00     0.133 A 
HETATM    2  C8  UNL     1      22.592   0.276  52.806  1.00  0.00     0.108 A 
HETATM    3  C9  UNL     1      23.097  -0.638  53.708  1.00  0.00     0.169 A 
HETATM    4  N4  UNL     1      22.275  -1.425  54.448  1.00  0.00    -0.218 NA
HETATM    5  C16 UNL     1      20.937  -1.344  54.329  1.00  0.00     0.238 A 
HETATM    6  N5  UNL     1      20.458  -0.450  53.447  1.00  0.00    -0.224 NA
ENDROOT
BRANCH   3   7
HETATM    7  O1  UNL     1      24.492  -0.701  53.812  1.00  0.00    -0.334 OA
BRANCH   7   8
HETATM    8  C10 UNL     1      25.236   0.076  52.891  1.00  0.00     0.183 C 
BRANCH   8   9
HETATM    9  C11 UNL     1      26.736  -0.271  53.042  1.00  0.00     0.039 C 
HETATM   10  C12 UNL     1      26.861  -1.693  52.618  1.00  0.00     0.014 C 
BRANCH   9  11
HETATM   11  C13 UNL     1      27.065   0.026  54.462  1.00  0.00     0.225 C 
BRANCH  11  12
HETATM   12  N2  UNL     1      26.410   1.331  54.749  1.00  0.00     0.083 N 
HETATM   13  H18 UNL     1      26.726   2.059  54.065  1.00  0.00     0.313 HD
HETATM   14  H19 UNL     1      26.596   1.604  55.751  1.00  0.00     0.313 HD
ENDBRANCH  11  12
BRANCH  11  15
HETATM   15  C14 UNL     1      28.494   0.188  54.821  1.00  0.00     0.065 C 
BRANCH  15  16
HETATM   16  C15 UNL     1      29.372   0.917  53.874  1.00  0.00     0.269 C 
BRANCH  16  17
HETATM   17  N3  UNL     1      29.642   2.233  54.490  1.00  0.00     0.078 N 
HETATM   18  H24 UNL     1      30.578   2.144  54.954  1.00  0.00     0.312 HD
HETATM   19  H25 UNL     1      28.940   2.325  55.252  1.00  0.00     0.312 HD
ENDBRANCH  16  17
ENDBRANCH  15  16
ENDBRANCH  11  15
ENDBRANCH   9  11
ENDBRANCH   8   9
ENDBRANCH   7   8
ENDBRANCH   3   7
BRANCH   1  20
HETATM   20  N1  UNL     1      20.572   1.263  51.786  1.00  0.00    -0.345 N 
HETATM   21  H9  UNL     1      20.521   2.267  52.102  1.00  0.00     0.167 HD
BRANCH  20  22
HETATM   22  C5  UNL     1      19.984   0.997  50.519  1.00  0.00     0.007 C 
HETATM   23  C4  UNL     1      20.707   1.144  49.415  1.00  0.00     0.027 C 
HETATM   24  C6  UNL     1      18.565   0.559  50.484  1.00  0.00     0.068 C 
BRANCH  23  25
HETATM   25  C3  UNL     1      22.098   1.563  49.294  1.00  0.00     0.039 C 
HETATM   26  C2  UNL     1      22.498   2.668  48.685  1.00  0.00     0.090 C 
HETATM   27  C1  UNL     1      21.435   3.522  48.095  1.00  0.00     0.082 C 
HETATM   28  F1  UNL     1      23.835   2.887  48.677  1.00  0.00    -0.211 F 
ENDBRANCH  23  25
ENDBRANCH  20  22
ENDBRANCH   1  20
TORSDOF 11
ENDMDL
