MODEL 1
REMARK VINA RESULT:      -7.9      0.000      0.000
REMARK  4 active torsions:
REMARK  status: ('A' for Active; 'I' for Inactive)
REMARK    1  A    between atoms: N1_2  and  C1_3 
REMARK    2  A    between atoms: C6_10  and  O1_11 
REMARK    3  A    between atoms: O1_11  and  N4_12 
REMARK    4  A    between atoms: N4_12  and  C7_13 
ROOT
HETATM    1  C1  UNL     1      24.525  -0.163  53.520  1.00  0.00     0.044 A 
HETATM    2  C2  UNL     1      24.934  -0.616  54.759  1.00  0.00     0.033 A 
HETATM    3  C3  UNL     1      26.183  -0.179  55.151  1.00  0.00     0.035 A 
HETATM    4  C4  UNL     1      26.980   0.648  54.376  1.00  0.00     0.072 A 
HETATM    5  N2  UNL     1      28.197   1.050  54.802  1.00  0.00    -0.241 NA
HETATM    6  C5  UNL     1      28.976   1.864  54.035  1.00  0.00     0.236 A 
HETATM    7  N3  UNL     1      28.529   2.286  52.818  1.00  0.00    -0.215 NA
HETATM    8  C6  UNL     1      27.301   1.879  52.392  1.00  0.00     0.205 A 
HETATM    9  C13 UNL     1      26.492   1.055  53.148  1.00  0.00     0.050 A 
HETATM   10  C14 UNL     1      25.246   0.658  52.684  1.00  0.00     0.048 A 
ENDROOT
BRANCH   8  11
HETATM   11  O1  UNL     1      26.815   2.292  51.154  1.00  0.00    -0.216 OA
BRANCH  11  12
HETATM   12  N4  UNL     1      26.729   3.608  50.787  1.00  0.00    -0.259 N 
HETATM   13  H5  UNL     1      27.470   4.280  51.079  1.00  0.00     0.195 HD
BRANCH  12  14
HETATM   14  C7  UNL     1      25.622   4.046  50.006  1.00  0.00     0.056 A 
HETATM   15  C8  UNL     1      25.616   5.377  49.630  1.00  0.00     0.031 A 
HETATM   16  C9  UNL     1      24.544   5.815  48.870  1.00  0.00     0.004 A 
HETATM   17  C10 UNL     1      23.529   4.942  48.512  1.00  0.00     0.019 A 
HETATM   18  C11 UNL     1      23.556   3.607  48.903  1.00  0.00     0.013 A 
HETATM   19 BR1  UNL     1      22.135   2.465  48.381  1.00  0.00    -0.051 Br
HETATM   20  C12 UNL     1      24.635   3.164  49.668  1.00  0.00     0.050 A 
ENDBRANCH  12  14
ENDBRANCH  11  12
ENDBRANCH   8  11
BRANCH   1  21
HETATM   21  N1  UNL     1      23.246  -0.574  53.052  1.00  0.00    -0.299 N 
HETATM   22 CL1  UNL     1      22.071  -1.454  53.947  1.00  0.00     0.011 Cl
HETATM   23  H1  UNL     1      22.877  -0.384  52.106  1.00  0.00     0.180 HD
ENDBRANCH   1  21
TORSDOF 4
ENDMDL
MODEL 2
REMARK VINA RESULT:      -7.6      2.661      3.841
REMARK  4 active torsions:
REMARK  status: ('A' for Active; 'I' for Inactive)
REMARK    1  A    between atoms: N1_2  and  C1_3 
REMARK    2  A    between atoms: C6_10  and  O1_11 
REMARK    3  A    between atoms: O1_11  and  N4_12 
REMARK    4  A    between atoms: N4_12  and  C7_13 
ROOT
HETATM    1  C1  UNL     1      26.844  -0.001  53.983  1.00  0.00     0.044 A 
HETATM    2  C2  UNL     1      25.794  -0.699  54.545  1.00  0.00     0.033 A 
HETATM    3  C3  UNL     1      24.561  -0.442  53.983  1.00  0.00     0.035 A 
HETATM    4  C4  UNL     1      24.371   0.445  52.935  1.00  0.00     0.072 A 
HETATM    5  N2  UNL     1      23.143   0.665  52.417  1.00  0.00    -0.241 NA
HETATM    6  C5  UNL     1      22.962   1.539  51.386  1.00  0.00     0.236 A 
HETATM    7  N3  UNL     1      24.031   2.205  50.863  1.00  0.00    -0.215 NA
HETATM    8  C6  UNL     1      25.267   1.981  51.389  1.00  0.00     0.205 A 
HETATM    9  C13 UNL     1      25.477   1.102  52.432  1.00  0.00     0.050 A 
HETATM   10  C14 UNL     1      26.750   0.897  52.944  1.00  0.00     0.048 A 
ENDROOT
BRANCH   8  11
HETATM   11  O1  UNL     1      26.378   2.645  50.877  1.00  0.00    -0.216 OA
BRANCH  11  12
HETATM   12  N4  UNL     1      26.457   3.081  49.581  1.00  0.00    -0.259 N 
HETATM   13  H5  UNL     1      26.404   2.397  48.797  1.00  0.00     0.195 HD
BRANCH  12  14
HETATM   14  C7  UNL     1      26.612   4.471  49.319  1.00  0.00     0.056 A 
HETATM   15  C8  UNL     1      27.716   4.843  48.574  1.00  0.00     0.031 A 
HETATM   16  C9  UNL     1      27.878   6.194  48.313  1.00  0.00     0.004 A 
HETATM   17  C10 UNL     1      26.961   7.120  48.787  1.00  0.00     0.019 A 
HETATM   18  C11 UNL     1      25.858   6.722  49.534  1.00  0.00     0.013 A 
HETATM   19 BR1  UNL     1      24.641   8.038  50.154  1.00  0.00    -0.051 Br
HETATM   20  C12 UNL     1      25.693   5.362  49.799  1.00  0.00     0.050 A 
ENDBRANCH  12  14
ENDBRANCH  11  12
ENDBRANCH   8  11
BRANCH   1  21
HETATM   21  N1  UNL     1      28.147  -0.218  54.514  1.00  0.00    -0.299 N 
HETATM   22 CL1  UNL     1      29.551  -0.640  53.617  1.00  0.00     0.011 Cl
HETATM   23  H1  UNL     1      28.394  -0.143  55.514  1.00  0.00     0.180 HD
ENDBRANCH   1  21
TORSDOF 4
ENDMDL
MODEL 3
REMARK VINA RESULT:      -7.5      2.665      4.116
REMARK  4 active torsions:
REMARK  status: ('A' for Active; 'I' for Inactive)
REMARK    1  A    between atoms: N1_2  and  C1_3 
REMARK    2  A    between atoms: C6_10  and  O1_11 
REMARK    3  A    between atoms: O1_11  and  N4_12 
REMARK    4  A    between atoms: N4_12  and  C7_13 
ROOT
HETATM    1  C1  UNL     1      26.436   1.427  53.977  1.00  0.00     0.044 A 
HETATM    2  C2  UNL     1      26.343   0.213  54.627  1.00  0.00     0.033 A 
HETATM    3  C3  UNL     1      25.188  -0.495  54.369  1.00  0.00     0.035 A 
HETATM    4  C4  UNL     1      24.186  -0.040  53.526  1.00  0.00     0.072 A 
HETATM    5  N2  UNL     1      23.072  -0.769  53.303  1.00  0.00    -0.241 NA
HETATM    6  C5  UNL     1      22.090  -0.316  52.473  1.00  0.00     0.236 A 
HETATM    7  N3  UNL     1      22.227   0.890  51.852  1.00  0.00    -0.215 NA
HETATM    8  C6  UNL     1      23.352   1.623  52.079  1.00  0.00     0.205 A 
HETATM    9  C13 UNL     1      24.360   1.187  52.915  1.00  0.00     0.050 A 
HETATM   10  C14 UNL     1      25.495   1.958  53.124  1.00  0.00     0.048 A 
ENDROOT
BRANCH   8  11
HETATM   11  O1  UNL     1      23.523   2.858  51.460  1.00  0.00    -0.216 OA
BRANCH  11  12
HETATM   12  N4  UNL     1      23.712   2.998  50.111  1.00  0.00    -0.259 N 
HETATM   13  H5  UNL     1      23.102   2.484  49.443  1.00  0.00     0.195 HD
BRANCH  12  14
HETATM   14  C7  UNL     1      24.748   3.851  49.635  1.00  0.00     0.056 A 
HETATM   15  C8  UNL     1      26.034   3.341  49.666  1.00  0.00     0.031 A 
HETATM   16  C9  UNL     1      27.050   4.161  49.206  1.00  0.00     0.004 A 
HETATM   17  C10 UNL     1      26.773   5.437  48.739  1.00  0.00     0.019 A 
HETATM   18  C11 UNL     1      25.472   5.928  48.718  1.00  0.00     0.013 A 
HETATM   19 BR1  UNL     1      25.159   7.681  48.068  1.00  0.00    -0.051 Br
HETATM   20  C12 UNL     1      24.446   5.104  49.182  1.00  0.00     0.050 A 
ENDBRANCH  12  14
ENDBRANCH  11  12
ENDBRANCH   8  11
BRANCH   1  21
HETATM   21  N1  UNL     1      27.602   2.212  54.197  1.00  0.00    -0.299 N 
HETATM   22 CL1  UNL     1      29.212   1.624  54.326  1.00  0.00     0.011 Cl
HETATM   23  H1  UNL     1      27.608   3.239  54.305  1.00  0.00     0.180 HD
ENDBRANCH   1  21
TORSDOF 4
ENDMDL
MODEL 4
REMARK VINA RESULT:      -7.3      2.448      3.015
REMARK  4 active torsions:
REMARK  status: ('A' for Active; 'I' for Inactive)
REMARK    1  A    between atoms: N1_2  and  C1_3 
REMARK    2  A    between atoms: C6_10  and  O1_11 
REMARK    3  A    between atoms: O1_11  and  N4_12 
REMARK    4  A    between atoms: N4_12  and  C7_13 
ROOT
HETATM    1  C1  UNL     1      21.749   0.070  53.831  1.00  0.00     0.044 A 
HETATM    2  C2  UNL     1      22.053  -0.819  54.842  1.00  0.00     0.033 A 
HETATM    3  C3  UNL     1      23.393  -1.126  54.958  1.00  0.00     0.035 A 
HETATM    4  C4  UNL     1      24.372  -0.595  54.133  1.00  0.00     0.072 A 
HETATM    5  N2  UNL     1      25.672  -0.926  54.285  1.00  0.00    -0.241 NA
HETATM    6  C5  UNL     1      26.631  -0.400  53.471  1.00  0.00     0.236 A 
HETATM    7  N3  UNL     1      26.281   0.476  52.485  1.00  0.00    -0.215 NA
HETATM    8  C6  UNL     1      24.969   0.807  52.336  1.00  0.00     0.205 A 
HETATM    9  C13 UNL     1      23.979   0.288  53.146  1.00  0.00     0.050 A 
HETATM   10  C14 UNL     1      22.651   0.647  52.966  1.00  0.00     0.048 A 
ENDROOT
BRANCH   8  11
HETATM   11  O1  UNL     1      24.579   1.698  51.339  1.00  0.00    -0.216 OA
BRANCH  11  12
HETATM   12  N4  UNL     1      24.545   3.055  51.523  1.00  0.00    -0.259 N 
HETATM   13  H5  UNL     1      24.007   3.460  52.317  1.00  0.00     0.195 HD
BRANCH  12  14
HETATM   14  C7  UNL     1      25.248   3.901  50.619  1.00  0.00     0.056 A 
HETATM   15  C8  UNL     1      26.350   3.354  49.988  1.00  0.00     0.031 A 
HETATM   16  C9  UNL     1      27.043   4.166  49.106  1.00  0.00     0.004 A 
HETATM   17  C10 UNL     1      26.634   5.472  48.879  1.00  0.00     0.019 A 
HETATM   18  C11 UNL     1      25.522   6.000  49.525  1.00  0.00     0.013 A 
HETATM   19 BR1  UNL     1      25.015   7.793  49.171  1.00  0.00    -0.051 Br
HETATM   20  C12 UNL     1      24.823   5.183  50.414  1.00  0.00     0.050 A 
ENDBRANCH  12  14
ENDBRANCH  11  12
ENDBRANCH   8  11
BRANCH   1  21
HETATM   21  N1  UNL     1      20.384   0.433  53.653  1.00  0.00    -0.299 N 
HETATM   22 CL1  UNL     1      19.170  -0.522  52.898  1.00  0.00     0.011 Cl
HETATM   23  H1  UNL     1      19.968   1.325  53.964  1.00  0.00     0.180 HD
ENDBRANCH   1  21
TORSDOF 4
ENDMDL
MODEL 5
REMARK VINA RESULT:      -7.3      2.914      4.229
REMARK  4 active torsions:
REMARK  status: ('A' for Active; 'I' for Inactive)
REMARK    1  A    between atoms: N1_2  and  C1_3 
REMARK    2  A    between atoms: C6_10  and  O1_11 
REMARK    3  A    between atoms: O1_11  and  N4_12 
REMARK    4  A    between atoms: N4_12  and  C7_13 
ROOT
HETATM    1  C1  UNL     1      26.652   1.735  53.790  1.00  0.00     0.044 A 
HETATM    2  C2  UNL     1      26.797   0.442  54.251  1.00  0.00     0.033 A 
HETATM    3  C3  UNL     1      25.673  -0.348  54.123  1.00  0.00     0.035 A 
HETATM    4  C4  UNL     1      24.482   0.103  53.577  1.00  0.00     0.072 A 
HETATM    5  N2  UNL     1      23.407  -0.708  53.473  1.00  0.00    -0.241 NA
HETATM    6  C5  UNL     1      22.238  -0.259  52.935  1.00  0.00     0.236 A 
HETATM    7  N3  UNL     1      22.142   1.028  52.492  1.00  0.00    -0.215 NA
HETATM    8  C6  UNL     1      23.228   1.842  52.599  1.00  0.00     0.205 A 
HETATM    9  C13 UNL     1      24.423   1.413  53.140  1.00  0.00     0.050 A 
HETATM   10  C14 UNL     1      25.511   2.269  53.234  1.00  0.00     0.048 A 
ENDROOT
BRANCH   8  11
HETATM   11  O1  UNL     1      23.163   3.161  52.156  1.00  0.00    -0.216 OA
BRANCH  11  12
HETATM   12  N4  UNL     1      23.493   3.537  50.881  1.00  0.00    -0.259 N 
HETATM   13  H5  UNL     1      23.246   2.924  50.077  1.00  0.00     0.195 HD
BRANCH  12  14
HETATM   14  C7  UNL     1      24.173   4.770  50.670  1.00  0.00     0.056 A 
HETATM   15  C8  UNL     1      23.701   5.866  51.367  1.00  0.00     0.031 A 
HETATM   16  C9  UNL     1      24.355   7.071  51.170  1.00  0.00     0.004 A 
HETATM   17  C10 UNL     1      25.436   7.155  50.306  1.00  0.00     0.019 A 
HETATM   18  C11 UNL     1      25.893   6.039  49.615  1.00  0.00     0.013 A 
HETATM   19 BR1  UNL     1      27.375   6.220  48.447  1.00  0.00    -0.051 Br
HETATM   20  C12 UNL     1      25.235   4.824  49.812  1.00  0.00     0.050 A 
ENDBRANCH  12  14
ENDBRANCH  11  12
ENDBRANCH   8  11
BRANCH   1  21
HETATM   21  N1  UNL     1      27.772   2.607  53.890  1.00  0.00    -0.299 N 
HETATM   22 CL1  UNL     1      29.363   2.164  54.366  1.00  0.00     0.011 Cl
HETATM   23  H1  UNL     1      27.750   3.619  53.683  1.00  0.00     0.180 HD
ENDBRANCH   1  21
TORSDOF 4
ENDMDL
MODEL 6
REMARK VINA RESULT:      -7.2      2.560      3.046
REMARK  4 active torsions:
REMARK  status: ('A' for Active; 'I' for Inactive)
REMARK    1  A    between atoms: N1_2  and  C1_3 
REMARK    2  A    between atoms: C6_10  and  O1_11 
REMARK    3  A    between atoms: O1_11  and  N4_12 
REMARK    4  A    between atoms: N4_12  and  C7_13 
ROOT
HETATM    1  C1  UNL     1      22.975   0.872  52.009  1.00  0.00     0.044 A 
HETATM    2  C2  UNL     1      23.185   0.025  53.079  1.00  0.00     0.033 A 
HETATM    3  C3  UNL     1      24.472   0.031  53.578  1.00  0.00     0.035 A 
HETATM    4  C4  UNL     1      25.487   0.818  53.059  1.00  0.00     0.072 A 
HETATM    5  N2  UNL     1      26.732   0.790  53.581  1.00  0.00    -0.241 NA
HETATM    6  C5  UNL     1      27.728   1.567  53.067  1.00  0.00     0.236 A 
HETATM    7  N3  UNL     1      27.471   2.389  52.009  1.00  0.00    -0.215 NA
HETATM    8  C6  UNL     1      26.214   2.415  51.485  1.00  0.00     0.205 A 
HETATM    9  C13 UNL     1      25.190   1.638  51.987  1.00  0.00     0.050 A 
HETATM   10  C14 UNL     1      23.920   1.688  51.430  1.00  0.00     0.048 A 
ENDROOT
BRANCH   8  11
HETATM   11  O1  UNL     1      25.920   3.243  50.406  1.00  0.00    -0.216 OA
BRANCH  11  12
HETATM   12  N4  UNL     1      26.790   3.456  49.369  1.00  0.00    -0.259 N 
HETATM   13  H5  UNL     1      27.280   2.651  48.927  1.00  0.00     0.195 HD
BRANCH  12  14
HETATM   14  C7  UNL     1      27.014   4.783  48.905  1.00  0.00     0.056 A 
HETATM   15  C8  UNL     1      28.288   5.076  48.455  1.00  0.00     0.031 A 
HETATM   16  C9  UNL     1      28.518   6.363  48.001  1.00  0.00     0.004 A 
HETATM   17  C10 UNL     1      27.502   7.307  48.006  1.00  0.00     0.019 A 
HETATM   18  C11 UNL     1      26.228   6.989  48.464  1.00  0.00     0.013 A 
HETATM   19 BR1  UNL     1      24.882   8.325  48.445  1.00  0.00    -0.051 Br
HETATM   20  C12 UNL     1      25.994   5.693  48.922  1.00  0.00     0.050 A 
ENDBRANCH  12  14
ENDBRANCH  11  12
ENDBRANCH   8  11
BRANCH   1  21
HETATM   21  N1  UNL     1      21.670   0.918  51.443  1.00  0.00    -0.299 N 
HETATM   22 CL1  UNL     1      21.286   0.838  49.769  1.00  0.00     0.011 Cl
HETATM   23  H1  UNL     1      20.796   1.005  51.986  1.00  0.00     0.180 HD
ENDBRANCH   1  21
TORSDOF 4
ENDMDL
MODEL 7
REMARK VINA RESULT:      -7.1      2.413      3.112
REMARK  4 active torsions:
REMARK  status: ('A' for Active; 'I' for Inactive)
REMARK    1  A    between atoms: N1_2  and  C1_3 
REMARK    2  A    between atoms: C6_10  and  O1_11 
REMARK    3  A    between atoms: O1_11  and  N4_12 
REMARK    4  A    between atoms: N4_12  and  C7_13 
ROOT
HETATM    1  C1  UNL     1      21.381  -0.310  53.468  1.00  0.00     0.044 A 
HETATM    2  C2  UNL     1      21.434  -1.075  54.615  1.00  0.00     0.033 A 
HETATM    3  C3  UNL     1      22.703  -1.278  55.118  1.00  0.00     0.035 A 
HETATM    4  C4  UNL     1      23.847  -0.761  54.530  1.00  0.00     0.072 A 
HETATM    5  N2  UNL     1      25.069  -0.986  55.059  1.00  0.00    -0.241 NA
HETATM    6  C5  UNL     1      26.191  -0.476  54.478  1.00  0.00     0.236 A 
HETATM    7  N3  UNL     1      26.088   0.276  53.344  1.00  0.00    -0.215 NA
HETATM    8  C6  UNL     1      24.854   0.501  52.814  1.00  0.00     0.205 A 
HETATM    9  C13 UNL     1      23.703  -0.005  53.383  1.00  0.00     0.050 A 
HETATM   10  C14 UNL     1      22.461   0.243  52.817  1.00  0.00     0.048 A 
ENDROOT
BRANCH   8  11
HETATM   11  O1  UNL     1      24.715   1.264  51.658  1.00  0.00    -0.216 OA
BRANCH  11  12
HETATM   12  N4  UNL     1      25.570   2.281  51.327  1.00  0.00    -0.259 N 
HETATM   13  H5  UNL     1      26.529   2.308  51.732  1.00  0.00     0.195 HD
BRANCH  12  14
HETATM   14  C7  UNL     1      25.136   3.296  50.428  1.00  0.00     0.056 A 
HETATM   15  C8  UNL     1      23.809   3.254  50.041  1.00  0.00     0.031 A 
HETATM   16  C9  UNL     1      23.374   4.236  49.166  1.00  0.00     0.004 A 
HETATM   17  C10 UNL     1      24.247   5.211  48.708  1.00  0.00     0.019 A 
HETATM   18  C11 UNL     1      25.577   5.233  49.111  1.00  0.00     0.013 A 
HETATM   19 BR1  UNL     1      26.720   6.593  48.448  1.00  0.00    -0.051 Br
HETATM   20  C12 UNL     1      26.018   4.244  49.992  1.00  0.00     0.050 A 
ENDBRANCH  12  14
ENDBRANCH  11  12
ENDBRANCH   8  11
BRANCH   1  21
HETATM   21  N1  UNL     1      20.103  -0.059  52.893  1.00  0.00    -0.299 N 
HETATM   22 CL1  UNL     1      18.669  -0.965  53.175  1.00  0.00     0.011 Cl
HETATM   23  H1  UNL     1      19.894   0.707  52.234  1.00  0.00     0.180 HD
ENDBRANCH   1  21
TORSDOF 4
ENDMDL
MODEL 8
REMARK VINA RESULT:      -7.1      3.009      5.336
REMARK  4 active torsions:
REMARK  status: ('A' for Active; 'I' for Inactive)
REMARK    1  A    between atoms: N1_2  and  C1_3 
REMARK    2  A    between atoms: C6_10  and  O1_11 
REMARK    3  A    between atoms: O1_11  and  N4_12 
REMARK    4  A    between atoms: N4_12  and  C7_13 
ROOT
HETATM    1  C1  UNL     1      25.197   2.273  51.051  1.00  0.00     0.044 A 
HETATM    2  C2  UNL     1      26.386   2.975  51.042  1.00  0.00     0.033 A 
HETATM    3  C3  UNL     1      27.328   2.529  51.947  1.00  0.00     0.035 A 
HETATM    4  C4  UNL     1      27.116   1.462  52.805  1.00  0.00     0.072 A 
HETATM    5  N2  UNL     1      28.069   1.061  53.674  1.00  0.00    -0.241 NA
HETATM    6  C5  UNL     1      27.855   0.011  54.517  1.00  0.00     0.236 A 
HETATM    7  N3  UNL     1      26.663  -0.653  54.488  1.00  0.00    -0.215 NA
HETATM    8  C6  UNL     1      25.705  -0.246  53.610  1.00  0.00     0.205 A 
HETATM    9  C13 UNL     1      25.896   0.815  52.747  1.00  0.00     0.050 A 
HETATM   10  C14 UNL     1      24.899   1.204  51.865  1.00  0.00     0.048 A 
ENDROOT
BRANCH   8  11
HETATM   11  O1  UNL     1      24.478  -0.902  53.555  1.00  0.00    -0.216 OA
BRANCH  11  12
HETATM   12  N4  UNL     1      23.490  -0.715  54.484  1.00  0.00    -0.259 N 
HETATM   13  H5  UNL     1      23.727  -0.670  55.497  1.00  0.00     0.195 HD
BRANCH  12  14
HETATM   14  C7  UNL     1      22.140  -0.583  54.052  1.00  0.00     0.056 A 
HETATM   15  C8  UNL     1      21.308  -1.664  54.278  1.00  0.00     0.031 A 
HETATM   16  C9  UNL     1      19.992  -1.549  53.861  1.00  0.00     0.004 A 
HETATM   17  C10 UNL     1      19.546  -0.390  53.244  1.00  0.00     0.019 A 
HETATM   18  C11 UNL     1      20.401   0.684  53.026  1.00  0.00     0.013 A 
HETATM   19 BR1  UNL     1      19.729   2.240  52.177  1.00  0.00    -0.051 Br
HETATM   20  C12 UNL     1      21.727   0.569  53.445  1.00  0.00     0.050 A 
ENDBRANCH  12  14
ENDBRANCH  11  12
ENDBRANCH   8  11
BRANCH   1  21
HETATM   21  N1  UNL     1      24.179   2.678  50.143  1.00  0.00    -0.299 N 
HETATM   22 CL1  UNL     1      22.622   1.967  49.981  1.00  0.00     0.011 Cl
HETATM   23  H1  UNL     1      24.266   3.457  49.471  1.00  0.00     0.180 HD
ENDBRANCH   1  21
TORSDOF 4
ENDMDL
MODEL 9
REMARK VINA RESULT:      -6.9      2.776      4.105
REMARK  4 active torsions:
REMARK  status: ('A' for Active; 'I' for Inactive)
REMARK    1  A    between atoms: N1_2  and  C1_3 
REMARK    2  A    between atoms: C6_10  and  O1_11 
REMARK    3  A    between atoms: O1_11  and  N4_12 
REMARK    4  A    between atoms: N4_12  and  C7_13 
ROOT
HETATM    1  C1  UNL     1      26.638   2.217  52.174  1.00  0.00     0.044 A 
HETATM    2  C2  UNL     1      27.701   2.026  53.034  1.00  0.00     0.033 A 
HETATM    3  C3  UNL     1      27.469   1.121  54.049  1.00  0.00     0.035 A 
HETATM    4  C4  UNL     1      26.269   0.446  54.210  1.00  0.00     0.072 A 
HETATM    5  N2  UNL     1      26.088  -0.431  55.220  1.00  0.00    -0.241 NA
HETATM    6  C5  UNL     1      24.905  -1.092  55.374  1.00  0.00     0.236 A 
HETATM    7  N3  UNL     1      23.883  -0.870  54.499  1.00  0.00    -0.215 NA
HETATM    8  C6  UNL     1      24.070   0.016  53.481  1.00  0.00     0.205 A 
HETATM    9  C13 UNL     1      25.256   0.697  53.304  1.00  0.00     0.050 A 
HETATM   10  C14 UNL     1      25.413   1.594  52.256  1.00  0.00     0.048 A 
ENDROOT
BRANCH   8  11
HETATM   11  O1  UNL     1      23.046   0.264  52.571  1.00  0.00    -0.216 OA
BRANCH  11  12
HETATM   12  N4  UNL     1      22.057   1.185  52.792  1.00  0.00    -0.259 N 
HETATM   13  H5  UNL     1      21.533   1.181  53.692  1.00  0.00     0.195 HD
BRANCH  12  14
HETATM   14  C7  UNL     1      21.754   2.142  51.783  1.00  0.00     0.056 A 
HETATM   15  C8  UNL     1      21.098   3.289  52.193  1.00  0.00     0.031 A 
HETATM   16  C9  UNL     1      20.797   4.228  51.221  1.00  0.00     0.004 A 
HETATM   17  C10 UNL     1      21.147   4.011  49.896  1.00  0.00     0.019 A 
HETATM   18  C11 UNL     1      21.806   2.849  49.508  1.00  0.00     0.013 A 
HETATM   19 BR1  UNL     1      22.255   2.612  47.681  1.00  0.00    -0.051 Br
HETATM   20  C12 UNL     1      22.109   1.902  50.486  1.00  0.00     0.050 A 
ENDBRANCH  12  14
ENDBRANCH  11  12
ENDBRANCH   8  11
BRANCH   1  21
HETATM   21  N1  UNL     1      26.806   3.138  51.102  1.00  0.00    -0.299 N 
HETATM   22 CL1  UNL     1      25.673   3.453  49.848  1.00  0.00     0.011 Cl
HETATM   23  H1  UNL     1      27.642   3.727  50.959  1.00  0.00     0.180 HD
ENDBRANCH   1  21
TORSDOF 4
ENDMDL
