MODEL 1
REMARK VINA RESULT:      -9.4      0.000      0.000
REMARK  4 active torsions:
REMARK  status: ('A' for Active; 'I' for Inactive)
REMARK    1  A    between atoms: S1_2  and  N1_4 
REMARK    2  A    between atoms: N1_4  and  C2_5 
REMARK    3  A    between atoms: C10_14  and  N3_15 
REMARK    4  A    between atoms: N3_15  and  C11_16 
ROOT
HETATM    1  C2  UNL     1      25.971   0.228  53.935  1.00  0.00     0.041 A 
HETATM    2  C3  UNL     1      26.322   1.080  52.897  1.00  0.00     0.033 A 
HETATM    3  C4  UNL     1      25.373   1.440  51.958  1.00  0.00     0.043 A 
HETATM    4  C5  UNL     1      24.101   0.928  52.098  1.00  0.00     0.115 A 
HETATM    5  C6  UNL     1      23.679   0.081  53.098  1.00  0.00    -0.002 A 
HETATM    6  C7  UNL     1      24.673  -0.258  54.028  1.00  0.00     0.041 A 
HETATM    7  C8  UNL     1      22.528  -0.658  53.616  1.00  0.00     0.161 C 
HETATM    8  N2  UNL     1      21.252  -0.165  53.257  1.00  0.00    -0.379 N 
HETATM    9  C9  UNL     1      20.561   0.250  52.076  1.00  0.00     0.131 A 
HETATM   10  C10 UNL     1      19.232  -0.069  52.239  1.00  0.00     0.160 A 
HETATM   11  N4  UNL     1      18.382   0.246  51.267  1.00  0.00    -0.222 NA
HETATM   12  C17 UNL     1      18.808   0.859  50.153  1.00  0.00     0.238 A 
HETATM   13  N5  UNL     1      20.093   1.186  49.953  1.00  0.00    -0.213 NA
HETATM   14  C18 UNL     1      20.992   0.889  50.909  1.00  0.00     0.232 A 
HETATM   15  O2  UNL     1      22.237   1.343  50.430  1.00  0.00    -0.169 OA
HETATM   16  O3  UNL     1      23.455   1.486  51.020  1.00  0.00    -0.190 OA
HETATM   17  H10 UNL     1      20.550  -0.029  54.050  1.00  0.00     0.160 HD
ENDROOT
BRANCH  10  18
HETATM   18  N3  UNL     1      18.785  -0.768  53.391  1.00  0.00    -0.339 N 
HETATM   19  H11 UNL     1      18.946  -0.768  54.416  1.00  0.00     0.167 HD
BRANCH  18  20
HETATM   20  C11 UNL     1      17.834  -1.839  53.282  1.00  0.00     0.035 A 
HETATM   21  C12 UNL     1      17.932  -3.144  53.785  1.00  0.00     0.029 A 
HETATM   22  C13 UNL     1      16.939  -4.082  53.634  1.00  0.00     0.004 A 
HETATM   23  C14 UNL     1      15.779  -3.767  52.965  1.00  0.00     0.019 A 
HETATM   24  C15 UNL     1      15.662  -2.471  52.456  1.00  0.00     0.013 A 
HETATM   25 BR1  UNL     1      13.984  -2.200  51.553  1.00  0.00    -0.051 Br
HETATM   26  C16 UNL     1      16.653  -1.550  52.612  1.00  0.00     0.048 A 
ENDBRANCH  18  20
ENDBRANCH  10  18
BRANCH   1  27
HETATM   27  N1  UNL     1      26.924  -0.172  54.932  1.00  0.00    -0.306 N 
HETATM   28  H4  UNL     1      26.538  -0.668  55.788  1.00  0.00     0.176 HD
BRANCH  27  29
HETATM   29  S1  UNL     1      28.633   0.086  54.855  1.00  0.00     0.110 S 
HETATM   30  C1  UNL     1      29.367  -0.789  53.467  1.00  0.00     0.152 C 
HETATM   31  O1  UNL     1      28.898   1.579  54.764  1.00  0.00    -0.236 OA
ENDBRANCH  27  29
ENDBRANCH   1  27
TORSDOF 4
ENDMDL
MODEL 2
REMARK VINA RESULT:      -9.3      5.209      7.839
REMARK  4 active torsions:
REMARK  status: ('A' for Active; 'I' for Inactive)
REMARK    1  A    between atoms: S1_2  and  N1_4 
REMARK    2  A    between atoms: N1_4  and  C2_5 
REMARK    3  A    between atoms: C10_14  and  N3_15 
REMARK    4  A    between atoms: N3_15  and  C11_16 
ROOT
HETATM    1  C2  UNL     1      26.251   0.119  54.306  1.00  0.00     0.041 A 
HETATM    2  C3  UNL     1      25.369  -0.874  53.899  1.00  0.00     0.033 A 
HETATM    3  C4  UNL     1      24.187  -0.522  53.275  1.00  0.00     0.043 A 
HETATM    4  C5  UNL     1      23.933   0.819  53.082  1.00  0.00     0.115 A 
HETATM    5  C6  UNL     1      24.757   1.857  53.456  1.00  0.00    -0.002 A 
HETATM    6  C7  UNL     1      25.945   1.456  54.085  1.00  0.00     0.041 A 
HETATM    7  C8  UNL     1      24.900   3.312  53.459  1.00  0.00     0.161 C 
HETATM    8  N2  UNL     1      24.171   4.017  52.474  1.00  0.00    -0.379 N 
HETATM    9  C9  UNL     1      22.836   4.064  51.963  1.00  0.00     0.131 A 
HETATM   10  C10 UNL     1      22.587   5.361  51.573  1.00  0.00     0.160 A 
HETATM   11  N4  UNL     1      21.403   5.646  51.040  1.00  0.00    -0.222 NA
HETATM   12  C17 UNL     1      20.471   4.692  50.888  1.00  0.00     0.238 A 
HETATM   13  N5  UNL     1      20.671   3.418  51.255  1.00  0.00    -0.213 NA
HETATM   14  C18 UNL     1      21.856   3.081  51.799  1.00  0.00     0.232 A 
HETATM   15  O2  UNL     1      21.778   1.703  52.081  1.00  0.00    -0.169 OA
HETATM   16  O3  UNL     1      22.710   0.784  52.454  1.00  0.00    -0.190 OA
HETATM   17  H10 UNL     1      24.713   4.734  51.896  1.00  0.00     0.160 HD
ENDROOT
BRANCH  10  18
HETATM   18  N3  UNL     1      23.548   6.385  51.783  1.00  0.00    -0.339 N 
HETATM   19  H11 UNL     1      24.004   6.876  52.575  1.00  0.00     0.167 HD
BRANCH  18  20
HETATM   20  C11 UNL     1      24.162   7.061  50.674  1.00  0.00     0.035 A 
HETATM   21  C12 UNL     1      23.743   8.233  50.030  1.00  0.00     0.029 A 
HETATM   22  C13 UNL     1      24.431   8.801  48.984  1.00  0.00     0.004 A 
HETATM   23  C14 UNL     1      25.589   8.224  48.518  1.00  0.00     0.019 A 
HETATM   24  C15 UNL     1      26.024   7.054  49.148  1.00  0.00     0.013 A 
HETATM   25 BR1  UNL     1      27.654   6.383  48.374  1.00  0.00    -0.051 Br
HETATM   26  C16 UNL     1      25.334   6.502  50.183  1.00  0.00     0.048 A 
ENDBRANCH  18  20
ENDBRANCH  10  18
BRANCH   1  27
HETATM   27  N1  UNL     1      27.490  -0.200  54.958  1.00  0.00    -0.306 N 
HETATM   28  H4  UNL     1      27.427  -0.536  55.964  1.00  0.00     0.176 HD
BRANCH  27  29
HETATM   29  S1  UNL     1      29.063  -0.082  54.248  1.00  0.00     0.110 S 
HETATM   30  C1  UNL     1      29.508  -1.595  53.383  1.00  0.00     0.152 C 
HETATM   31  O1  UNL     1      29.088   1.112  53.311  1.00  0.00    -0.236 OA
ENDBRANCH  27  29
ENDBRANCH   1  27
TORSDOF 4
ENDMDL
MODEL 3
REMARK VINA RESULT:      -9.2      5.724      8.638
REMARK  4 active torsions:
REMARK  status: ('A' for Active; 'I' for Inactive)
REMARK    1  A    between atoms: S1_2  and  N1_4 
REMARK    2  A    between atoms: N1_4  and  C2_5 
REMARK    3  A    between atoms: C10_14  and  N3_15 
REMARK    4  A    between atoms: N3_15  and  C11_16 
ROOT
HETATM    1  C2  UNL     1      24.990  -0.132  53.525  1.00  0.00     0.041 A 
HETATM    2  C3  UNL     1      23.753  -0.674  53.202  1.00  0.00     0.033 A 
HETATM    3  C4  UNL     1      22.756   0.146  52.708  1.00  0.00     0.043 A 
HETATM    4  C5  UNL     1      23.040   1.486  52.556  1.00  0.00     0.115 A 
HETATM    5  C6  UNL     1      24.239   2.095  52.854  1.00  0.00    -0.002 A 
HETATM    6  C7  UNL     1      25.221   1.227  53.352  1.00  0.00     0.041 A 
HETATM    7  C8  UNL     1      24.948   3.374  52.858  1.00  0.00     0.161 C 
HETATM    8  N2  UNL     1      24.473   4.359  51.960  1.00  0.00    -0.379 N 
HETATM    9  C9  UNL     1      23.226   4.954  51.592  1.00  0.00     0.131 A 
HETATM   10  C10 UNL     1      23.479   6.262  51.243  1.00  0.00     0.160 A 
HETATM   11  N4  UNL     1      22.462   7.017  50.840  1.00  0.00    -0.222 NA
HETATM   12  C17 UNL     1      21.218   6.517  50.774  1.00  0.00     0.238 A 
HETATM   13  N5  UNL     1      20.928   5.251  51.106  1.00  0.00    -0.213 NA
HETATM   14  C18 UNL     1      21.925   4.447  51.520  1.00  0.00     0.232 A 
HETATM   15  O2  UNL     1      21.332   3.198  51.794  1.00  0.00    -0.169 OA
HETATM   16  O3  UNL     1      21.852   1.969  52.058  1.00  0.00    -0.190 OA
HETATM   17  H10 UNL     1      25.200   4.832  51.337  1.00  0.00     0.160 HD
ENDROOT
BRANCH  10  18
HETATM   18  N3  UNL     1      24.782   6.812  51.364  1.00  0.00    -0.339 N 
HETATM   19  H11 UNL     1      25.439   7.106  52.111  1.00  0.00     0.167 HD
BRANCH  18  20
HETATM   20  C11 UNL     1      25.560   7.131  50.198  1.00  0.00     0.035 A 
HETATM   21  C12 UNL     1      26.178   6.253  49.298  1.00  0.00     0.029 A 
HETATM   22  C13 UNL     1      26.884   6.681  48.199  1.00  0.00     0.004 A 
HETATM   23  C14 UNL     1      27.013   8.025  47.934  1.00  0.00     0.019 A 
HETATM   24  C15 UNL     1      26.402   8.917  48.820  1.00  0.00     0.013 A 
HETATM   25 BR1  UNL     1      26.679  10.750  48.303  1.00  0.00    -0.051 Br
HETATM   26  C16 UNL     1      25.705   8.480  49.906  1.00  0.00     0.048 A 
ENDBRANCH  18  20
ENDBRANCH  10  18
BRANCH   1  27
HETATM   27  N1  UNL     1      26.054  -0.946  54.042  1.00  0.00    -0.306 N 
HETATM   28  H4  UNL     1      25.809  -1.599  54.843  1.00  0.00     0.176 HD
BRANCH  27  29
HETATM   29  S1  UNL     1      27.687  -0.951  53.472  1.00  0.00     0.110 S 
HETATM   30  C1  UNL     1      28.777  -0.062  54.593  1.00  0.00     0.152 C 
HETATM   31  O1  UNL     1      28.139  -2.390  53.295  1.00  0.00    -0.236 OA
ENDBRANCH  27  29
ENDBRANCH   1  27
TORSDOF 4
ENDMDL
MODEL 4
REMARK VINA RESULT:      -9.2      6.082      8.021
REMARK  4 active torsions:
REMARK  status: ('A' for Active; 'I' for Inactive)
REMARK    1  A    between atoms: S1_2  and  N1_4 
REMARK    2  A    between atoms: N1_4  and  C2_5 
REMARK    3  A    between atoms: C10_14  and  N3_15 
REMARK    4  A    between atoms: N3_15  and  C11_16 
ROOT
HETATM    1  C2  UNL     1      28.350   6.688  48.157  1.00  0.00     0.041 A 
HETATM    2  C3  UNL     1      27.856   7.923  48.554  1.00  0.00     0.033 A 
HETATM    3  C4  UNL     1      26.684   7.986  49.284  1.00  0.00     0.043 A 
HETATM    4  C5  UNL     1      26.049   6.801  49.589  1.00  0.00     0.115 A 
HETATM    5  C6  UNL     1      26.477   5.542  49.231  1.00  0.00    -0.002 A 
HETATM    6  C7  UNL     1      27.669   5.524  48.492  1.00  0.00     0.041 A 
HETATM    7  C8  UNL     1      26.165   4.117  49.319  1.00  0.00     0.161 C 
HETATM    8  N2  UNL     1      25.346   3.719  50.401  1.00  0.00    -0.379 N 
HETATM    9  C9  UNL     1      24.112   4.113  51.007  1.00  0.00     0.131 A 
HETATM   10  C10 UNL     1      23.513   2.977  51.505  1.00  0.00     0.160 A 
HETATM   11  N4  UNL     1      22.351   3.101  52.139  1.00  0.00    -0.222 NA
HETATM   12  C17 UNL     1      21.775   4.303  52.290  1.00  0.00     0.238 A 
HETATM   13  N5  UNL     1      22.323   5.433  51.820  1.00  0.00    -0.213 NA
HETATM   14  C18 UNL     1      23.500   5.359  51.171  1.00  0.00     0.232 A 
HETATM   15  O2  UNL     1      23.824   6.679  50.800  1.00  0.00    -0.169 OA
HETATM   16  O3  UNL     1      24.956   7.243  50.298  1.00  0.00    -0.190 OA
HETATM   17  H10 UNL     1      25.691   2.895  50.988  1.00  0.00     0.160 HD
ENDROOT
BRANCH  10  18
HETATM   18  N3  UNL     1      24.090   1.697  51.299  1.00  0.00    -0.339 N 
HETATM   19  H11 UNL     1      24.299   1.052  50.514  1.00  0.00     0.167 HD
BRANCH  18  20
HETATM   20  C11 UNL     1      24.567   0.915  52.406  1.00  0.00     0.035 A 
HETATM   21  C12 UNL     1      23.862  -0.017  53.180  1.00  0.00     0.029 A 
HETATM   22  C13 UNL     1      24.436  -0.725  54.209  1.00  0.00     0.004 A 
HETATM   23  C14 UNL     1      25.762  -0.540  54.526  1.00  0.00     0.019 A 
HETATM   24  C15 UNL     1      26.482   0.385  53.765  1.00  0.00     0.013 A 
HETATM   25 BR1  UNL     1      28.315   0.519  54.339  1.00  0.00    -0.051 Br
HETATM   26  C16 UNL     1      25.902   1.080  52.748  1.00  0.00     0.048 A 
ENDBRANCH  18  20
ENDBRANCH  10  18
BRANCH   1  27
HETATM   27  N1  UNL     1      29.564   6.575  47.398  1.00  0.00    -0.306 N 
HETATM   28  H4  UNL     1      29.469   6.602  46.340  1.00  0.00     0.176 HD
BRANCH  27  29
HETATM   29  S1  UNL     1      31.153   6.398  48.057  1.00  0.00     0.110 S 
HETATM   30  C1  UNL     1      31.572   7.770  49.141  1.00  0.00     0.152 C 
HETATM   31  O1  UNL     1      31.231   5.073  48.796  1.00  0.00    -0.236 OA
ENDBRANCH  27  29
ENDBRANCH   1  27
TORSDOF 4
ENDMDL
MODEL 5
REMARK VINA RESULT:      -9.1      5.153      9.624
REMARK  4 active torsions:
REMARK  status: ('A' for Active; 'I' for Inactive)
REMARK    1  A    between atoms: S1_2  and  N1_4 
REMARK    2  A    between atoms: N1_4  and  C2_5 
REMARK    3  A    between atoms: C10_14  and  N3_15 
REMARK    4  A    between atoms: N3_15  and  C11_16 
ROOT
HETATM    1  C2  UNL     1      19.225  -0.297  52.193  1.00  0.00     0.041 A 
HETATM    2  C3  UNL     1      19.554  -0.860  53.419  1.00  0.00     0.033 A 
HETATM    3  C4  UNL     1      20.852  -0.768  53.886  1.00  0.00     0.043 A 
HETATM    4  C5  UNL     1      21.775  -0.112  53.100  1.00  0.00     0.115 A 
HETATM    5  C6  UNL     1      21.524   0.469  51.877  1.00  0.00    -0.002 A 
HETATM    6  C7  UNL     1      20.196   0.353  51.442  1.00  0.00     0.041 A 
HETATM    7  C8  UNL     1      22.130   1.212  50.773  1.00  0.00     0.161 C 
HETATM    8  N2  UNL     1      23.297   1.951  51.079  1.00  0.00    -0.379 N 
HETATM    9  C9  UNL     1      24.548   1.744  51.739  1.00  0.00     0.131 A 
HETATM   10  C10 UNL     1      25.486   2.531  51.107  1.00  0.00     0.160 A 
HETATM   11  N4  UNL     1      26.733   2.521  51.566  1.00  0.00    -0.222 NA
HETATM   12  C17 UNL     1      27.072   1.763  52.619  1.00  0.00     0.238 A 
HETATM   13  N5  UNL     1      26.192   0.982  53.263  1.00  0.00    -0.213 NA
HETATM   14  C18 UNL     1      24.916   0.958  52.835  1.00  0.00     0.232 A 
HETATM   15  O2  UNL     1      24.235   0.066  53.687  1.00  0.00    -0.169 OA
HETATM   16  O3  UNL     1      22.916  -0.216  53.861  1.00  0.00    -0.190 OA
HETATM   17  H10 UNL     1      23.316   2.971  50.763  1.00  0.00     0.160 HD
ENDROOT
BRANCH  10  18
HETATM   18  N3  UNL     1      25.145   3.292  49.958  1.00  0.00    -0.339 N 
HETATM   19  H11 UNL     1      24.412   3.313  49.225  1.00  0.00     0.167 HD
BRANCH  18  20
HETATM   20  C11 UNL     1      25.966   4.391  49.530  1.00  0.00     0.035 A 
HETATM   21  C12 UNL     1      27.193   4.349  48.856  1.00  0.00     0.029 A 
HETATM   22  C13 UNL     1      27.880   5.478  48.478  1.00  0.00     0.004 A 
HETATM   23  C14 UNL     1      27.373   6.727  48.755  1.00  0.00     0.019 A 
HETATM   24  C15 UNL     1      26.149   6.789  49.426  1.00  0.00     0.013 A 
HETATM   25 BR1  UNL     1      25.587   8.605  49.731  1.00  0.00    -0.051 Br
HETATM   26  C16 UNL     1      25.478   5.664  49.795  1.00  0.00     0.048 A 
ENDBRANCH  18  20
ENDBRANCH  10  18
BRANCH   1  27
HETATM   27  N1  UNL     1      17.889  -0.369  51.670  1.00  0.00    -0.306 N 
HETATM   28  H4  UNL     1      17.782  -0.248  50.620  1.00  0.00     0.176 HD
BRANCH  27  29
HETATM   29  S1  UNL     1      16.455  -0.632  52.599  1.00  0.00     0.110 S 
HETATM   30  C1  UNL     1      15.290   0.724  52.409  1.00  0.00     0.152 C 
HETATM   31  O1  UNL     1      15.833  -1.952  52.176  1.00  0.00    -0.236 OA
ENDBRANCH  27  29
ENDBRANCH   1  27
TORSDOF 4
ENDMDL
MODEL 6
REMARK VINA RESULT:      -9.1      6.360      9.582
REMARK  4 active torsions:
REMARK  status: ('A' for Active; 'I' for Inactive)
REMARK    1  A    between atoms: S1_2  and  N1_4 
REMARK    2  A    between atoms: N1_4  and  C2_5 
REMARK    3  A    between atoms: C10_14  and  N3_15 
REMARK    4  A    between atoms: N3_15  and  C11_16 
ROOT
HETATM    1  C2  UNL     1      25.995  -0.431  52.914  1.00  0.00     0.041 A 
HETATM    2  C3  UNL     1      24.795  -0.333  53.607  1.00  0.00     0.033 A 
HETATM    3  C4  UNL     1      24.020   0.803  53.471  1.00  0.00     0.043 A 
HETATM    4  C5  UNL     1      24.481   1.803  52.642  1.00  0.00     0.115 A 
HETATM    5  C6  UNL     1      25.656   1.778  51.924  1.00  0.00    -0.002 A 
HETATM    6  C7  UNL     1      26.411   0.607  52.091  1.00  0.00     0.041 A 
HETATM    7  C8  UNL     1      26.491   2.535  50.993  1.00  0.00     0.161 C 
HETATM    8  N2  UNL     1      25.831   3.509  50.208  1.00  0.00    -0.379 N 
HETATM    9  C9  UNL     1      24.913   4.589  50.397  1.00  0.00     0.131 A 
HETATM   10  C10 UNL     1      25.208   5.553  49.458  1.00  0.00     0.160 A 
HETATM   11  N4  UNL     1      24.464   6.653  49.425  1.00  0.00    -0.222 NA
HETATM   12  C17 UNL     1      23.450   6.823  50.287  1.00  0.00     0.238 A 
HETATM   13  N5  UNL     1      23.129   5.911  51.217  1.00  0.00    -0.213 NA
HETATM   14  C18 UNL     1      23.854   4.779  51.289  1.00  0.00     0.232 A 
HETATM   15  O2  UNL     1      23.297   4.025  52.341  1.00  0.00    -0.169 OA
HETATM   16  O3  UNL     1      23.481   2.741  52.752  1.00  0.00    -0.190 OA
HETATM   17  H10 UNL     1      26.018   3.486  49.157  1.00  0.00     0.160 HD
ENDROOT
BRANCH  10  18
HETATM   18  N3  UNL     1      26.314   5.403  48.581  1.00  0.00    -0.339 N 
HETATM   19  H11 UNL     1      26.650   4.746  47.852  1.00  0.00     0.167 HD
BRANCH  18  20
HETATM   20  C11 UNL     1      27.393   6.353  48.584  1.00  0.00     0.035 A 
HETATM   21  C12 UNL     1      27.358   7.708  48.940  1.00  0.00     0.029 A 
HETATM   22  C13 UNL     1      28.469   8.517  48.923  1.00  0.00     0.004 A 
HETATM   23  C14 UNL     1      29.692   8.012  48.545  1.00  0.00     0.019 A 
HETATM   24  C15 UNL     1      29.748   6.662  48.188  1.00  0.00     0.013 A 
HETATM   25 BR1  UNL     1      31.527   6.121  47.690  1.00  0.00    -0.051 Br
HETATM   26  C16 UNL     1      28.640   5.871  48.209  1.00  0.00     0.048 A 
ENDBRANCH  18  20
ENDBRANCH  10  18
BRANCH   1  27
HETATM   27  N1  UNL     1      26.832  -1.593  53.026  1.00  0.00    -0.306 N 
HETATM   28  H4  UNL     1      26.340  -2.532  53.078  1.00  0.00     0.176 HD
BRANCH  27  29
HETATM   29  S1  UNL     1      28.561  -1.588  53.083  1.00  0.00     0.110 S 
HETATM   30  C1  UNL     1      29.177  -0.355  54.237  1.00  0.00     0.152 C 
HETATM   31  O1  UNL     1      29.042  -2.979  53.459  1.00  0.00    -0.236 OA
ENDBRANCH  27  29
ENDBRANCH   1  27
TORSDOF 4
ENDMDL
MODEL 7
REMARK VINA RESULT:      -9.0      5.780      7.642
REMARK  4 active torsions:
REMARK  status: ('A' for Active; 'I' for Inactive)
REMARK    1  A    between atoms: S1_2  and  N1_4 
REMARK    2  A    between atoms: N1_4  and  C2_5 
REMARK    3  A    between atoms: C10_14  and  N3_15 
REMARK    4  A    between atoms: N3_15  and  C11_16 
ROOT
HETATM    1  C2  UNL     1      28.776   6.773  48.109  1.00  0.00     0.041 A 
HETATM    2  C3  UNL     1      28.327   8.027  48.500  1.00  0.00     0.033 A 
HETATM    3  C4  UNL     1      27.135   8.141  49.191  1.00  0.00     0.043 A 
HETATM    4  C5  UNL     1      26.437   6.985  49.465  1.00  0.00     0.115 A 
HETATM    5  C6  UNL     1      26.817   5.709  49.111  1.00  0.00    -0.002 A 
HETATM    6  C7  UNL     1      28.031   5.641  48.412  1.00  0.00     0.041 A 
HETATM    7  C8  UNL     1      26.436   4.300  49.178  1.00  0.00     0.161 C 
HETATM    8  N2  UNL     1      25.564   3.933  50.229  1.00  0.00    -0.379 N 
HETATM    9  C9  UNL     1      24.330   4.381  50.797  1.00  0.00     0.131 A 
HETATM   10  C10 UNL     1      23.663   3.271  51.266  1.00  0.00     0.160 A 
HETATM   11  N4  UNL     1      22.487   3.445  51.862  1.00  0.00    -0.222 NA
HETATM   12  C17 UNL     1      21.963   4.672  52.003  1.00  0.00     0.238 A 
HETATM   13  N5  UNL     1      22.579   5.778  51.561  1.00  0.00    -0.213 NA
HETATM   14  C18 UNL     1      23.772   5.654  50.951  1.00  0.00     0.232 A 
HETATM   15  O2  UNL     1      24.170   6.959  50.601  1.00  0.00    -0.169 OA
HETATM   16  O3  UNL     1      25.343   7.473  50.141  1.00  0.00    -0.190 OA
HETATM   17  H10 UNL     1      25.851   3.091  50.821  1.00  0.00     0.160 HD
ENDROOT
BRANCH  10  18
HETATM   18  N3  UNL     1      24.186   1.967  51.069  1.00  0.00    -0.339 N 
HETATM   19  H11 UNL     1      24.501   1.362  50.287  1.00  0.00     0.167 HD
BRANCH  18  20
HETATM   20  C11 UNL     1      24.391   1.078  52.179  1.00  0.00     0.035 A 
HETATM   21  C12 UNL     1      25.590   0.765  52.833  1.00  0.00     0.029 A 
HETATM   22  C13 UNL     1      25.657  -0.092  53.906  1.00  0.00     0.004 A 
HETATM   23  C14 UNL     1      24.518  -0.691  54.391  1.00  0.00     0.019 A 
HETATM   24  C15 UNL     1      23.312  -0.391  53.752  1.00  0.00     0.013 A 
HETATM   25 BR1  UNL     1      21.823  -1.310  54.555  1.00  0.00    -0.051 Br
HETATM   26  C16 UNL     1      23.258   0.459  52.690  1.00  0.00     0.048 A 
ENDBRANCH  18  20
ENDBRANCH  10  18
BRANCH   1  27
HETATM   27  N1  UNL     1      30.008   6.608  47.389  1.00  0.00    -0.306 N 
HETATM   28  H4  UNL     1      29.966   6.739  46.336  1.00  0.00     0.176 HD
BRANCH  27  29
HETATM   29  S1  UNL     1      31.541   6.216  48.090  1.00  0.00     0.110 S 
HETATM   30  C1  UNL     1      31.835   7.155  49.595  1.00  0.00     0.152 C 
HETATM   31  O1  UNL     1      31.588   4.722  48.358  1.00  0.00    -0.236 OA
ENDBRANCH  27  29
ENDBRANCH   1  27
TORSDOF 4
ENDMDL
MODEL 8
REMARK VINA RESULT:      -8.8      4.426      6.047
REMARK  4 active torsions:
REMARK  status: ('A' for Active; 'I' for Inactive)
REMARK    1  A    between atoms: S1_2  and  N1_4 
REMARK    2  A    between atoms: N1_4  and  C2_5 
REMARK    3  A    between atoms: C10_14  and  N3_15 
REMARK    4  A    between atoms: N3_15  and  C11_16 
ROOT
HETATM    1  C2  UNL     1      25.704   6.032  48.895  1.00  0.00     0.041 A 
HETATM    2  C3  UNL     1      26.895   5.374  48.618  1.00  0.00     0.033 A 
HETATM    3  C4  UNL     1      27.163   4.161  49.224  1.00  0.00     0.043 A 
HETATM    4  C5  UNL     1      26.219   3.652  50.090  1.00  0.00     0.115 A 
HETATM    5  C6  UNL     1      25.018   4.244  50.413  1.00  0.00    -0.002 A 
HETATM    6  C7  UNL     1      24.788   5.472  49.775  1.00  0.00     0.041 A 
HETATM    7  C8  UNL     1      23.801   4.094  51.210  1.00  0.00     0.161 C 
HETATM    8  N2  UNL     1      23.444   2.773  51.570  1.00  0.00    -0.379 N 
HETATM    9  C9  UNL     1      24.064   1.619  52.143  1.00  0.00     0.131 A 
HETATM   10  C10 UNL     1      23.105   0.957  52.878  1.00  0.00     0.160 A 
HETATM   11  N4  UNL     1      23.447  -0.171  53.493  1.00  0.00    -0.222 NA
HETATM   12  C17 UNL     1      24.696  -0.652  53.401  1.00  0.00     0.238 A 
HETATM   13  N5  UNL     1      25.659  -0.039  52.698  1.00  0.00    -0.213 NA
HETATM   14  C18 UNL     1      25.361   1.107  52.057  1.00  0.00     0.232 A 
HETATM   15  O2  UNL     1      26.548   1.515  51.415  1.00  0.00    -0.169 OA
HETATM   16  O3  UNL     1      26.809   2.474  50.486  1.00  0.00    -0.190 OA
HETATM   17  H10 UNL     1      22.436   2.479  51.377  1.00  0.00     0.160 HD
ENDROOT
BRANCH  10  18
HETATM   18  N3  UNL     1      21.799   1.491  53.024  1.00  0.00    -0.339 N 
HETATM   19  H11 UNL     1      21.346   2.401  53.233  1.00  0.00     0.167 HD
BRANCH  18  20
HETATM   20  C11 UNL     1      20.639   0.653  52.891  1.00  0.00     0.035 A 
HETATM   21  C12 UNL     1      20.183  -0.345  53.762  1.00  0.00     0.029 A 
HETATM   22  C13 UNL     1      19.038  -1.072  53.536  1.00  0.00     0.004 A 
HETATM   23  C14 UNL     1      18.276  -0.840  52.414  1.00  0.00     0.019 A 
HETATM   24  C15 UNL     1      18.715   0.153  51.533  1.00  0.00     0.013 A 
HETATM   25 BR1  UNL     1      17.536   0.348  50.023  1.00  0.00    -0.051 Br
HETATM   26  C16 UNL     1      19.850   0.866  51.769  1.00  0.00     0.048 A 
ENDBRANCH  18  20
ENDBRANCH  10  18
BRANCH   1  27
HETATM   27  N1  UNL     1      25.385   7.294  48.287  1.00  0.00    -0.306 N 
HETATM   28  H4  UNL     1      24.487   7.338  47.723  1.00  0.00     0.176 HD
BRANCH  27  29
HETATM   29  S1  UNL     1      26.337   8.734  48.396  1.00  0.00     0.110 S 
HETATM   30  C1  UNL     1      27.023   8.946  50.045  1.00  0.00     0.152 C 
HETATM   31  O1  UNL     1      27.435   8.675  47.349  1.00  0.00    -0.236 OA
ENDBRANCH  27  29
ENDBRANCH   1  27
TORSDOF 4
ENDMDL
MODEL 9
REMARK VINA RESULT:      -8.8      7.187      9.312
REMARK  4 active torsions:
REMARK  status: ('A' for Active; 'I' for Inactive)
REMARK    1  A    between atoms: S1_2  and  N1_4 
REMARK    2  A    between atoms: N1_4  and  C2_5 
REMARK    3  A    between atoms: C10_14  and  N3_15 
REMARK    4  A    between atoms: N3_15  and  C11_16 
ROOT
HETATM    1  C2  UNL     1      30.043   7.434  47.549  1.00  0.00     0.041 A 
HETATM    2  C3  UNL     1      29.676   8.699  47.986  1.00  0.00     0.033 A 
HETATM    3  C4  UNL     1      28.505   8.861  48.703  1.00  0.00     0.043 A 
HETATM    4  C5  UNL     1      27.743   7.740  48.955  1.00  0.00     0.115 A 
HETATM    5  C6  UNL     1      28.042   6.456  48.556  1.00  0.00    -0.002 A 
HETATM    6  C7  UNL     1      29.237   6.338  47.832  1.00  0.00     0.041 A 
HETATM    7  C8  UNL     1      27.579   5.070  48.588  1.00  0.00     0.161 C 
HETATM    8  N2  UNL     1      26.704   4.723  49.644  1.00  0.00    -0.379 N 
HETATM    9  C9  UNL     1      25.509   5.225  50.248  1.00  0.00     0.131 A 
HETATM   10  C10 UNL     1      24.785   4.142  50.695  1.00  0.00     0.160 A 
HETATM   11  N4  UNL     1      23.633   4.366  51.319  1.00  0.00    -0.222 NA
HETATM   12  C17 UNL     1      23.185   5.616  51.507  1.00  0.00     0.238 A 
HETATM   13  N5  UNL     1      23.857   6.698  51.087  1.00  0.00    -0.213 NA
HETATM   14  C18 UNL     1      25.030   6.523  50.451  1.00  0.00     0.232 A 
HETATM   15  O2  UNL     1      25.499   7.813  50.133  1.00  0.00    -0.169 OA
HETATM   16  O3  UNL     1      26.692   8.271  49.667  1.00  0.00    -0.190 OA
HETATM   17  H10 UNL     1      26.950   3.848  50.204  1.00  0.00     0.160 HD
ENDROOT
BRANCH  10  18
HETATM   18  N3  UNL     1      25.227   2.816  50.449  1.00  0.00    -0.339 N 
HETATM   19  H11 UNL     1      25.462   2.209  49.642  1.00  0.00     0.167 HD
BRANCH  18  20
HETATM   20  C11 UNL     1      25.449   1.898  51.532  1.00  0.00     0.035 A 
HETATM   21  C12 UNL     1      24.515   1.085  52.188  1.00  0.00     0.029 A 
HETATM   22  C13 UNL     1      24.854   0.225  53.205  1.00  0.00     0.004 A 
HETATM   23  C14 UNL     1      26.159   0.128  53.630  1.00  0.00     0.019 A 
HETATM   24  C15 UNL     1      27.105   0.931  52.988  1.00  0.00     0.013 A 
HETATM   25 BR1  UNL     1      28.874   0.671  53.702  1.00  0.00    -0.051 Br
HETATM   26  C16 UNL     1      26.757   1.779  51.981  1.00  0.00     0.048 A 
ENDBRANCH  18  20
ENDBRANCH  10  18
BRANCH   1  27
HETATM   27  N1  UNL     1      31.251   7.219  46.802  1.00  0.00    -0.306 N 
HETATM   28  H4  UNL     1      31.189   7.350  45.750  1.00  0.00     0.176 HD
BRANCH  27  29
HETATM   29  S1  UNL     1      32.782   6.769  47.468  1.00  0.00     0.110 S 
HETATM   30  C1  UNL     1      32.730   5.119  48.180  1.00  0.00     0.152 C 
HETATM   31  O1  UNL     1      33.836   6.862  46.378  1.00  0.00    -0.236 OA
ENDBRANCH  27  29
ENDBRANCH   1  27
TORSDOF 4
ENDMDL
