MODEL 1
REMARK VINA RESULT:      -8.9      0.000      0.000
REMARK  4 active torsions:
REMARK  status: ('A' for Active; 'I' for Inactive)
REMARK    1  A    between atoms: O1_2  and  C2_3 
REMARK    2  A    between atoms: C5_6  and  N1_7 
REMARK    3  A    between atoms: N3_12  and  C9_13 
REMARK    4  A    between atoms: N5_22  and  C17_23 
ROOT
HETATM    1  N1  UNL     1      24.777   3.091  51.470  1.00  0.00    -0.295 N 
HETATM    2  C6  UNL     1      23.549   3.606  51.990  1.00  0.00     0.178 C 
HETATM    3  C7  UNL     1      22.624   2.506  52.377  1.00  0.00     0.023 C 
HETATM    4  C8  UNL     1      21.338   2.811  52.294  1.00  0.00     0.120 C 
HETATM    5  N2  UNL     1      20.164   2.020  52.581  1.00  0.00    -0.307 N 
HETATM    6  N3  UNL     1      20.105   0.682  53.052  1.00  0.00    -0.273 N 
HETATM    7  C15 UNL     1      21.122   0.128  53.876  1.00  0.00     0.300 C 
HETATM    8  N4  UNL     1      22.468   0.240  53.419  1.00  0.00    -0.250 NA
HETATM    9  C16 UNL     1      23.082   1.193  52.815  1.00  0.00     0.140 C 
HETATM   10  N5  UNL     1      24.447   0.829  52.562  1.00  0.00    -0.279 N 
HETATM   11  C20 UNL     1      25.262   1.801  51.890  1.00  0.00     0.331 C 
HETATM   12  O2  UNL     1      26.464   1.569  51.629  1.00  0.00    -0.246 OA
HETATM   13  H9  UNL     1      19.275   2.550  52.401  1.00  0.00     0.186 HD
ENDROOT
BRANCH   1  14
HETATM   14  C5  UNL     1      25.541   3.859  50.521  1.00  0.00     0.039 A 
HETATM   15  C4  UNL     1      25.076   5.149  50.421  1.00  0.00     0.032 A 
HETATM   16  C3  UNL     1      25.677   6.048  49.562  1.00  0.00     0.039 A 
HETATM   17  C2  UNL     1      26.753   5.645  48.798  1.00  0.00     0.068 A 
HETATM   18  C22 UNL     1      27.216   4.334  48.908  1.00  0.00     0.039 A 
HETATM   19  C21 UNL     1      26.606   3.445  49.771  1.00  0.00     0.032 A 
BRANCH  17  20
HETATM   20  O1  UNL     1      27.499   6.372  47.881  1.00  0.00    -0.356 OA
HETATM   21  C1  UNL     1      28.892   6.530  47.968  1.00  0.00     0.210 C 
ENDBRANCH  17  20
ENDBRANCH   1  14
BRANCH  10  22
HETATM   22  C17 UNL     1      24.976  -0.448  52.964  1.00  0.00     0.096 A 
HETATM   23  C18 UNL     1      26.408  -0.709  53.087  1.00  0.00     0.028 A 
HETATM   24  C19 UNL     1      25.597  -0.523  54.328  1.00  0.00     0.028 A 
ENDBRANCH  10  22
BRANCH   6  25
HETATM   25  C9  UNL     1      18.946  -0.013  52.607  1.00  0.00     0.052 A 
HETATM   26  C10 UNL     1      18.231   0.314  51.486  1.00  0.00     0.031 A 
HETATM   27  C11 UNL     1      17.100  -0.340  51.048  1.00  0.00     0.002 A 
HETATM   28  C12 UNL     1      16.625  -1.418  51.782  1.00  0.00     0.000 A 
HETATM   29  C13 UNL     1      17.321  -1.772  52.916  1.00  0.00     0.002 A 
HETATM   30  C14 UNL     1      18.431  -1.088  53.295  1.00  0.00     0.031 A 
ENDBRANCH   6  25
TORSDOF 4
ENDMDL
MODEL 2
REMARK VINA RESULT:      -8.9      3.016      8.303
REMARK  4 active torsions:
REMARK  status: ('A' for Active; 'I' for Inactive)
REMARK    1  A    between atoms: O1_2  and  C2_3 
REMARK    2  A    between atoms: C5_6  and  N1_7 
REMARK    3  A    between atoms: N3_12  and  C9_13 
REMARK    4  A    between atoms: N5_22  and  C17_23 
ROOT
HETATM    1  N1  UNL     1      20.867   1.047  52.349  1.00  0.00    -0.295 N 
HETATM    2  C6  UNL     1      21.419   0.340  53.461  1.00  0.00     0.178 C 
HETATM    3  C7  UNL     1      22.898   0.490  53.517  1.00  0.00     0.023 C 
HETATM    4  C8  UNL     1      23.537  -0.527  54.074  1.00  0.00     0.120 C 
HETATM    5  N2  UNL     1      24.946  -0.740  54.303  1.00  0.00    -0.307 N 
HETATM    6  N3  UNL     1      26.025   0.128  53.987  1.00  0.00    -0.273 N 
HETATM    7  C15 UNL     1      25.873   1.540  53.967  1.00  0.00     0.300 C 
HETATM    8  N4  UNL     1      24.804   2.074  53.188  1.00  0.00    -0.250 NA
HETATM    9  C16 UNL     1      23.603   1.658  53.001  1.00  0.00     0.140 C 
HETATM   10  N5  UNL     1      22.895   2.548  52.125  1.00  0.00    -0.279 N 
HETATM   11  C20 UNL     1      21.533   2.211  51.822  1.00  0.00     0.331 C 
HETATM   12  O2  UNL     1      20.841   2.930  51.067  1.00  0.00    -0.246 OA
HETATM   13  H9  UNL     1      25.138  -1.666  54.762  1.00  0.00     0.186 HD
ENDROOT
BRANCH   1  14
HETATM   14  C5  UNL     1      19.638   0.603  51.744  1.00  0.00     0.039 A 
HETATM   15  C4  UNL     1      18.876  -0.130  52.623  1.00  0.00     0.032 A 
HETATM   16  C3  UNL     1      17.656  -0.648  52.235  1.00  0.00     0.039 A 
HETATM   17  C2  UNL     1      17.200  -0.426  50.951  1.00  0.00     0.068 A 
HETATM   18  C22 UNL     1      17.981   0.319  50.068  1.00  0.00     0.039 A 
HETATM   19  C21 UNL     1      19.200   0.831  50.470  1.00  0.00     0.032 A 
BRANCH  17  20
HETATM   20  O1  UNL     1      16.020  -0.847  50.355  1.00  0.00    -0.356 OA
HETATM   21  C1  UNL     1      15.774  -0.755  48.975  1.00  0.00     0.210 C 
ENDBRANCH  17  20
ENDBRANCH   1  14
BRANCH  10  22
HETATM   22  C17 UNL     1      23.521   3.723  51.575  1.00  0.00     0.096 A 
HETATM   23  C18 UNL     1      22.759   4.866  51.079  1.00  0.00     0.028 A 
HETATM   24  C19 UNL     1      23.449   4.974  52.400  1.00  0.00     0.028 A 
ENDBRANCH  10  22
BRANCH   6  25
HETATM   25  C9  UNL     1      27.231  -0.568  53.696  1.00  0.00     0.052 A 
HETATM   26  C10 UNL     1      27.291  -1.772  53.044  1.00  0.00     0.031 A 
HETATM   27  C11 UNL     1      28.450  -2.465  52.765  1.00  0.00     0.002 A 
HETATM   28  C12 UNL     1      29.664  -1.925  53.166  1.00  0.00     0.000 A 
HETATM   29  C13 UNL     1      29.638  -0.717  53.824  1.00  0.00     0.002 A 
HETATM   30  C14 UNL     1      28.463  -0.082  54.068  1.00  0.00     0.031 A 
ENDBRANCH   6  25
TORSDOF 4
ENDMDL
MODEL 3
REMARK VINA RESULT:      -8.8      3.181      8.717
REMARK  4 active torsions:
REMARK  status: ('A' for Active; 'I' for Inactive)
REMARK    1  A    between atoms: O1_2  and  C2_3 
REMARK    2  A    between atoms: C5_6  and  N1_7 
REMARK    3  A    between atoms: N3_12  and  C9_13 
REMARK    4  A    between atoms: N5_22  and  C17_23 
ROOT
HETATM    1  N1  UNL     1      20.372   0.656  51.882  1.00  0.00    -0.295 N 
HETATM    2  C6  UNL     1      21.111   0.744  53.102  1.00  0.00     0.178 C 
HETATM    3  C7  UNL     1      22.577   0.745  52.846  1.00  0.00     0.023 C 
HETATM    4  C8  UNL     1      23.309   0.238  53.826  1.00  0.00     0.120 C 
HETATM    5  N2  UNL     1      24.739   0.072  53.942  1.00  0.00    -0.307 N 
HETATM    6  N3  UNL     1      25.740   0.439  53.005  1.00  0.00    -0.273 N 
HETATM    7  C15 UNL     1      25.577   1.538  52.119  1.00  0.00     0.300 C 
HETATM    8  N4  UNL     1      24.386   1.576  51.335  1.00  0.00    -0.250 NA
HETATM    9  C16 UNL     1      23.174   1.259  51.619  1.00  0.00     0.140 C 
HETATM   10  N5  UNL     1      22.320   1.475  50.486  1.00  0.00    -0.279 N 
HETATM   11  C20 UNL     1      20.929   1.164  50.654  1.00  0.00     0.331 C 
HETATM   12  O2  UNL     1      20.113   1.322  49.718  1.00  0.00    -0.246 OA
HETATM   13  H9  UNL     1      25.014  -0.380  54.850  1.00  0.00     0.186 HD
ENDROOT
BRANCH   1  14
HETATM   14  C5  UNL     1      19.061   0.060  51.869  1.00  0.00     0.039 A 
HETATM   15  C4  UNL     1      18.857  -0.740  52.969  1.00  0.00     0.032 A 
HETATM   16  C3  UNL     1      17.658  -1.403  53.144  1.00  0.00     0.039 A 
HETATM   17  C2  UNL     1      16.659  -1.262  52.203  1.00  0.00     0.068 A 
HETATM   18  C22 UNL     1      16.877  -0.449  51.091  1.00  0.00     0.039 A 
HETATM   19  C21 UNL     1      18.080   0.210  50.929  1.00  0.00     0.032 A 
BRANCH  17  20
HETATM   20  O1  UNL     1      15.393  -1.829  52.177  1.00  0.00    -0.356 OA
HETATM   21  C1  UNL     1      15.147  -3.188  52.440  1.00  0.00     0.210 C 
ENDBRANCH  17  20
ENDBRANCH   1  14
BRANCH  10  22
HETATM   22  C17 UNL     1      22.833   1.981  49.239  1.00  0.00     0.096 A 
HETATM   23  C18 UNL     1      21.988   2.630  48.240  1.00  0.00     0.028 A 
HETATM   24  C19 UNL     1      22.885   3.473  49.087  1.00  0.00     0.028 A 
ENDBRANCH  10  22
BRANCH   6  25
HETATM   25  C9  UNL     1      26.885  -0.404  53.056  1.00  0.00     0.052 A 
HETATM   26  C10 UNL     1      28.134   0.009  53.438  1.00  0.00     0.031 A 
HETATM   27  C11 UNL     1      29.255  -0.792  53.481  1.00  0.00     0.002 A 
HETATM   28  C12 UNL     1      29.138  -2.125  53.112  1.00  0.00     0.000 A 
HETATM   29  C13 UNL     1      27.896  -2.572  52.722  1.00  0.00     0.002 A 
HETATM   30  C14 UNL     1      26.829  -1.733  52.702  1.00  0.00     0.031 A 
ENDBRANCH   6  25
TORSDOF 4
ENDMDL
MODEL 4
REMARK VINA RESULT:      -8.8      2.836      5.158
REMARK  4 active torsions:
REMARK  status: ('A' for Active; 'I' for Inactive)
REMARK    1  A    between atoms: O1_2  and  C2_3 
REMARK    2  A    between atoms: C5_6  and  N1_7 
REMARK    3  A    between atoms: N3_12  and  C9_13 
REMARK    4  A    between atoms: N5_22  and  C17_23 
ROOT
HETATM    1  N1  UNL     1      25.551   5.670  49.151  1.00  0.00    -0.295 N 
HETATM    2  C6  UNL     1      26.048   4.390  49.547  1.00  0.00     0.178 C 
HETATM    3  C7  UNL     1      24.942   3.491  49.975  1.00  0.00     0.023 C 
HETATM    4  C8  UNL     1      25.286   2.580  50.872  1.00  0.00     0.120 C 
HETATM    5  N2  UNL     1      24.502   1.551  51.515  1.00  0.00    -0.307 N 
HETATM    6  N3  UNL     1      23.129   1.249  51.321  1.00  0.00    -0.273 N 
HETATM    7  C15 UNL     1      22.476   1.475  50.080  1.00  0.00     0.300 C 
HETATM    8  N4  UNL     1      22.594   2.775  49.505  1.00  0.00    -0.250 NA
HETATM    9  C16 UNL     1      23.583   3.594  49.457  1.00  0.00     0.140 C 
HETATM   10  N5  UNL     1      23.208   4.792  48.760  1.00  0.00    -0.279 N 
HETATM   11  C20 UNL     1      24.216   5.804  48.626  1.00  0.00     0.331 C 
HETATM   12  O2  UNL     1      23.978   6.881  48.033  1.00  0.00    -0.246 OA
HETATM   13  H9  UNL     1      25.070   0.989  52.198  1.00  0.00     0.186 HD
ENDROOT
BRANCH   1  14
HETATM   14  C5  UNL     1      26.383   6.840  49.273  1.00  0.00     0.039 A 
HETATM   15  C4  UNL     1      27.453   6.794  48.410  1.00  0.00     0.032 A 
HETATM   16  C3  UNL     1      28.371   7.825  48.372  1.00  0.00     0.039 A 
HETATM   17  C2  UNL     1      28.212   8.910  49.211  1.00  0.00     0.068 A 
HETATM   18  C22 UNL     1      27.123   8.946  50.082  1.00  0.00     0.039 A 
HETATM   19  C21 UNL     1      26.211   7.908  50.109  1.00  0.00     0.032 A 
BRANCH  17  20
HETATM   20  O1  UNL     1      29.003  10.042  49.339  1.00  0.00    -0.356 OA
HETATM   21  C1  UNL     1      30.112  10.308  48.519  1.00  0.00     0.210 C 
ENDBRANCH  17  20
ENDBRANCH   1  14
BRANCH  10  22
HETATM   22  C17 UNL     1      21.886   4.969  48.219  1.00  0.00     0.096 A 
HETATM   23  C18 UNL     1      21.588   5.924  47.155  1.00  0.00     0.028 A 
HETATM   24  C19 UNL     1      21.656   4.469  46.822  1.00  0.00     0.028 A 
ENDBRANCH  10  22
BRANCH   6  25
HETATM   25  C9  UNL     1      22.508   0.717  52.485  1.00  0.00     0.052 A 
HETATM   26  C10 UNL     1      21.269   1.085  52.938  1.00  0.00     0.031 A 
HETATM   27  C11 UNL     1      20.658   0.589  54.070  1.00  0.00     0.002 A 
HETATM   28  C12 UNL     1      21.329  -0.359  54.829  1.00  0.00     0.000 A 
HETATM   29  C13 UNL     1      22.577  -0.751  54.402  1.00  0.00     0.002 A 
HETATM   30  C14 UNL     1      23.125  -0.225  53.276  1.00  0.00     0.031 A 
ENDBRANCH   6  25
TORSDOF 4
ENDMDL
MODEL 5
REMARK VINA RESULT:      -8.3      3.484      6.615
REMARK  4 active torsions:
REMARK  status: ('A' for Active; 'I' for Inactive)
REMARK    1  A    between atoms: O1_2  and  C2_3 
REMARK    2  A    between atoms: C5_6  and  N1_7 
REMARK    3  A    between atoms: N3_12  and  C9_13 
REMARK    4  A    between atoms: N5_22  and  C17_23 
ROOT
HETATM    1  N1  UNL     1      24.510   1.710  52.206  1.00  0.00    -0.295 N 
HETATM    2  C6  UNL     1      24.655   3.069  51.786  1.00  0.00     0.178 C 
HETATM    3  C7  UNL     1      23.645   3.424  50.752  1.00  0.00     0.023 C 
HETATM    4  C8  UNL     1      24.028   4.367  49.905  1.00  0.00     0.120 C 
HETATM    5  N2  UNL     1      23.336   4.966  48.788  1.00  0.00    -0.307 N 
HETATM    6  N3  UNL     1      22.025   4.687  48.321  1.00  0.00    -0.273 N 
HETATM    7  C15 UNL     1      20.991   4.253  49.194  1.00  0.00     0.300 C 
HETATM    8  N4  UNL     1      21.269   3.133  50.033  1.00  0.00    -0.250 NA
HETATM    9  C16 UNL     1      22.334   2.791  50.664  1.00  0.00     0.140 C 
HETATM   10  N5  UNL     1      22.119   1.568  51.384  1.00  0.00    -0.279 N 
HETATM   11  C20 UNL     1      23.227   1.060  52.142  1.00  0.00     0.331 C 
HETATM   12  O2  UNL     1      23.129  -0.001  52.799  1.00  0.00    -0.246 OA
HETATM   13  H9  UNL     1      23.922   5.689  48.300  1.00  0.00     0.186 HD
ENDROOT
BRANCH   1  14
HETATM   14  C5  UNL     1      25.649   0.980  52.699  1.00  0.00     0.039 A 
HETATM   15  C4  UNL     1      26.041   1.426  53.939  1.00  0.00     0.032 A 
HETATM   16  C3  UNL     1      27.118   0.852  54.586  1.00  0.00     0.039 A 
HETATM   17  C2  UNL     1      27.805  -0.180  53.979  1.00  0.00     0.068 A 
HETATM   18  C22 UNL     1      27.399  -0.625  52.721  1.00  0.00     0.039 A 
HETATM   19  C21 UNL     1      26.320  -0.041  52.085  1.00  0.00     0.032 A 
BRANCH  17  20
HETATM   20  O1  UNL     1      28.902  -0.893  54.441  1.00  0.00    -0.356 OA
HETATM   21  C1  UNL     1      30.167  -0.849  53.831  1.00  0.00     0.210 C 
ENDBRANCH  17  20
ENDBRANCH   1  14
BRANCH  10  22
HETATM   22  C17 UNL     1      20.853   0.883  51.349  1.00  0.00     0.096 A 
HETATM   23  C18 UNL     1      20.431  -0.055  52.386  1.00  0.00     0.028 A 
HETATM   24  C19 UNL     1      19.826   1.311  52.357  1.00  0.00     0.028 A 
ENDBRANCH  10  22
BRANCH   6  25
HETATM   25  C9  UNL     1      21.881   4.882  46.920  1.00  0.00     0.052 A 
HETATM   26  C10 UNL     1      22.262   6.018  46.254  1.00  0.00     0.031 A 
HETATM   27  C11 UNL     1      22.119   6.228  44.899  1.00  0.00     0.002 A 
HETATM   28  C12 UNL     1      21.546   5.229  44.125  1.00  0.00     0.000 A 
HETATM   29  C13 UNL     1      21.152   4.076  44.764  1.00  0.00     0.002 A 
HETATM   30  C14 UNL     1      21.320   3.928  46.103  1.00  0.00     0.031 A 
ENDBRANCH   6  25
TORSDOF 4
ENDMDL
MODEL 6
REMARK VINA RESULT:      -8.3      3.338      7.534
REMARK  4 active torsions:
REMARK  status: ('A' for Active; 'I' for Inactive)
REMARK    1  A    between atoms: O1_2  and  C2_3 
REMARK    2  A    between atoms: C5_6  and  N1_7 
REMARK    3  A    between atoms: N3_12  and  C9_13 
REMARK    4  A    between atoms: N5_22  and  C17_23 
ROOT
HETATM    1  N1  UNL     1      23.741   2.066  52.388  1.00  0.00    -0.295 N 
HETATM    2  C6  UNL     1      23.870   3.365  52.969  1.00  0.00     0.178 C 
HETATM    3  C7  UNL     1      23.253   4.408  52.104  1.00  0.00     0.023 C 
HETATM    4  C8  UNL     1      23.801   5.608  52.209  1.00  0.00     0.120 C 
HETATM    5  N2  UNL     1      23.481   6.849  51.543  1.00  0.00    -0.307 N 
HETATM    6  N3  UNL     1      22.456   7.091  50.591  1.00  0.00    -0.273 N 
HETATM    7  C15 UNL     1      21.238   6.360  50.594  1.00  0.00     0.300 C 
HETATM    8  N4  UNL     1      21.327   4.937  50.601  1.00  0.00    -0.250 NA
HETATM    9  C16 UNL     1      22.135   4.142  51.206  1.00  0.00     0.140 C 
HETATM   10  N5  UNL     1      21.820   2.776  50.897  1.00  0.00    -0.279 N 
HETATM   11  C20 UNL     1      22.642   1.769  51.505  1.00  0.00     0.331 C 
HETATM   12  O2  UNL     1      22.440   0.552  51.291  1.00  0.00    -0.246 OA
HETATM   13  H9  UNL     1      24.116   7.633  51.838  1.00  0.00     0.186 HD
ENDROOT
BRANCH   1  14
HETATM   14  C5  UNL     1      24.709   1.042  52.681  1.00  0.00     0.039 A 
HETATM   15  C4  UNL     1      25.835   1.169  51.901  1.00  0.00     0.032 A 
HETATM   16  C3  UNL     1      26.885   0.281  52.031  1.00  0.00     0.039 A 
HETATM   17  C2  UNL     1      26.800  -0.744  52.951  1.00  0.00     0.068 A 
HETATM   18  C22 UNL     1      25.653  -0.864  53.736  1.00  0.00     0.039 A 
HETATM   19  C21 UNL     1      24.611   0.032  53.597  1.00  0.00     0.032 A 
BRANCH  17  20
HETATM   20  O1  UNL     1      27.723  -1.737  53.245  1.00  0.00    -0.356 OA
HETATM   21  C1  UNL     1      29.113  -1.526  53.246  1.00  0.00     0.210 C 
ENDBRANCH  17  20
ENDBRANCH   1  14
BRANCH  10  22
HETATM   22  C17 UNL     1      20.732   2.432  50.020  1.00  0.00     0.096 A 
HETATM   23  C18 UNL     1      20.142   1.097  49.977  1.00  0.00     0.028 A 
HETATM   24  C19 UNL     1      19.396   2.195  50.663  1.00  0.00     0.028 A 
ENDBRANCH  10  22
BRANCH   6  25
HETATM   25  C9  UNL     1      22.791   8.115  49.662  1.00  0.00     0.052 A 
HETATM   26  C10 UNL     1      24.064   8.381  49.229  1.00  0.00     0.031 A 
HETATM   27  C11 UNL     1      24.407   9.376  48.340  1.00  0.00     0.002 A 
HETATM   28  C12 UNL     1      23.406  10.190  47.828  1.00  0.00     0.000 A 
HETATM   29  C13 UNL     1      22.116   9.950  48.244  1.00  0.00     0.002 A 
HETATM   30  C14 UNL     1      21.841   8.952  49.123  1.00  0.00     0.031 A 
ENDBRANCH   6  25
TORSDOF 4
ENDMDL
MODEL 7
REMARK VINA RESULT:      -8.3      2.553      8.358
REMARK  4 active torsions:
REMARK  status: ('A' for Active; 'I' for Inactive)
REMARK    1  A    between atoms: O1_2  and  C2_3 
REMARK    2  A    between atoms: C5_6  and  N1_7 
REMARK    3  A    between atoms: N3_12  and  C9_13 
REMARK    4  A    between atoms: N5_22  and  C17_23 
ROOT
HETATM    1  N1  UNL     1      22.328   0.803  51.552  1.00  0.00    -0.295 N 
HETATM    2  C6  UNL     1      22.354   1.458  50.282  1.00  0.00     0.178 C 
HETATM    3  C7  UNL     1      23.480   2.427  50.196  1.00  0.00     0.023 C 
HETATM    4  C8  UNL     1      23.265   3.454  49.389  1.00  0.00     0.120 C 
HETATM    5  N2  UNL     1      24.108   4.578  49.054  1.00  0.00    -0.307 N 
HETATM    6  N3  UNL     1      25.422   4.854  49.515  1.00  0.00    -0.273 N 
HETATM    7  C15 UNL     1      26.328   3.819  49.870  1.00  0.00     0.300 C 
HETATM    8  N4  UNL     1      25.871   2.837  50.798  1.00  0.00    -0.250 NA
HETATM    9  C16 UNL     1      24.726   2.271  50.937  1.00  0.00     0.140 C 
HETATM   10  N5  UNL     1      24.758   1.338  52.028  1.00  0.00    -0.279 N 
HETATM   11  C20 UNL     1      23.544   0.624  52.304  1.00  0.00     0.331 C 
HETATM   12  O2  UNL     1      23.480  -0.208  53.237  1.00  0.00    -0.246 OA
HETATM   13  H9  UNL     1      23.640   5.238  48.384  1.00  0.00     0.186 HD
ENDROOT
BRANCH   1  14
HETATM   14  C5  UNL     1      21.085   0.315  52.091  1.00  0.00     0.039 A 
HETATM   15  C4  UNL     1      20.051   0.462  51.196  1.00  0.00     0.032 A 
HETATM   16  C3  UNL     1      18.774   0.053  51.524  1.00  0.00     0.039 A 
HETATM   17  C2  UNL     1      18.535  -0.508  52.762  1.00  0.00     0.068 A 
HETATM   18  C22 UNL     1      19.591  -0.652  53.662  1.00  0.00     0.039 A 
HETATM   19  C21 UNL     1      20.865  -0.239  53.321  1.00  0.00     0.032 A 
BRANCH  17  20
HETATM   20  O1  UNL     1      17.345  -0.983  53.295  1.00  0.00    -0.356 OA
HETATM   21  C1  UNL     1      16.332  -1.575  52.521  1.00  0.00     0.210 C 
ENDBRANCH  17  20
ENDBRANCH   1  14
BRANCH  10  22
HETATM   22  C17 UNL     1      25.950   1.127  52.808  1.00  0.00     0.096 A 
HETATM   23  C18 UNL     1      26.171  -0.076  53.605  1.00  0.00     0.028 A 
HETATM   24  C19 UNL     1      26.903   0.079  52.312  1.00  0.00     0.028 A 
ENDBRANCH  10  22
BRANCH   6  25
HETATM   25  C9  UNL     1      25.706   6.246  49.582  1.00  0.00     0.052 A 
HETATM   26  C10 UNL     1      26.807   6.839  49.021  1.00  0.00     0.031 A 
HETATM   27  C11 UNL     1      27.104   8.183  49.087  1.00  0.00     0.002 A 
HETATM   28  C12 UNL     1      26.238   9.026  49.769  1.00  0.00     0.000 A 
HETATM   29  C13 UNL     1      25.122   8.461  50.345  1.00  0.00     0.002 A 
HETATM   30  C14 UNL     1      24.884   7.128  50.244  1.00  0.00     0.031 A 
ENDBRANCH   6  25
TORSDOF 4
ENDMDL
MODEL 8
REMARK VINA RESULT:      -8.3      3.034      5.239
REMARK  4 active torsions:
REMARK  status: ('A' for Active; 'I' for Inactive)
REMARK    1  A    between atoms: O1_2  and  C2_3 
REMARK    2  A    between atoms: C5_6  and  N1_7 
REMARK    3  A    between atoms: N3_12  and  C9_13 
REMARK    4  A    between atoms: N5_22  and  C17_23 
ROOT
HETATM    1  N1  UNL     1      22.998   0.853  51.943  1.00  0.00    -0.295 N 
HETATM    2  C6  UNL     1      21.973  -0.096  52.244  1.00  0.00     0.178 C 
HETATM    3  C7  UNL     1      20.643   0.377  51.771  1.00  0.00     0.023 C 
HETATM    4  C8  UNL     1      19.615  -0.072  52.474  1.00  0.00     0.120 C 
HETATM    5  N2  UNL     1      18.198   0.164  52.321  1.00  0.00    -0.307 N 
HETATM    6  N3  UNL     1      17.543   0.950  51.337  1.00  0.00    -0.273 N 
HETATM    7  C15 UNL     1      18.078   1.122  50.032  1.00  0.00     0.300 C 
HETATM    8  N4  UNL     1      19.432   1.559  49.931  1.00  0.00    -0.250 NA
HETATM    9  C16 UNL     1      20.472   1.265  50.627  1.00  0.00     0.140 C 
HETATM   10  N5  UNL     1      21.621   1.968  50.133  1.00  0.00    -0.279 N 
HETATM   11  C20 UNL     1      22.863   1.738  50.813  1.00  0.00     0.331 C 
HETATM   12  O2  UNL     1      23.916   2.309  50.451  1.00  0.00    -0.246 OA
HETATM   13  H9  UNL     1      17.633  -0.332  53.055  1.00  0.00     0.186 HD
ENDROOT
BRANCH   1  14
HETATM   14  C5  UNL     1      24.176   0.933  52.766  1.00  0.00     0.039 A 
HETATM   15  C4  UNL     1      24.599  -0.312  53.170  1.00  0.00     0.032 A 
HETATM   16  C3  UNL     1      25.717  -0.450  53.969  1.00  0.00     0.039 A 
HETATM   17  C2  UNL     1      26.415   0.673  54.364  1.00  0.00     0.068 A 
HETATM   18  C22 UNL     1      25.977   1.931  53.949  1.00  0.00     0.039 A 
HETATM   19  C21 UNL     1      24.857   2.055  53.149  1.00  0.00     0.032 A 
BRANCH  17  20
HETATM   20  O1  UNL     1      27.551   0.766  55.156  1.00  0.00    -0.356 OA
HETATM   21  C1  UNL     1      28.839   0.438  54.702  1.00  0.00     0.210 C 
ENDBRANCH  17  20
ENDBRANCH   1  14
BRANCH  10  22
HETATM   22  C17 UNL     1      21.534   2.862  49.007  1.00  0.00     0.096 A 
HETATM   23  C18 UNL     1      22.711   3.380  48.315  1.00  0.00     0.028 A 
HETATM   24  C19 UNL     1      21.909   2.299  47.668  1.00  0.00     0.028 A 
ENDBRANCH  10  22
BRANCH   6  25
HETATM   25  C9  UNL     1      16.331   1.529  51.805  1.00  0.00     0.052 A 
HETATM   26  C10 UNL     1      16.050   2.869  51.770  1.00  0.00     0.031 A 
HETATM   27  C11 UNL     1      14.887   3.448  52.231  1.00  0.00     0.002 A 
HETATM   28  C12 UNL     1      13.906   2.632  52.778  1.00  0.00     0.000 A 
HETATM   29  C13 UNL     1      14.158   1.280  52.828  1.00  0.00     0.002 A 
HETATM   30  C14 UNL     1      15.325   0.770  52.357  1.00  0.00     0.031 A 
ENDBRANCH   6  25
TORSDOF 4
ENDMDL
MODEL 9
REMARK VINA RESULT:      -8.2      2.926      5.342
REMARK  4 active torsions:
REMARK  status: ('A' for Active; 'I' for Inactive)
REMARK    1  A    between atoms: O1_2  and  C2_3 
REMARK    2  A    between atoms: C5_6  and  N1_7 
REMARK    3  A    between atoms: N3_12  and  C9_13 
REMARK    4  A    between atoms: N5_22  and  C17_23 
ROOT
HETATM    1  N1  UNL     1      23.436   1.969  51.432  1.00  0.00    -0.295 N 
HETATM    2  C6  UNL     1      22.406   1.227  50.775  1.00  0.00     0.178 C 
HETATM    3  C7  UNL     1      21.105   1.947  50.828  1.00  0.00     0.023 C 
HETATM    4  C8  UNL     1      20.038   1.162  50.810  1.00  0.00     0.120 C 
HETATM    5  N2  UNL     1      18.632   1.487  50.847  1.00  0.00    -0.307 N 
HETATM    6  N3  UNL     1      18.033   2.773  50.899  1.00  0.00    -0.273 N 
HETATM    7  C15 UNL     1      18.650   3.916  50.324  1.00  0.00     0.300 C 
HETATM    8  N4  UNL     1      20.002   4.185  50.692  1.00  0.00    -0.250 NA
HETATM    9  C16 UNL     1      20.997   3.399  50.897  1.00  0.00     0.140 C 
HETATM   10  N5  UNL     1      22.167   4.153  51.249  1.00  0.00    -0.279 N 
HETATM   11  C20 UNL     1      23.364   3.406  51.508  1.00  0.00     0.331 C 
HETATM   12  O2  UNL     1      24.431   3.981  51.822  1.00  0.00    -0.246 OA
HETATM   13  H9  UNL     1      18.026   0.628  50.830  1.00  0.00     0.186 HD
ENDROOT
BRANCH   1  14
HETATM   14  C5  UNL     1      24.557   1.285  52.024  1.00  0.00     0.039 A 
HETATM   15  C4  UNL     1      24.189   0.591  53.153  1.00  0.00     0.032 A 
HETATM   16  C3  UNL     1      25.122  -0.133  53.868  1.00  0.00     0.039 A 
HETATM   17  C2  UNL     1      26.435  -0.158  53.444  1.00  0.00     0.068 A 
HETATM   18  C22 UNL     1      26.797   0.549  52.297  1.00  0.00     0.039 A 
HETATM   19  C21 UNL     1      25.853   1.269  51.591  1.00  0.00     0.032 A 
BRANCH  17  20
HETATM   20  O1  UNL     1      27.524  -0.812  54.003  1.00  0.00    -0.356 OA
HETATM   21  C1  UNL     1      28.615  -0.143  54.583  1.00  0.00     0.210 C 
ENDBRANCH  17  20
ENDBRANCH   1  14
BRANCH  10  22
HETATM   22  C17 UNL     1      22.142   5.590  51.337  1.00  0.00     0.096 A 
HETATM   23  C18 UNL     1      23.341   6.412  51.208  1.00  0.00     0.028 A 
HETATM   24  C19 UNL     1      22.381   6.348  50.065  1.00  0.00     0.028 A 
ENDBRANCH  10  22
BRANCH   6  25
HETATM   25  C9  UNL     1      16.785   2.777  51.582  1.00  0.00     0.052 A 
HETATM   26  C10 UNL     1      16.009   1.665  51.782  1.00  0.00     0.031 A 
HETATM   27  C11 UNL     1      14.792   1.653  52.430  1.00  0.00     0.002 A 
HETATM   28  C12 UNL     1      14.289   2.847  52.928  1.00  0.00     0.000 A 
HETATM   29  C13 UNL     1      15.043   3.983  52.742  1.00  0.00     0.002 A 
HETATM   30  C14 UNL     1      16.236   3.929  52.096  1.00  0.00     0.031 A 
ENDBRANCH   6  25
TORSDOF 4
ENDMDL
