MODEL 1
REMARK VINA RESULT:      -7.4      0.000      0.000
REMARK  6 active torsions:
REMARK  status: ('A' for Active; 'I' for Inactive)
REMARK    1  A    between atoms: O1_2  and  C2_3 
REMARK    2  A    between atoms: C7_8  and  C8_9 
REMARK    3  A    between atoms: C8_9  and  O2_10 
REMARK    4  A    between atoms: O2_10  and  C9_11 
REMARK    5  A    between atoms: C12_14  and  N1_15 
REMARK    6  A    between atoms: N1_15  and  C13_16 
ROOT
HETATM    1  C9  UNL     1      23.294  -0.062  53.339  1.00  0.00     0.091 A 
HETATM    2  C10 UNL     1      22.248   0.231  52.483  1.00  0.00     0.041 A 
HETATM    3  C11 UNL     1      20.971  -0.244  52.688  1.00  0.00     0.032 A 
HETATM    4  C12 UNL     1      20.756  -1.044  53.805  1.00  0.00     0.031 A 
HETATM    5  C14 UNL     1      21.744  -1.395  54.728  1.00  0.00     0.056 A 
HETATM    6  C15 UNL     1      23.014  -0.873  54.448  1.00  0.00     0.069 A 
HETATM    7 CL1  UNL     1      24.242  -1.341  55.632  1.00  0.00    -0.081 Cl
ENDROOT
BRANCH   1   8
HETATM    8  O2  UNL     1      24.514   0.307  53.269  1.00  0.00    -0.345 OA
BRANCH   8   9
HETATM    9  C8  UNL     1      25.696   0.862  53.347  1.00  0.00     0.217 C 
BRANCH   9  10
HETATM   10  C7  UNL     1      26.783  -0.193  53.264  1.00  0.00    -0.001 A 
HETATM   11  C2  UNL     1      27.971   0.234  53.864  1.00  0.00     0.076 A 
HETATM   12  C3  UNL     1      29.001  -0.699  53.823  1.00  0.00     0.037 A 
HETATM   13  C4  UNL     1      28.898  -1.954  53.246  1.00  0.00     0.003 A 
HETATM   14  C5  UNL     1      27.698  -2.312  52.671  1.00  0.00     0.001 A 
HETATM   15  C6  UNL     1      26.636  -1.434  52.678  1.00  0.00     0.012 A 
BRANCH  11  16
HETATM   16  O1  UNL     1      28.129   1.471  54.453  1.00  0.00    -0.355 OA
HETATM   17  C1  UNL     1      28.857   2.453  53.741  1.00  0.00     0.210 C 
ENDBRANCH  11  16
ENDBRANCH   9  10
ENDBRANCH   8   9
ENDBRANCH   1   8
BRANCH   4  18
HETATM   18  N1  UNL     1      19.455  -1.533  54.032  1.00  0.00    -0.365 N 
HETATM   19  H12 UNL     1      19.260  -2.248  54.787  1.00  0.00     0.162 HD
BRANCH  18  20
HETATM   20  C13 UNL     1      18.306  -1.084  53.242  1.00  0.00     0.345 C 
HETATM   21  F1  UNL     1      17.603  -2.238  52.891  1.00  0.00    -0.234 F 
ENDBRANCH  18  20
ENDBRANCH   4  18
TORSDOF 6
ENDMDL
MODEL 2
REMARK VINA RESULT:      -7.2      1.767      2.820
REMARK  6 active torsions:
REMARK  status: ('A' for Active; 'I' for Inactive)
REMARK    1  A    between atoms: O1_2  and  C2_3 
REMARK    2  A    between atoms: C7_8  and  C8_9 
REMARK    3  A    between atoms: C8_9  and  O2_10 
REMARK    4  A    between atoms: O2_10  and  C9_11 
REMARK    5  A    between atoms: C12_14  and  N1_15 
REMARK    6  A    between atoms: N1_15  and  C13_16 
ROOT
HETATM    1  C9  UNL     1      24.016  -0.056  53.078  1.00  0.00     0.091 A 
HETATM    2  C10 UNL     1      23.639  -0.808  54.176  1.00  0.00     0.041 A 
HETATM    3  C11 UNL     1      22.328  -0.905  54.589  1.00  0.00     0.032 A 
HETATM    4  C12 UNL     1      21.371  -0.212  53.856  1.00  0.00     0.031 A 
HETATM    5  C14 UNL     1      21.650   0.572  52.735  1.00  0.00     0.056 A 
HETATM    6  C15 UNL     1      23.005   0.620  52.380  1.00  0.00     0.069 A 
HETATM    7 CL1  UNL     1      23.324   1.624  50.959  1.00  0.00    -0.081 Cl
ENDROOT
BRANCH   1   8
HETATM    8  O2  UNL     1      25.182   0.120  52.590  1.00  0.00    -0.345 OA
BRANCH   8   9
HETATM    9  C8  UNL     1      26.335   0.094  51.971  1.00  0.00     0.217 C 
BRANCH   9  10
HETATM   10  C7  UNL     1      27.413   0.725  52.834  1.00  0.00    -0.001 A 
HETATM   11  C2  UNL     1      28.128  -0.235  53.555  1.00  0.00     0.076 A 
HETATM   12  C3  UNL     1      29.136   0.287  54.359  1.00  0.00     0.037 A 
HETATM   13  C4  UNL     1      29.435   1.636  54.462  1.00  0.00     0.003 A 
HETATM   14  C5  UNL     1      28.690   2.528  53.723  1.00  0.00     0.001 A 
HETATM   15  C6  UNL     1      27.677   2.077  52.906  1.00  0.00     0.012 A 
BRANCH  11  16
HETATM   16  O1  UNL     1      27.874  -1.589  53.491  1.00  0.00    -0.355 OA
HETATM   17  C1  UNL     1      28.949  -2.447  53.160  1.00  0.00     0.210 C 
ENDBRANCH  11  16
ENDBRANCH   9  10
ENDBRANCH   8   9
ENDBRANCH   1   8
BRANCH   4  18
HETATM   18  N1  UNL     1      20.026  -0.305  54.263  1.00  0.00    -0.365 N 
HETATM   19  H12 UNL     1      19.721   0.004  55.227  1.00  0.00     0.162 HD
BRANCH  18  20
HETATM   20  C13 UNL     1      18.981  -0.830  53.381  1.00  0.00     0.345 C 
HETATM   21  F1  UNL     1      18.761  -2.148  53.786  1.00  0.00    -0.234 F 
ENDBRANCH  18  20
ENDBRANCH   4  18
TORSDOF 6
ENDMDL
MODEL 3
REMARK VINA RESULT:      -6.8      5.403      7.268
REMARK  6 active torsions:
REMARK  status: ('A' for Active; 'I' for Inactive)
REMARK    1  A    between atoms: O1_2  and  C2_3 
REMARK    2  A    between atoms: C7_8  and  C8_9 
REMARK    3  A    between atoms: C8_9  and  O2_10 
REMARK    4  A    between atoms: O2_10  and  C9_11 
REMARK    5  A    between atoms: C12_14  and  N1_15 
REMARK    6  A    between atoms: N1_15  and  C13_16 
ROOT
HETATM    1  C9  UNL     1      26.056   2.156  52.239  1.00  0.00     0.091 A 
HETATM    2  C10 UNL     1      27.416   2.288  52.453  1.00  0.00     0.041 A 
HETATM    3  C11 UNL     1      28.155   1.332  53.117  1.00  0.00     0.032 A 
HETATM    4  C12 UNL     1      27.481   0.205  53.577  1.00  0.00     0.031 A 
HETATM    5  C14 UNL     1      26.113  -0.020  53.410  1.00  0.00     0.056 A 
HETATM    6  C15 UNL     1      25.434   0.998  52.726  1.00  0.00     0.069 A 
HETATM    7 CL1  UNL     1      23.704   0.684  52.536  1.00  0.00    -0.081 Cl
ENDROOT
BRANCH   1   8
HETATM    8  O2  UNL     1      25.258   2.956  51.646  1.00  0.00    -0.345 OA
BRANCH   8   9
HETATM    9  C8  UNL     1      24.628   3.820  50.892  1.00  0.00     0.217 C 
BRANCH   9  10
HETATM   10  C7  UNL     1      25.615   4.613  50.057  1.00  0.00    -0.001 A 
HETATM   11  C2  UNL     1      25.356   5.986  50.108  1.00  0.00     0.076 A 
HETATM   12  C3  UNL     1      26.237   6.763  49.364  1.00  0.00     0.037 A 
HETATM   13  C4  UNL     1      27.292   6.257  48.623  1.00  0.00     0.003 A 
HETATM   14  C5  UNL     1      27.492   4.895  48.616  1.00  0.00     0.001 A 
HETATM   15  C6  UNL     1      26.656   4.067  49.332  1.00  0.00     0.012 A 
BRANCH  11  16
HETATM   16  O1  UNL     1      24.320   6.542  50.828  1.00  0.00    -0.355 OA
HETATM   17  C1  UNL     1      23.942   7.871  50.521  1.00  0.00     0.210 C 
ENDBRANCH  11  16
ENDBRANCH   9  10
ENDBRANCH   8   9
ENDBRANCH   1   8
BRANCH   4  18
HETATM   18  N1  UNL     1      28.222  -0.783  54.253  1.00  0.00    -0.365 N 
HETATM   19  H12 UNL     1      27.821  -1.298  55.085  1.00  0.00     0.162 HD
BRANCH  18  20
HETATM   20  C13 UNL     1      29.580  -1.152  53.846  1.00  0.00     0.345 C 
HETATM   21  F1  UNL     1      29.444  -2.259  53.006  1.00  0.00    -0.234 F 
ENDBRANCH  18  20
ENDBRANCH   4  18
TORSDOF 6
ENDMDL
MODEL 4
REMARK VINA RESULT:      -6.8      4.804      5.904
REMARK  6 active torsions:
REMARK  status: ('A' for Active; 'I' for Inactive)
REMARK    1  A    between atoms: O1_2  and  C2_3 
REMARK    2  A    between atoms: C7_8  and  C8_9 
REMARK    3  A    between atoms: C8_9  and  O2_10 
REMARK    4  A    between atoms: O2_10  and  C9_11 
REMARK    5  A    between atoms: C12_14  and  N1_15 
REMARK    6  A    between atoms: N1_15  and  C13_16 
ROOT
HETATM    1  C9  UNL     1      25.541   2.232  51.674  1.00  0.00     0.091 A 
HETATM    2  C10 UNL     1      26.615   2.474  50.837  1.00  0.00     0.041 A 
HETATM    3  C11 UNL     1      26.609   3.489  49.904  1.00  0.00     0.032 A 
HETATM    4  C12 UNL     1      25.469   4.282  49.825  1.00  0.00     0.031 A 
HETATM    5  C14 UNL     1      24.335   4.118  50.625  1.00  0.00     0.056 A 
HETATM    6  C15 UNL     1      24.421   3.065  51.546  1.00  0.00     0.069 A 
HETATM    7 CL1  UNL     1      22.968   2.882  52.540  1.00  0.00    -0.081 Cl
ENDROOT
BRANCH   1   8
HETATM    8  O2  UNL     1      25.413   1.335  52.573  1.00  0.00    -0.345 OA
BRANCH   8   9
HETATM    9  C8  UNL     1      25.511   0.471  53.551  1.00  0.00     0.217 C 
BRANCH   9  10
HETATM   10  C7  UNL     1      26.736  -0.404  53.364  1.00  0.00    -0.001 A 
HETATM   11  C2  UNL     1      27.896   0.215  53.839  1.00  0.00     0.076 A 
HETATM   12  C3  UNL     1      29.050  -0.547  53.699  1.00  0.00     0.037 A 
HETATM   13  C4  UNL     1      29.088  -1.815  53.142  1.00  0.00     0.003 A 
HETATM   14  C5  UNL     1      27.909  -2.367  52.693  1.00  0.00     0.001 A 
HETATM   15  C6  UNL     1      26.728  -1.665  52.802  1.00  0.00     0.012 A 
BRANCH  11  16
HETATM   16  O1  UNL     1      27.915   1.473  54.402  1.00  0.00    -0.355 OA
HETATM   17  C1  UNL     1      28.735   2.455  53.797  1.00  0.00     0.210 C 
ENDBRANCH  11  16
ENDBRANCH   9  10
ENDBRANCH   8   9
ENDBRANCH   1   8
BRANCH   4  18
HETATM   18  N1  UNL     1      25.449   5.326  48.880  1.00  0.00    -0.365 N 
HETATM   19  H12 UNL     1      24.646   5.437  48.201  1.00  0.00     0.162 HD
BRANCH  18  20
HETATM   20  C13 UNL     1      26.529   6.311  48.786  1.00  0.00     0.345 C 
HETATM   21  F1  UNL     1      26.441   7.092  49.940  1.00  0.00    -0.234 F 
ENDBRANCH  18  20
ENDBRANCH   4  18
TORSDOF 6
ENDMDL
MODEL 5
REMARK VINA RESULT:      -6.8      4.423      6.719
REMARK  6 active torsions:
REMARK  status: ('A' for Active; 'I' for Inactive)
REMARK    1  A    between atoms: O1_2  and  C2_3 
REMARK    2  A    between atoms: C7_8  and  C8_9 
REMARK    3  A    between atoms: C8_9  and  O2_10 
REMARK    4  A    between atoms: O2_10  and  C9_11 
REMARK    5  A    between atoms: C12_14  and  N1_15 
REMARK    6  A    between atoms: N1_15  and  C13_16 
ROOT
HETATM    1  C9  UNL     1      24.492   1.499  53.173  1.00  0.00     0.091 A 
HETATM    2  C10 UNL     1      25.687   2.164  53.380  1.00  0.00     0.041 A 
HETATM    3  C11 UNL     1      26.820   1.522  53.829  1.00  0.00     0.032 A 
HETATM    4  C12 UNL     1      26.729   0.155  54.074  1.00  0.00     0.031 A 
HETATM    5  C14 UNL     1      25.571  -0.604  53.896  1.00  0.00     0.056 A 
HETATM    6  C15 UNL     1      24.463   0.123  53.438  1.00  0.00     0.069 A 
HETATM    7 CL1  UNL     1      23.012  -0.867  53.227  1.00  0.00    -0.081 Cl
ENDROOT
BRANCH   1   8
HETATM    8  O2  UNL     1      23.377   1.966  52.765  1.00  0.00    -0.345 OA
BRANCH   8   9
HETATM    9  C8  UNL     1      22.369   2.589  52.208  1.00  0.00     0.217 C 
BRANCH   9  10
HETATM   10  C7  UNL     1      22.282   2.244  50.733  1.00  0.00    -0.001 A 
HETATM   11  C2  UNL     1      23.063   3.099  49.952  1.00  0.00     0.076 A 
HETATM   12  C3  UNL     1      23.026   2.823  48.589  1.00  0.00     0.037 A 
HETATM   13  C4  UNL     1      22.291   1.797  48.018  1.00  0.00     0.003 A 
HETATM   14  C5  UNL     1      21.543   0.990  48.847  1.00  0.00     0.001 A 
HETATM   15  C6  UNL     1      21.535   1.209  50.207  1.00  0.00     0.012 A 
BRANCH  11  16
HETATM   16  O1  UNL     1      23.814   4.134  50.467  1.00  0.00    -0.355 OA
HETATM   17  C1  UNL     1      25.166   4.235  50.061  1.00  0.00     0.210 C 
ENDBRANCH  11  16
ENDBRANCH   9  10
ENDBRANCH   8   9
ENDBRANCH   1   8
BRANCH   4  18
HETATM   18  N1  UNL     1      27.880  -0.517  54.530  1.00  0.00    -0.365 N 
HETATM   19  H12 UNL     1      27.994  -0.786  55.546  1.00  0.00     0.162 HD
BRANCH  18  20
HETATM   20  C13 UNL     1      28.977  -0.879  53.629  1.00  0.00     0.345 C 
HETATM   21  F1  UNL     1      29.921   0.144  53.739  1.00  0.00    -0.234 F 
ENDBRANCH  18  20
ENDBRANCH   4  18
TORSDOF 6
ENDMDL
MODEL 6
REMARK VINA RESULT:      -6.6      4.403      7.257
REMARK  6 active torsions:
REMARK  status: ('A' for Active; 'I' for Inactive)
REMARK    1  A    between atoms: O1_2  and  C2_3 
REMARK    2  A    between atoms: C7_8  and  C8_9 
REMARK    3  A    between atoms: C8_9  and  O2_10 
REMARK    4  A    between atoms: O2_10  and  C9_11 
REMARK    5  A    between atoms: C12_14  and  N1_15 
REMARK    6  A    between atoms: N1_15  and  C13_16 
ROOT
HETATM    1  C9  UNL     1      24.860   1.026  52.718  1.00  0.00     0.091 A 
HETATM    2  C10 UNL     1      24.761  -0.051  53.580  1.00  0.00     0.041 A 
HETATM    3  C11 UNL     1      25.822  -0.891  53.835  1.00  0.00     0.032 A 
HETATM    4  C12 UNL     1      27.025  -0.622  53.189  1.00  0.00     0.031 A 
HETATM    5  C14 UNL     1      27.225   0.439  52.303  1.00  0.00     0.056 A 
HETATM    6  C15 UNL     1      26.098   1.246  52.097  1.00  0.00     0.069 A 
HETATM    7 CL1  UNL     1      26.384   2.577  50.967  1.00  0.00    -0.081 Cl
ENDROOT
BRANCH   1   8
HETATM    8  O2  UNL     1      23.966   1.877  52.393  1.00  0.00    -0.345 OA
BRANCH   8   9
HETATM    9  C8  UNL     1      22.907   2.556  52.032  1.00  0.00     0.217 C 
BRANCH   9  10
HETATM   10  C7  UNL     1      22.607   2.327  50.562  1.00  0.00    -0.001 A 
HETATM   11  C2  UNL     1      21.757   1.235  50.368  1.00  0.00     0.076 A 
HETATM   12  C3  UNL     1      21.443   0.984  49.037  1.00  0.00     0.037 A 
HETATM   13  C4  UNL     1      21.913   1.729  47.968  1.00  0.00     0.003 A 
HETATM   14  C5  UNL     1      22.747   2.792  48.230  1.00  0.00     0.001 A 
HETATM   15  C6  UNL     1      23.098   3.096  49.526  1.00  0.00     0.012 A 
BRANCH  11  16
HETATM   16  O1  UNL     1      21.260   0.461  51.395  1.00  0.00    -0.355 OA
HETATM   17  C1  UNL     1      19.854   0.345  51.513  1.00  0.00     0.210 C 
ENDBRANCH  11  16
ENDBRANCH   9  10
ENDBRANCH   8   9
ENDBRANCH   1   8
BRANCH   4  18
HETATM   18  N1  UNL     1      28.121  -1.470  53.443  1.00  0.00    -0.365 N 
HETATM   19  H12 UNL     1      28.034  -2.520  53.358  1.00  0.00     0.162 HD
BRANCH  18  20
HETATM   20  C13 UNL     1      29.432  -0.949  53.836  1.00  0.00     0.345 C 
HETATM   21  F1  UNL     1      29.197  -0.068  54.893  1.00  0.00    -0.234 F 
ENDBRANCH  18  20
ENDBRANCH   4  18
TORSDOF 6
ENDMDL
MODEL 7
REMARK VINA RESULT:      -6.6      4.734      7.003
REMARK  6 active torsions:
REMARK  status: ('A' for Active; 'I' for Inactive)
REMARK    1  A    between atoms: O1_2  and  C2_3 
REMARK    2  A    between atoms: C7_8  and  C8_9 
REMARK    3  A    between atoms: C8_9  and  O2_10 
REMARK    4  A    between atoms: O2_10  and  C9_11 
REMARK    5  A    between atoms: C12_14  and  N1_15 
REMARK    6  A    between atoms: N1_15  and  C13_16 
ROOT
HETATM    1  C9  UNL     1      24.782   1.067  52.618  1.00  0.00     0.091 A 
HETATM    2  C10 UNL     1      24.615   0.037  53.526  1.00  0.00     0.041 A 
HETATM    3  C11 UNL     1      25.606  -0.885  53.786  1.00  0.00     0.032 A 
HETATM    4  C12 UNL     1      26.806  -0.750  53.095  1.00  0.00     0.031 A 
HETATM    5  C14 UNL     1      27.071   0.253  52.161  1.00  0.00     0.056 A 
HETATM    6  C15 UNL     1      26.014   1.150  51.954  1.00  0.00     0.069 A 
HETATM    7 CL1  UNL     1      26.381   2.405  50.762  1.00  0.00    -0.081 Cl
ENDROOT
BRANCH   1   8
HETATM    8  O2  UNL     1      23.957   1.981  52.284  1.00  0.00    -0.345 OA
BRANCH   8   9
HETATM    9  C8  UNL     1      22.961   2.735  51.893  1.00  0.00     0.217 C 
BRANCH   9  10
HETATM   10  C7  UNL     1      22.601   2.431  50.450  1.00  0.00    -0.001 A 
HETATM   11  C2  UNL     1      23.035   3.438  49.584  1.00  0.00     0.076 A 
HETATM   12  C3  UNL     1      22.738   3.208  48.245  1.00  0.00     0.037 A 
HETATM   13  C4  UNL     1      22.071   2.090  47.772  1.00  0.00     0.003 A 
HETATM   14  C5  UNL     1      21.671   1.135  48.681  1.00  0.00     0.001 A 
HETATM   15  C6  UNL     1      21.934   1.301  50.023  1.00  0.00     0.012 A 
BRANCH  11  16
HETATM   16  O1  UNL     1      23.702   4.571  49.999  1.00  0.00    -0.355 OA
HETATM   17  C1  UNL     1      24.670   5.124  49.127  1.00  0.00     0.210 C 
ENDBRANCH  11  16
ENDBRANCH   9  10
ENDBRANCH   8   9
ENDBRANCH   1   8
BRANCH   4  18
HETATM   18  N1  UNL     1      27.830  -1.682  53.353  1.00  0.00    -0.365 N 
HETATM   19  H12 UNL     1      27.617  -2.710  53.486  1.00  0.00     0.162 HD
BRANCH  18  20
HETATM   20  C13 UNL     1      29.237  -1.286  53.450  1.00  0.00     0.345 C 
HETATM   21  F1  UNL     1      29.334  -0.482  54.587  1.00  0.00    -0.234 F 
ENDBRANCH  18  20
ENDBRANCH   4  18
TORSDOF 6
ENDMDL
MODEL 8
REMARK VINA RESULT:      -6.4      4.099      7.364
REMARK  6 active torsions:
REMARK  status: ('A' for Active; 'I' for Inactive)
REMARK    1  A    between atoms: O1_2  and  C2_3 
REMARK    2  A    between atoms: C7_8  and  C8_9 
REMARK    3  A    between atoms: C8_9  and  O2_10 
REMARK    4  A    between atoms: O2_10  and  C9_11 
REMARK    5  A    between atoms: C12_14  and  N1_15 
REMARK    6  A    between atoms: N1_15  and  C13_16 
ROOT
HETATM    1  C9  UNL     1      24.724   0.813  52.661  1.00  0.00     0.091 A 
HETATM    2  C10 UNL     1      24.772  -0.237  53.560  1.00  0.00     0.041 A 
HETATM    3  C11 UNL     1      25.936  -0.922  53.833  1.00  0.00     0.032 A 
HETATM    4  C12 UNL     1      27.089  -0.520  53.166  1.00  0.00     0.031 A 
HETATM    5  C14 UNL     1      27.144   0.527  52.243  1.00  0.00     0.056 A 
HETATM    6  C15 UNL     1      25.919   1.172  52.021  1.00  0.00     0.069 A 
HETATM    7 CL1  UNL     1      26.022   2.489  50.845  1.00  0.00    -0.081 Cl
ENDROOT
BRANCH   1   8
HETATM    8  O2  UNL     1      23.724   1.527  52.317  1.00  0.00    -0.345 OA
BRANCH   8   9
HETATM    9  C8  UNL     1      22.640   2.252  52.198  1.00  0.00     0.217 C 
BRANCH   9  10
HETATM   10  C7  UNL     1      21.405   1.380  52.330  1.00  0.00    -0.001 A 
HETATM   11  C2  UNL     1      20.640   1.382  51.160  1.00  0.00     0.076 A 
HETATM   12  C3  UNL     1      19.497   0.593  51.222  1.00  0.00     0.037 A 
HETATM   13  C4  UNL     1      19.116  -0.147  52.330  1.00  0.00     0.003 A 
HETATM   14  C5  UNL     1      19.915  -0.104  53.450  1.00  0.00     0.001 A 
HETATM   15  C6  UNL     1      21.063   0.659  53.456  1.00  0.00     0.012 A 
BRANCH  11  16
HETATM   16  O1  UNL     1      20.972   2.098  50.029  1.00  0.00    -0.355 OA
HETATM   17  C1  UNL     1      21.392   1.374  48.889  1.00  0.00     0.210 C 
ENDBRANCH  11  16
ENDBRANCH   9  10
ENDBRANCH   8   9
ENDBRANCH   1   8
BRANCH   4  18
HETATM   18  N1  UNL     1      28.288  -1.207  53.438  1.00  0.00    -0.365 N 
HETATM   19  H12 UNL     1      28.373  -2.248  53.278  1.00  0.00     0.162 HD
BRANCH  18  20
HETATM   20  C13 UNL     1      29.477  -0.523  53.953  1.00  0.00     0.345 C 
HETATM   21  F1  UNL     1      29.032   0.294  54.993  1.00  0.00    -0.234 F 
ENDBRANCH  18  20
ENDBRANCH   4  18
TORSDOF 6
ENDMDL
MODEL 9
REMARK VINA RESULT:      -6.3      6.271      8.118
REMARK  6 active torsions:
REMARK  status: ('A' for Active; 'I' for Inactive)
REMARK    1  A    between atoms: O1_2  and  C2_3 
REMARK    2  A    between atoms: C7_8  and  C8_9 
REMARK    3  A    between atoms: C8_9  and  O2_10 
REMARK    4  A    between atoms: O2_10  and  C9_11 
REMARK    5  A    between atoms: C12_14  and  N1_15 
REMARK    6  A    between atoms: N1_15  and  C13_16 
ROOT
HETATM    1  C9  UNL     1      25.757   4.070  50.128  1.00  0.00     0.091 A 
HETATM    2  C10 UNL     1      26.879   3.858  49.348  1.00  0.00     0.041 A 
HETATM    3  C11 UNL     1      27.489   4.873  48.642  1.00  0.00     0.032 A 
HETATM    4  C12 UNL     1      26.934   6.145  48.737  1.00  0.00     0.031 A 
HETATM    5  C14 UNL     1      25.805   6.460  49.497  1.00  0.00     0.056 A 
HETATM    6  C15 UNL     1      25.245   5.374  50.184  1.00  0.00     0.069 A 
HETATM    7 CL1  UNL     1      23.816   5.806  51.133  1.00  0.00    -0.081 Cl
ENDROOT
BRANCH   1   8
HETATM    8  O2  UNL     1      25.098   3.231  50.827  1.00  0.00    -0.345 OA
BRANCH   8   9
HETATM    9  C8  UNL     1      24.269   2.367  51.357  1.00  0.00     0.217 C 
BRANCH   9  10
HETATM   10  C7  UNL     1      25.034   1.225  51.999  1.00  0.00    -0.001 A 
HETATM   11  C2  UNL     1      24.263   0.552  52.950  1.00  0.00     0.076 A 
HETATM   12  C3  UNL     1      24.913  -0.511  53.567  1.00  0.00     0.037 A 
HETATM   13  C4  UNL     1      26.213  -0.900  53.289  1.00  0.00     0.003 A 
HETATM   14  C5  UNL     1      26.918  -0.194  52.340  1.00  0.00     0.001 A 
HETATM   15  C6  UNL     1      26.333   0.871  51.691  1.00  0.00     0.012 A 
BRANCH  11  16
HETATM   16  O1  UNL     1      22.965   0.895  53.265  1.00  0.00    -0.355 OA
HETATM   17  C1  UNL     1      21.993  -0.133  53.273  1.00  0.00     0.210 C 
ENDBRANCH  11  16
ENDBRANCH   9  10
ENDBRANCH   8   9
ENDBRANCH   1   8
BRANCH   4  18
HETATM   18  N1  UNL     1      27.548   7.193  48.024  1.00  0.00    -0.365 N 
HETATM   19  H12 UNL     1      27.128   7.570  47.130  1.00  0.00     0.162 HD
BRANCH  18  20
HETATM   20  C13 UNL     1      28.793   7.817  48.478  1.00  0.00     0.345 C 
HETATM   21  F1  UNL     1      28.445   8.636  49.553  1.00  0.00    -0.234 F 
ENDBRANCH  18  20
ENDBRANCH   4  18
TORSDOF 6
ENDMDL
