MODEL 1
REMARK VINA RESULT:      -6.9      0.000      0.000
REMARK  6 active torsions:
REMARK  status: ('A' for Active; 'I' for Inactive)
REMARK    1  A    between atoms: C2_2  and  S1_3 
REMARK    2  A    between atoms: S1_3  and  C3_4 
REMARK    3  A    between atoms: C3_4  and  N1_5 
REMARK    4  A    between atoms: C4_6  and  C5_7 
REMARK    5  A    between atoms: C7_11  and  N4_12 
REMARK    6  A    between atoms: N4_12  and  C8_13 
ROOT
HETATM    1  C5  UNL     1      25.802   2.135  52.026  1.00  0.00     0.085 A 
HETATM    2  N2  UNL     1      25.703   3.168  51.171  1.00  0.00    -0.240 NA
HETATM    3  C6  UNL     1      24.608   3.438  50.428  1.00  0.00     0.236 A 
HETATM    4  N3  UNL     1      23.583   2.586  50.597  1.00  0.00    -0.224 NA
HETATM    5  C7  UNL     1      23.617   1.549  51.427  1.00  0.00     0.137 A 
HETATM    6  C14 UNL     1      24.739   1.280  52.179  1.00  0.00     0.014 A 
HETATM    7  C15 UNL     1      24.844   0.123  53.101  1.00  0.00     0.055 C 
ENDROOT
BRANCH   5   8
HETATM    8  N4  UNL     1      22.467   0.755  51.532  1.00  0.00    -0.340 N 
HETATM    9  H8  UNL     1      22.619   0.027  50.760  1.00  0.00     0.167 HD
BRANCH   8  10
HETATM   10  C8  UNL     1      21.268   0.270  52.025  1.00  0.00     0.035 A 
HETATM   11  C9  UNL     1      20.996  -0.287  53.288  1.00  0.00     0.029 A 
HETATM   12  C10 UNL     1      19.714  -0.641  53.561  1.00  0.00     0.004 A 
HETATM   13  C11 UNL     1      18.700  -0.465  52.629  1.00  0.00     0.019 A 
HETATM   14  C12 UNL     1      18.926   0.074  51.380  1.00  0.00     0.013 A 
HETATM   15 BR1  UNL     1      17.437   0.258  50.207  1.00  0.00    -0.051 Br
HETATM   16  C13 UNL     1      20.233   0.435  51.107  1.00  0.00     0.048 A 
ENDBRANCH   8  10
ENDBRANCH   5   8
BRANCH   1  17
HETATM   17  C4  UNL     1      27.042   2.078  52.740  1.00  0.00     0.143 C 
HETATM   18  N1  UNL     1      28.306   2.341  52.807  1.00  0.00    -0.289 NA
BRANCH  18  19
HETATM   19  C3  UNL     1      29.040   1.954  53.978  1.00  0.00     0.226 C 
BRANCH  19  20
HETATM   20  S1  UNL     1      28.603   0.354  54.663  1.00  0.00    -0.120 SA
BRANCH  20  21
HETATM   21  C2  UNL     1      29.721  -0.848  53.868  1.00  0.00     0.036 C 
HETATM   22  C1  UNL     1      29.049  -1.725  53.128  1.00  0.00     0.018 C 
ENDBRANCH  20  21
ENDBRANCH  19  20
ENDBRANCH  18  19
ENDBRANCH   1  17
TORSDOF 6
ENDMDL
MODEL 2
REMARK VINA RESULT:      -6.8      4.170      7.469
REMARK  6 active torsions:
REMARK  status: ('A' for Active; 'I' for Inactive)
REMARK    1  A    between atoms: C2_2  and  S1_3 
REMARK    2  A    between atoms: S1_3  and  C3_4 
REMARK    3  A    between atoms: C3_4  and  N1_5 
REMARK    4  A    between atoms: C4_6  and  C5_7 
REMARK    5  A    between atoms: C7_11  and  N4_12 
REMARK    6  A    between atoms: N4_12  and  C8_13 
ROOT
HETATM    1  C5  UNL     1      21.750   0.988  53.116  1.00  0.00     0.085 A 
HETATM    2  N2  UNL     1      21.130   0.333  54.115  1.00  0.00    -0.240 NA
HETATM    3  C6  UNL     1      21.678  -0.688  54.808  1.00  0.00     0.236 A 
HETATM    4  N3  UNL     1      22.923  -1.026  54.434  1.00  0.00    -0.224 NA
HETATM    5  C7  UNL     1      23.589  -0.418  53.458  1.00  0.00     0.137 A 
HETATM    6  C14 UNL     1      23.022   0.621  52.754  1.00  0.00     0.014 A 
HETATM    7  C15 UNL     1      23.707   1.319  51.639  1.00  0.00     0.055 C 
ENDROOT
BRANCH   5   8
HETATM    8  N4  UNL     1      24.894  -0.849  53.187  1.00  0.00    -0.340 N 
HETATM    9  H8  UNL     1      24.734  -1.643  52.486  1.00  0.00     0.167 HD
BRANCH   8  10
HETATM   10  C8  UNL     1      26.278  -0.882  53.206  1.00  0.00     0.035 A 
HETATM   11  C9  UNL     1      27.136  -1.961  52.927  1.00  0.00     0.029 A 
HETATM   12  C10 UNL     1      28.474  -1.730  52.956  1.00  0.00     0.004 A 
HETATM   13  C11 UNL     1      28.986  -0.474  53.253  1.00  0.00     0.019 A 
HETATM   14  C12 UNL     1      28.178   0.607  53.535  1.00  0.00     0.013 A 
HETATM   15 BR1  UNL     1      29.022   2.270  53.923  1.00  0.00    -0.051 Br
HETATM   16  C13 UNL     1      26.816   0.368  53.503  1.00  0.00     0.048 A 
ENDBRANCH   8  10
ENDBRANCH   5   8
BRANCH   1  17
HETATM   17  C4  UNL     1      20.990   2.067  52.560  1.00  0.00     0.143 C 
HETATM   18  N1  UNL     1      19.975   2.865  52.616  1.00  0.00    -0.289 NA
BRANCH  18  19
HETATM   19  C3  UNL     1      19.801   3.851  51.588  1.00  0.00     0.226 C 
BRANCH  19  20
HETATM   20  S1  UNL     1      21.262   4.201  50.608  1.00  0.00    -0.120 SA
BRANCH  20  21
HETATM   21  C2  UNL     1      22.163   5.508  51.507  1.00  0.00     0.036 C 
HETATM   22  C1  UNL     1      23.258   5.031  52.093  1.00  0.00     0.018 C 
ENDBRANCH  20  21
ENDBRANCH  19  20
ENDBRANCH  18  19
ENDBRANCH   1  17
TORSDOF 6
ENDMDL
MODEL 3
REMARK VINA RESULT:      -6.8      2.732      4.223
REMARK  6 active torsions:
REMARK  status: ('A' for Active; 'I' for Inactive)
REMARK    1  A    between atoms: C2_2  and  S1_3 
REMARK    2  A    between atoms: S1_3  and  C3_4 
REMARK    3  A    between atoms: C3_4  and  N1_5 
REMARK    4  A    between atoms: C4_6  and  C5_7 
REMARK    5  A    between atoms: C7_11  and  N4_12 
REMARK    6  A    between atoms: N4_12  and  C8_13 
ROOT
HETATM    1  C5  UNL     1      23.328  -0.116  53.610  1.00  0.00     0.085 A 
HETATM    2  N2  UNL     1      23.790  -0.875  54.620  1.00  0.00    -0.240 NA
HETATM    3  C6  UNL     1      23.007  -1.625  55.425  1.00  0.00     0.236 A 
HETATM    4  N3  UNL     1      21.693  -1.570  55.153  1.00  0.00    -0.224 NA
HETATM    5  C7  UNL     1      21.176  -0.842  54.169  1.00  0.00     0.137 A 
HETATM    6  C14 UNL     1      21.981  -0.078  53.353  1.00  0.00     0.014 A 
HETATM    7  C15 UNL     1      21.457   0.773  52.257  1.00  0.00     0.055 C 
ENDROOT
BRANCH   5   8
HETATM    8  N4  UNL     1      19.789  -0.897  53.971  1.00  0.00    -0.340 N 
HETATM    9  H8  UNL     1      19.419  -0.275  54.761  1.00  0.00     0.167 HD
BRANCH   8  10
HETATM   10  C8  UNL     1      18.576  -1.204  53.379  1.00  0.00     0.035 A 
HETATM   11  C9  UNL     1      17.821  -0.440  52.472  1.00  0.00     0.029 A 
HETATM   12  C10 UNL     1      16.678  -0.985  51.982  1.00  0.00     0.004 A 
HETATM   13  C11 UNL     1      16.261  -2.254  52.360  1.00  0.00     0.019 A 
HETATM   14  C12 UNL     1      16.971  -3.033  53.249  1.00  0.00     0.013 A 
HETATM   15 BR1  UNL     1      16.277  -4.756  53.673  1.00  0.00    -0.051 Br
HETATM   16  C13 UNL     1      18.135  -2.474  53.745  1.00  0.00     0.048 A 
ENDBRANCH   8  10
ENDBRANCH   5   8
BRANCH   1  17
HETATM   17  C4  UNL     1      24.351   0.553  52.862  1.00  0.00     0.143 C 
HETATM   18  N1  UNL     1      24.808   1.626  52.305  1.00  0.00    -0.289 NA
BRANCH  18  19
HETATM   19  C3  UNL     1      26.078   1.582  51.638  1.00  0.00     0.226 C 
BRANCH  19  20
HETATM   20  S1  UNL     1      27.494   1.992  52.661  1.00  0.00    -0.120 SA
BRANCH  20  21
HETATM   21  C2  UNL     1      28.083   0.409  53.350  1.00  0.00     0.036 C 
HETATM   22  C1  UNL     1      27.652   0.229  54.596  1.00  0.00     0.018 C 
ENDBRANCH  20  21
ENDBRANCH  19  20
ENDBRANCH  18  19
ENDBRANCH   1  17
TORSDOF 6
ENDMDL
MODEL 4
REMARK VINA RESULT:      -6.7      3.087      4.842
REMARK  6 active torsions:
REMARK  status: ('A' for Active; 'I' for Inactive)
REMARK    1  A    between atoms: C2_2  and  S1_3 
REMARK    2  A    between atoms: S1_3  and  C3_4 
REMARK    3  A    between atoms: C3_4  and  N1_5 
REMARK    4  A    between atoms: C4_6  and  C5_7 
REMARK    5  A    between atoms: C7_11  and  N4_12 
REMARK    6  A    between atoms: N4_12  and  C8_13 
ROOT
HETATM    1  C5  UNL     1      23.351  -0.008  53.587  1.00  0.00     0.085 A 
HETATM    2  N2  UNL     1      23.859  -0.753  54.586  1.00  0.00    -0.240 NA
HETATM    3  C6  UNL     1      23.120  -1.537  55.399  1.00  0.00     0.236 A 
HETATM    4  N3  UNL     1      21.800  -1.535  55.146  1.00  0.00    -0.224 NA
HETATM    5  C7  UNL     1      21.239  -0.824  54.174  1.00  0.00     0.137 A 
HETATM    6  C14 UNL     1      22.000  -0.024  53.351  1.00  0.00     0.014 A 
HETATM    7  C15 UNL     1      21.424   0.811  52.268  1.00  0.00     0.055 C 
ENDROOT
BRANCH   5   8
HETATM    8  N4  UNL     1      19.853  -0.935  53.997  1.00  0.00    -0.340 N 
HETATM    9  H8  UNL     1      19.470  -0.463  54.879  1.00  0.00     0.167 HD
BRANCH   8  10
HETATM   10  C8  UNL     1      18.643  -1.225  53.389  1.00  0.00     0.035 A 
HETATM   11  C9  UNL     1      17.926  -0.464  52.449  1.00  0.00     0.029 A 
HETATM   12  C10 UNL     1      16.779  -0.991  51.950  1.00  0.00     0.004 A 
HETATM   13  C11 UNL     1      16.321  -2.239  52.350  1.00  0.00     0.019 A 
HETATM   14  C12 UNL     1      16.993  -3.014  53.271  1.00  0.00     0.013 A 
HETATM   15 BR1  UNL     1      16.246  -4.707  53.723  1.00  0.00    -0.051 Br
HETATM   16  C13 UNL     1      18.162  -2.474  53.776  1.00  0.00     0.048 A 
ENDBRANCH   8  10
ENDBRANCH   5   8
BRANCH   1  17
HETATM   17  C4  UNL     1      24.334   0.706  52.828  1.00  0.00     0.143 C 
HETATM   18  N1  UNL     1      25.468   0.730  52.208  1.00  0.00    -0.289 NA
BRANCH  18  19
HETATM   19  C3  UNL     1      25.897   1.945  51.578  1.00  0.00     0.226 C 
BRANCH  19  20
HETATM   20  S1  UNL     1      24.586   2.944  50.869  1.00  0.00    -0.120 SA
BRANCH  20  21
HETATM   21  C2  UNL     1      25.364   3.900  49.524  1.00  0.00     0.036 C 
HETATM   22  C1  UNL     1      26.673   3.674  49.457  1.00  0.00     0.018 C 
ENDBRANCH  20  21
ENDBRANCH  19  20
ENDBRANCH  18  19
ENDBRANCH   1  17
TORSDOF 6
ENDMDL
MODEL 5
REMARK VINA RESULT:      -6.5      4.161      6.951
REMARK  6 active torsions:
REMARK  status: ('A' for Active; 'I' for Inactive)
REMARK    1  A    between atoms: C2_2  and  S1_3 
REMARK    2  A    between atoms: S1_3  and  C3_4 
REMARK    3  A    between atoms: C3_4  and  N1_5 
REMARK    4  A    between atoms: C4_6  and  C5_7 
REMARK    5  A    between atoms: C7_11  and  N4_12 
REMARK    6  A    between atoms: N4_12  and  C8_13 
ROOT
HETATM    1  C5  UNL     1      24.478   1.626  51.727  1.00  0.00     0.085 A 
HETATM    2  N2  UNL     1      23.194   1.623  51.324  1.00  0.00    -0.240 NA
HETATM    3  C6  UNL     1      22.719   2.360  50.297  1.00  0.00     0.236 A 
HETATM    4  N3  UNL     1      23.632   3.126  49.677  1.00  0.00    -0.224 NA
HETATM    5  C7  UNL     1      24.914   3.171  50.025  1.00  0.00     0.137 A 
HETATM    6  C14 UNL     1      25.390   2.417  51.075  1.00  0.00     0.014 A 
HETATM    7  C15 UNL     1      26.803   2.447  51.525  1.00  0.00     0.055 C 
ENDROOT
BRANCH   5   8
HETATM    8  N4  UNL     1      25.769   3.988  49.275  1.00  0.00    -0.340 N 
HETATM    9  H8  UNL     1      26.075   3.335  48.482  1.00  0.00     0.167 HD
BRANCH   8  10
HETATM   10  C8  UNL     1      26.448   5.123  48.865  1.00  0.00     0.035 A 
HETATM   11  C9  UNL     1      25.960   6.433  48.711  1.00  0.00     0.029 A 
HETATM   12  C10 UNL     1      26.843   7.399  48.349  1.00  0.00     0.004 A 
HETATM   13  C11 UNL     1      28.184   7.112  48.135  1.00  0.00     0.019 A 
HETATM   14  C12 UNL     1      28.701   5.840  48.273  1.00  0.00     0.013 A 
HETATM   15 BR1  UNL     1      30.562   5.595  47.949  1.00  0.00    -0.051 Br
HETATM   16  C13 UNL     1      27.798   4.860  48.643  1.00  0.00     0.048 A 
ENDBRANCH   8  10
ENDBRANCH   5   8
BRANCH   1  17
HETATM   17  C4  UNL     1      24.757   0.726  52.806  1.00  0.00     0.143 C 
HETATM   18  N1  UNL     1      24.343  -0.113  53.698  1.00  0.00    -0.289 NA
BRANCH  18  19
HETATM   19  C3  UNL     1      25.298  -0.741  54.565  1.00  0.00     0.226 C 
BRANCH  19  20
HETATM   20  S1  UNL     1      26.778   0.217  54.897  1.00  0.00    -0.120 SA
BRANCH  20  21
HETATM   21  C2  UNL     1      28.079  -0.493  53.833  1.00  0.00     0.036 C 
HETATM   22  C1  UNL     1      29.114   0.333  53.710  1.00  0.00     0.018 C 
ENDBRANCH  20  21
ENDBRANCH  19  20
ENDBRANCH  18  19
ENDBRANCH   1  17
TORSDOF 6
ENDMDL
MODEL 6
REMARK VINA RESULT:      -6.5      4.726      8.128
REMARK  6 active torsions:
REMARK  status: ('A' for Active; 'I' for Inactive)
REMARK    1  A    between atoms: C2_2  and  S1_3 
REMARK    2  A    between atoms: S1_3  and  C3_4 
REMARK    3  A    between atoms: C3_4  and  N1_5 
REMARK    4  A    between atoms: C4_6  and  C5_7 
REMARK    5  A    between atoms: C7_11  and  N4_12 
REMARK    6  A    between atoms: N4_12  and  C8_13 
ROOT
HETATM    1  C5  UNL     1      24.499   2.017  51.496  1.00  0.00     0.085 A 
HETATM    2  N2  UNL     1      25.365   1.552  52.415  1.00  0.00    -0.240 NA
HETATM    3  C6  UNL     1      26.684   1.837  52.428  1.00  0.00     0.236 A 
HETATM    4  N3  UNL     1      27.102   2.643  51.438  1.00  0.00    -0.224 NA
HETATM    5  C7  UNL     1      26.298   3.137  50.503  1.00  0.00     0.137 A 
HETATM    6  C14 UNL     1      24.953   2.838  50.495  1.00  0.00     0.014 A 
HETATM    7  C15 UNL     1      24.014   3.339  49.462  1.00  0.00     0.055 C 
ENDROOT
BRANCH   5   8
HETATM    8  N4  UNL     1      26.856   3.991  49.542  1.00  0.00    -0.340 N 
HETATM    9  H8  UNL     1      27.382   3.308  48.905  1.00  0.00     0.167 HD
BRANCH   8  10
HETATM   10  C8  UNL     1      27.133   5.157  48.849  1.00  0.00     0.035 A 
HETATM   11  C9  UNL     1      26.265   6.215  48.524  1.00  0.00     0.029 A 
HETATM   12  C10 UNL     1      26.790   7.290  47.882  1.00  0.00     0.004 A 
HETATM   13  C11 UNL     1      28.137   7.350  47.552  1.00  0.00     0.019 A 
HETATM   14  C12 UNL     1      29.019   6.332  47.850  1.00  0.00     0.013 A 
HETATM   15 BR1  UNL     1      30.840   6.555  47.337  1.00  0.00    -0.051 Br
HETATM   16  C13 UNL     1      28.480   5.240  48.505  1.00  0.00     0.048 A 
ENDBRANCH   8  10
ENDBRANCH   5   8
BRANCH   1  17
HETATM   17  C4  UNL     1      23.141   1.619  51.713  1.00  0.00     0.143 C 
HETATM   18  N1  UNL     1      22.216   0.718  51.652  1.00  0.00    -0.289 NA
BRANCH  18  19
HETATM   19  C3  UNL     1      20.894   1.039  52.107  1.00  0.00     0.226 C 
BRANCH  19  20
HETATM   20  S1  UNL     1      20.216  -0.075  53.338  1.00  0.00    -0.120 SA
BRANCH  20  21
HETATM   21  C2  UNL     1      21.486  -0.208  54.641  1.00  0.00     0.036 C 
HETATM   22  C1  UNL     1      21.958  -1.448  54.738  1.00  0.00     0.018 C 
ENDBRANCH  20  21
ENDBRANCH  19  20
ENDBRANCH  18  19
ENDBRANCH   1  17
TORSDOF 6
ENDMDL
MODEL 7
REMARK VINA RESULT:      -6.5      2.749      4.492
REMARK  6 active torsions:
REMARK  status: ('A' for Active; 'I' for Inactive)
REMARK    1  A    between atoms: C2_2  and  S1_3 
REMARK    2  A    between atoms: S1_3  and  C3_4 
REMARK    3  A    between atoms: C3_4  and  N1_5 
REMARK    4  A    between atoms: C4_6  and  C5_7 
REMARK    5  A    between atoms: C7_11  and  N4_12 
REMARK    6  A    between atoms: N4_12  and  C8_13 
ROOT
HETATM    1  C5  UNL     1      26.188   2.645  51.282  1.00  0.00     0.085 A 
HETATM    2  N2  UNL     1      27.245   1.949  51.739  1.00  0.00    -0.240 NA
HETATM    3  C6  UNL     1      27.162   0.950  52.644  1.00  0.00     0.236 A 
HETATM    4  N3  UNL     1      25.920   0.678  53.078  1.00  0.00    -0.224 NA
HETATM    5  C7  UNL     1      24.837   1.326  52.664  1.00  0.00     0.137 A 
HETATM    6  C14 UNL     1      24.931   2.346  51.742  1.00  0.00     0.014 A 
HETATM    7  C15 UNL     1      23.760   3.121  51.263  1.00  0.00     0.055 C 
ENDROOT
BRANCH   5   8
HETATM    8  N4  UNL     1      23.596   0.923  53.173  1.00  0.00    -0.340 N 
HETATM    9  H8  UNL     1      23.218   1.828  53.604  1.00  0.00     0.167 HD
BRANCH   8  10
HETATM   10  C8  UNL     1      22.508   0.110  53.443  1.00  0.00     0.035 A 
HETATM   11  C9  UNL     1      22.397  -0.927  54.387  1.00  0.00     0.029 A 
HETATM   12  C10 UNL     1      21.196  -1.548  54.507  1.00  0.00     0.004 A 
HETATM   13  C11 UNL     1      20.108  -1.179  53.728  1.00  0.00     0.019 A 
HETATM   14  C12 UNL     1      20.177  -0.169  52.790  1.00  0.00     0.013 A 
HETATM   15 BR1  UNL     1      18.603   0.229  51.795  1.00  0.00    -0.051 Br
HETATM   16  C13 UNL     1      21.402   0.461  52.672  1.00  0.00     0.048 A 
ENDBRANCH   8  10
ENDBRANCH   5   8
BRANCH   1  17
HETATM   17  C4  UNL     1      26.515   3.625  50.290  1.00  0.00     0.143 C 
HETATM   18  N1  UNL     1      27.233   4.000  49.282  1.00  0.00    -0.289 NA
BRANCH  18  19
HETATM   19  C3  UNL     1      26.986   5.282  48.685  1.00  0.00     0.226 C 
BRANCH  19  20
HETATM   20  S1  UNL     1      25.323   5.919  48.898  1.00  0.00    -0.120 SA
BRANCH  20  21
HETATM   21  C2  UNL     1      25.415   7.089  50.295  1.00  0.00     0.036 C 
HETATM   22  C1  UNL     1      24.408   6.912  51.147  1.00  0.00     0.018 C 
ENDBRANCH  20  21
ENDBRANCH  19  20
ENDBRANCH  18  19
ENDBRANCH   1  17
TORSDOF 6
ENDMDL
MODEL 8
REMARK VINA RESULT:      -6.5      4.336      7.858
REMARK  6 active torsions:
REMARK  status: ('A' for Active; 'I' for Inactive)
REMARK    1  A    between atoms: C2_2  and  S1_3 
REMARK    2  A    between atoms: S1_3  and  C3_4 
REMARK    3  A    between atoms: C3_4  and  N1_5 
REMARK    4  A    between atoms: C4_6  and  C5_7 
REMARK    5  A    between atoms: C7_11  and  N4_12 
REMARK    6  A    between atoms: N4_12  and  C8_13 
ROOT
HETATM    1  C5  UNL     1      21.380   0.890  53.046  1.00  0.00     0.085 A 
HETATM    2  N2  UNL     1      20.821  -0.099  53.766  1.00  0.00    -0.240 NA
HETATM    3  C6  UNL     1      21.519  -1.006  54.483  1.00  0.00     0.236 A 
HETATM    4  N3  UNL     1      22.854  -0.860  54.438  1.00  0.00    -0.224 NA
HETATM    5  C7  UNL     1      23.466   0.097  53.750  1.00  0.00     0.137 A 
HETATM    6  C14 UNL     1      22.747   1.017  53.019  1.00  0.00     0.014 A 
HETATM    7  C15 UNL     1      23.377   2.088  52.211  1.00  0.00     0.055 C 
ENDROOT
BRANCH   5   8
HETATM    8  N4  UNL     1      24.865   0.157  53.812  1.00  0.00    -0.340 N 
HETATM    9  H8  UNL     1      25.122  -0.820  54.171  1.00  0.00     0.167 HD
BRANCH   8  10
HETATM   10  C8  UNL     1      26.149   0.654  53.665  1.00  0.00     0.035 A 
HETATM   11  C9  UNL     1      26.573   1.994  53.613  1.00  0.00     0.029 A 
HETATM   12  C10 UNL     1      27.907   2.233  53.522  1.00  0.00     0.004 A 
HETATM   13  C11 UNL     1      28.827   1.195  53.479  1.00  0.00     0.019 A 
HETATM   14  C12 UNL     1      28.451  -0.131  53.525  1.00  0.00     0.013 A 
HETATM   15 BR1  UNL     1      29.826  -1.449  53.459  1.00  0.00    -0.051 Br
HETATM   16  C13 UNL     1      27.092  -0.370  53.619  1.00  0.00     0.048 A 
ENDBRANCH   8  10
ENDBRANCH   5   8
BRANCH   1  17
HETATM   17  C4  UNL     1      20.438   1.759  52.408  1.00  0.00     0.143 C 
HETATM   18  N1  UNL     1      19.766   2.863  52.394  1.00  0.00    -0.289 NA
BRANCH  18  19
HETATM   19  C3  UNL     1      18.887   3.135  51.293  1.00  0.00     0.226 C 
BRANCH  19  20
HETATM   20  S1  UNL     1      18.798   1.846  50.048  1.00  0.00    -0.120 SA
BRANCH  20  21
HETATM   21  C2  UNL     1      20.059   2.272  48.801  1.00  0.00     0.036 C 
HETATM   22  C1  UNL     1      21.076   1.414  48.822  1.00  0.00     0.018 C 
ENDBRANCH  20  21
ENDBRANCH  19  20
ENDBRANCH  18  19
ENDBRANCH   1  17
TORSDOF 6
ENDMDL
MODEL 9
REMARK VINA RESULT:      -6.5      2.662      4.469
REMARK  6 active torsions:
REMARK  status: ('A' for Active; 'I' for Inactive)
REMARK    1  A    between atoms: C2_2  and  S1_3 
REMARK    2  A    between atoms: S1_3  and  C3_4 
REMARK    3  A    between atoms: C3_4  and  N1_5 
REMARK    4  A    between atoms: C4_6  and  C5_7 
REMARK    5  A    between atoms: C7_11  and  N4_12 
REMARK    6  A    between atoms: N4_12  and  C8_13 
ROOT
HETATM    1  C5  UNL     1      22.617   0.217  53.452  1.00  0.00     0.085 A 
HETATM    2  N2  UNL     1      23.222  -0.570  54.360  1.00  0.00    -0.240 NA
HETATM    3  C6  UNL     1      22.595  -1.534  55.068  1.00  0.00     0.236 A 
HETATM    4  N3  UNL     1      21.285  -1.670  54.806  1.00  0.00    -0.224 NA
HETATM    5  C7  UNL     1      20.630  -0.927  53.920  1.00  0.00     0.137 A 
HETATM    6  C14 UNL     1      21.277   0.056  53.204  1.00  0.00     0.014 A 
HETATM    7  C15 UNL     1      20.593   0.933  52.223  1.00  0.00     0.055 C 
ENDROOT
BRANCH   5   8
HETATM    8  N4  UNL     1      19.269  -1.192  53.719  1.00  0.00    -0.340 N 
HETATM    9  H8  UNL     1      18.820  -0.234  53.893  1.00  0.00     0.167 HD
BRANCH   8  10
HETATM   10  C8  UNL     1      18.119  -1.890  53.393  1.00  0.00     0.035 A 
HETATM   11  C9  UNL     1      17.784  -3.223  53.693  1.00  0.00     0.029 A 
HETATM   12  C10 UNL     1      16.560  -3.670  53.312  1.00  0.00     0.004 A 
HETATM   13  C11 UNL     1      15.663  -2.845  52.647  1.00  0.00     0.019 A 
HETATM   14  C12 UNL     1      15.955  -1.534  52.332  1.00  0.00     0.013 A 
HETATM   15 BR1  UNL     1      14.625  -0.521  51.419  1.00  0.00    -0.051 Br
HETATM   16  C13 UNL     1      17.203  -1.083  52.724  1.00  0.00     0.048 A 
ENDBRANCH   8  10
ENDBRANCH   5   8
BRANCH   1  17
HETATM   17  C4  UNL     1      23.496   1.135  52.792  1.00  0.00     0.143 C 
HETATM   18  N1  UNL     1      24.192   2.224  52.807  1.00  0.00    -0.289 NA
BRANCH  18  19
HETATM   19  C3  UNL     1      24.943   2.591  51.641  1.00  0.00     0.226 C 
BRANCH  19  20
HETATM   20  S1  UNL     1      26.693   2.202  51.702  1.00  0.00    -0.120 SA
BRANCH  20  21
HETATM   21  C2  UNL     1      27.153   2.259  53.467  1.00  0.00     0.036 C 
HETATM   22  C1  UNL     1      28.473   2.260  53.627  1.00  0.00     0.018 C 
ENDBRANCH  20  21
ENDBRANCH  19  20
ENDBRANCH  18  19
ENDBRANCH   1  17
TORSDOF 6
ENDMDL
