MODEL 1
REMARK VINA RESULT:      -8.4      0.000      0.000
REMARK  4 active torsions:
REMARK  status: ('A' for Active; 'I' for Inactive)
REMARK    1  A    between atoms: C7_7  and  C8_8 
REMARK    2  A    between atoms: C14_14  and  N1_15 
REMARK    3  A    between atoms: N1_15  and  O1_16 
REMARK    4  A    between atoms: C16_18  and  C17_19 
ROOT
HETATM    1  C1  UNL     1      20.285   1.482  52.243  1.00  0.00     0.043 C 
HETATM    2  C2  UNL     1      21.229   1.110  53.095  1.00  0.00    -0.051 C 
HETATM    3  C3  UNL     1      20.701   0.470  54.328  1.00  0.00     0.004 C 
HETATM    4  C4  UNL     1      21.353  -0.604  54.820  1.00  0.00    -0.026 C 
HETATM    5  C5  UNL     1      22.541  -1.378  54.429  1.00  0.00     0.032 C 
HETATM    6  C6  UNL     1      23.743  -0.643  53.996  1.00  0.00     0.043 C 
HETATM    7  C7  UNL     1      23.597   0.566  53.184  1.00  0.00    -0.050 C 
HETATM    8  C16 UNL     1      22.659   1.385  52.723  1.00  0.00    -0.042 C 
ENDROOT
BRANCH   7   9
HETATM    9  C8  UNL     1      24.910   1.126  52.969  1.00  0.00     0.021 C 
HETATM   10  C9  UNL     1      26.198   1.166  53.199  1.00  0.00    -0.006 C 
HETATM   11  C10 UNL     1      26.627   0.164  54.152  1.00  0.00     0.026 C 
HETATM   12  C14 UNL     1      27.353   1.931  52.766  1.00  0.00     0.064 C 
HETATM   13  C11 UNL     1      27.736   0.220  54.827  1.00  0.00    -0.025 C 
HETATM   14  C12 UNL     1      28.826   0.593  54.219  1.00  0.00     0.014 C 
HETATM   15  C13 UNL     1      28.547   1.642  53.255  1.00  0.00     0.033 C 
BRANCH  12  16
HETATM   16  N1  UNL     1      26.987   2.941  51.821  1.00  0.00    -0.267 N 
HETATM   17  H13 UNL     1      26.797   3.899  52.151  1.00  0.00     0.194 HD
BRANCH  16  18
HETATM   18  O1  UNL     1      26.882   2.694  50.516  1.00  0.00    -0.285 OA
HETATM   19  C15 UNL     1      26.557   3.797  49.757  1.00  0.00     0.237 C 
ENDBRANCH  16  18
ENDBRANCH  12  16
ENDBRANCH   7   9
BRANCH   8  20
HETATM   20  C17 UNL     1      22.706   2.465  51.772  1.00  0.00     0.011 C 
HETATM   21  C18 UNL     1      23.215   2.223  50.394  1.00  0.00     0.015 C 
HETATM   22  C19 UNL     1      23.183   3.807  52.279  1.00  0.00     0.015 C 
ENDBRANCH   8  20
TORSDOF 4
ENDMDL
MODEL 2
REMARK VINA RESULT:      -7.9      1.578      4.561
REMARK  4 active torsions:
REMARK  status: ('A' for Active; 'I' for Inactive)
REMARK    1  A    between atoms: C7_7  and  C8_8 
REMARK    2  A    between atoms: C14_14  and  N1_15 
REMARK    3  A    between atoms: N1_15  and  O1_16 
REMARK    4  A    between atoms: C16_18  and  C17_19 
ROOT
HETATM    1  C1  UNL     1      24.547  -1.084  55.457  1.00  0.00     0.043 C 
HETATM    2  C2  UNL     1      23.601  -0.849  54.560  1.00  0.00    -0.051 C 
HETATM    3  C3  UNL     1      22.418  -1.738  54.694  1.00  0.00     0.004 C 
HETATM    4  C4  UNL     1      21.191  -1.200  54.532  1.00  0.00    -0.026 C 
HETATM    5  C5  UNL     1      20.667   0.143  54.235  1.00  0.00     0.032 C 
HETATM    6  C6  UNL     1      21.335   0.939  53.191  1.00  0.00     0.043 C 
HETATM    7  C7  UNL     1      22.793   0.890  53.066  1.00  0.00    -0.050 C 
HETATM    8  C16 UNL     1      23.843   0.238  53.552  1.00  0.00    -0.042 C 
ENDROOT
BRANCH   7   9
HETATM    9  C8  UNL     1      23.175   1.690  51.926  1.00  0.00     0.021 C 
HETATM   10  C9  UNL     1      23.040   2.055  50.677  1.00  0.00    -0.006 C 
HETATM   11  C10 UNL     1      21.979   1.341  49.998  1.00  0.00     0.026 C 
HETATM   12  C14 UNL     1      23.649   2.991  49.749  1.00  0.00     0.064 C 
HETATM   13  C11 UNL     1      21.878   1.229  48.707  1.00  0.00    -0.025 C 
HETATM   14  C12 UNL     1      22.109   2.273  47.963  1.00  0.00     0.014 C 
HETATM   15  C13 UNL     1      23.197   3.065  48.508  1.00  0.00     0.033 C 
BRANCH  12  16
HETATM   16  N1  UNL     1      24.709   3.725  50.367  1.00  0.00    -0.267 N 
HETATM   17  H13 UNL     1      24.492   4.588  50.887  1.00  0.00     0.194 HD
BRANCH  16  18
HETATM   18  O1  UNL     1      25.981   3.335  50.301  1.00  0.00    -0.285 OA
HETATM   19  C15 UNL     1      26.731   4.008  49.360  1.00  0.00     0.237 C 
ENDBRANCH  16  18
ENDBRANCH  12  16
ENDBRANCH   7   9
BRANCH   8  20
HETATM   20  C17 UNL     1      25.259   0.457  53.415  1.00  0.00     0.011 C 
HETATM   21  C18 UNL     1      25.830   1.812  53.648  1.00  0.00     0.015 C 
HETATM   22  C19 UNL     1      25.948  -0.209  52.246  1.00  0.00     0.015 C 
ENDBRANCH   8  20
TORSDOF 4
ENDMDL
MODEL 3
REMARK VINA RESULT:      -7.9      2.212      4.500
REMARK  4 active torsions:
REMARK  status: ('A' for Active; 'I' for Inactive)
REMARK    1  A    between atoms: C7_7  and  C8_8 
REMARK    2  A    between atoms: C14_14  and  N1_15 
REMARK    3  A    between atoms: N1_15  and  O1_16 
REMARK    4  A    between atoms: C16_18  and  C17_19 
ROOT
HETATM    1  C1  UNL     1      22.758  -0.592  52.642  1.00  0.00     0.043 C 
HETATM    2  C2  UNL     1      23.867   0.110  52.824  1.00  0.00    -0.051 C 
HETATM    3  C3  UNL     1      24.811  -0.505  53.793  1.00  0.00     0.004 C 
HETATM    4  C4  UNL     1      26.130  -0.472  53.511  1.00  0.00    -0.026 C 
HETATM    5  C5  UNL     1      26.952   0.050  52.408  1.00  0.00     0.032 C 
HETATM    6  C6  UNL     1      26.637   1.387  51.873  1.00  0.00     0.043 C 
HETATM    7  C7  UNL     1      25.239   1.804  51.746  1.00  0.00    -0.050 C 
HETATM    8  C16 UNL     1      24.015   1.399  52.065  1.00  0.00    -0.042 C 
ENDROOT
BRANCH   7   9
HETATM    9  C8  UNL     1      25.217   3.168  51.277  1.00  0.00     0.021 C 
HETATM   10  C9  UNL     1      25.626   4.119  50.477  1.00  0.00    -0.006 C 
HETATM   11  C10 UNL     1      26.623   3.662  49.531  1.00  0.00     0.026 C 
HETATM   12  C14 UNL     1      25.367   5.529  50.246  1.00  0.00     0.064 C 
HETATM   13  C11 UNL     1      27.447   4.443  48.898  1.00  0.00    -0.025 C 
HETATM   14  C12 UNL     1      27.003   5.562  48.403  1.00  0.00     0.014 C 
HETATM   15  C13 UNL     1      26.018   6.162  49.285  1.00  0.00     0.033 C 
BRANCH  12  16
HETATM   16  N1  UNL     1      24.389   6.037  51.157  1.00  0.00    -0.267 N 
HETATM   17  H13 UNL     1      24.676   6.308  52.110  1.00  0.00     0.194 HD
BRANCH  16  18
HETATM   18  O1  UNL     1      23.107   6.177  50.824  1.00  0.00    -0.285 OA
HETATM   19  C15 UNL     1      22.720   7.482  50.603  1.00  0.00     0.237 C 
ENDBRANCH  16  18
ENDBRANCH  12  16
ENDBRANCH   7   9
BRANCH   8  20
HETATM   20  C17 UNL     1      22.713   1.888  51.696  1.00  0.00     0.011 C 
HETATM   21  C18 UNL     1      22.315   1.938  50.261  1.00  0.00     0.015 C 
HETATM   22  C19 UNL     1      22.207   3.113  52.423  1.00  0.00     0.015 C 
ENDBRANCH   8  20
TORSDOF 4
ENDMDL
MODEL 4
REMARK VINA RESULT:      -7.7      2.240      4.236
REMARK  4 active torsions:
REMARK  status: ('A' for Active; 'I' for Inactive)
REMARK    1  A    between atoms: C7_7  and  C8_8 
REMARK    2  A    between atoms: C14_14  and  N1_15 
REMARK    3  A    between atoms: N1_15  and  O1_16 
REMARK    4  A    between atoms: C16_18  and  C17_19 
ROOT
HETATM    1  C1  UNL     1      21.646  -1.665  54.233  1.00  0.00     0.043 C 
HETATM    2  C2  UNL     1      22.689  -0.852  54.156  1.00  0.00    -0.051 C 
HETATM    3  C3  UNL     1      23.652  -1.008  55.277  1.00  0.00     0.004 C 
HETATM    4  C4  UNL     1      24.971  -0.964  54.997  1.00  0.00    -0.026 C 
HETATM    5  C5  UNL     1      25.779  -0.791  53.780  1.00  0.00     0.032 C 
HETATM    6  C6  UNL     1      25.373   0.243  52.812  1.00  0.00     0.043 C 
HETATM    7  C7  UNL     1      23.950   0.469  52.551  1.00  0.00    -0.050 C 
HETATM    8  C16 UNL     1      22.754   0.099  52.993  1.00  0.00    -0.042 C 
ENDROOT
BRANCH   7   9
HETATM    9  C8  UNL     1      23.831   1.578  51.634  1.00  0.00     0.021 C 
HETATM   10  C9  UNL     1      23.734   2.858  51.379  1.00  0.00    -0.006 C 
HETATM   11  C10 UNL     1      23.743   3.669  52.579  1.00  0.00     0.026 C 
HETATM   12  C14 UNL     1      23.624   3.728  50.221  1.00  0.00     0.064 C 
HETATM   13  C11 UNL     1      23.296   4.887  52.645  1.00  0.00    -0.025 C 
HETATM   14  C12 UNL     1      23.574   5.715  51.679  1.00  0.00     0.014 C 
HETATM   15  C13 UNL     1      23.552   5.037  50.395  1.00  0.00     0.033 C 
BRANCH  12  16
HETATM   16  N1  UNL     1      23.608   2.978  49.004  1.00  0.00    -0.267 N 
HETATM   17  H13 UNL     1      24.495   2.787  48.514  1.00  0.00     0.194 HD
BRANCH  16  18
HETATM   18  O1  UNL     1      22.482   2.509  48.469  1.00  0.00    -0.285 OA
HETATM   19  C15 UNL     1      22.035   3.222  47.377  1.00  0.00     0.237 C 
ENDBRANCH  16  18
ENDBRANCH  12  16
ENDBRANCH   7   9
BRANCH   8  20
HETATM   20  C17 UNL     1      21.427   0.316  52.479  1.00  0.00     0.011 C 
HETATM   21  C18 UNL     1      21.155   0.146  51.025  1.00  0.00     0.015 C 
HETATM   22  C19 UNL     1      20.666   1.505  53.020  1.00  0.00     0.015 C 
ENDBRANCH   8  20
TORSDOF 4
ENDMDL
MODEL 5
REMARK VINA RESULT:      -7.5      2.238      4.216
REMARK  4 active torsions:
REMARK  status: ('A' for Active; 'I' for Inactive)
REMARK    1  A    between atoms: C7_7  and  C8_8 
REMARK    2  A    between atoms: C14_14  and  N1_15 
REMARK    3  A    between atoms: N1_15  and  O1_16 
REMARK    4  A    between atoms: C16_18  and  C17_19 
ROOT
HETATM    1  C1  UNL     1      19.813   0.664  51.023  1.00  0.00     0.043 C 
HETATM    2  C2  UNL     1      21.066   0.793  50.610  1.00  0.00    -0.051 C 
HETATM    3  C3  UNL     1      21.190   1.052  49.153  1.00  0.00     0.004 C 
HETATM    4  C4  UNL     1      22.106   1.952  48.739  1.00  0.00    -0.026 C 
HETATM    5  C5  UNL     1      23.095   2.819  49.399  1.00  0.00     0.032 C 
HETATM    6  C6  UNL     1      23.905   2.252  50.490  1.00  0.00     0.043 C 
HETATM    7  C7  UNL     1      23.291   1.319  51.437  1.00  0.00    -0.050 C 
HETATM    8  C16 UNL     1      22.159   0.651  51.632  1.00  0.00    -0.042 C 
ENDROOT
BRANCH   7   9
HETATM    9  C8  UNL     1      24.314   0.859  52.345  1.00  0.00     0.021 C 
HETATM   10  C9  UNL     1      25.483   0.979  52.921  1.00  0.00    -0.006 C 
HETATM   11  C10 UNL     1      26.203   2.157  52.484  1.00  0.00     0.026 C 
HETATM   12  C14 UNL     1      26.290   0.266  53.895  1.00  0.00     0.064 C 
HETATM   13  C11 UNL     1      27.488   2.316  52.596  1.00  0.00    -0.025 C 
HETATM   14  C12 UNL     1      28.074   1.956  53.701  1.00  0.00     0.014 C 
HETATM   15  C13 UNL     1      27.477   0.743  54.231  1.00  0.00     0.033 C 
BRANCH  12  16
HETATM   16  N1  UNL     1      25.628  -0.912  54.361  1.00  0.00    -0.267 N 
HETATM   17  H13 UNL     1      25.318  -1.623  53.681  1.00  0.00     0.194 HD
BRANCH  16  18
HETATM   18  O1  UNL     1      25.392  -1.136  55.653  1.00  0.00    -0.285 OA
HETATM   19  C15 UNL     1      24.062  -1.334  55.959  1.00  0.00     0.237 C 
ENDBRANCH  16  18
ENDBRANCH  12  16
ENDBRANCH   7   9
BRANCH   8  20
HETATM   20  C17 UNL     1      21.674  -0.116  52.748  1.00  0.00     0.011 C 
HETATM   21  C18 UNL     1      21.470   0.540  54.070  1.00  0.00     0.015 C 
HETATM   22  C19 UNL     1      22.249  -1.502  52.933  1.00  0.00     0.015 C 
ENDBRANCH   8  20
TORSDOF 4
ENDMDL
MODEL 6
REMARK VINA RESULT:      -7.4      2.022      4.474
REMARK  4 active torsions:
REMARK  status: ('A' for Active; 'I' for Inactive)
REMARK    1  A    between atoms: C7_7  and  C8_8 
REMARK    2  A    between atoms: C14_14  and  N1_15 
REMARK    3  A    between atoms: N1_15  and  O1_16 
REMARK    4  A    between atoms: C16_18  and  C17_19 
ROOT
HETATM    1  C1  UNL     1      24.740  -0.991  55.339  1.00  0.00     0.043 C 
HETATM    2  C2  UNL     1      23.755  -0.738  54.490  1.00  0.00    -0.051 C 
HETATM    3  C3  UNL     1      22.596  -1.657  54.629  1.00  0.00     0.004 C 
HETATM    4  C4  UNL     1      21.354  -1.138  54.536  1.00  0.00    -0.026 C 
HETATM    5  C5  UNL     1      20.793   0.204  54.318  1.00  0.00     0.032 C 
HETATM    6  C6  UNL     1      21.405   1.058  53.284  1.00  0.00     0.043 C 
HETATM    7  C7  UNL     1      22.857   1.045  53.103  1.00  0.00    -0.050 C 
HETATM    8  C16 UNL     1      23.938   0.396  53.520  1.00  0.00    -0.042 C 
ENDROOT
BRANCH   7   9
HETATM    9  C8  UNL     1      23.180   1.900  51.985  1.00  0.00     0.021 C 
HETATM   10  C9  UNL     1      23.451   3.073  51.472  1.00  0.00    -0.006 C 
HETATM   11  C10 UNL     1      23.451   4.130  52.462  1.00  0.00     0.026 C 
HETATM   12  C14 UNL     1      23.764   3.642  50.173  1.00  0.00     0.064 C 
HETATM   13  C11 UNL     1      23.316   5.393  52.188  1.00  0.00    -0.025 C 
HETATM   14  C12 UNL     1      23.955   5.889  51.168  1.00  0.00     0.014 C 
HETATM   15  C13 UNL     1      23.991   4.941  50.068  1.00  0.00     0.033 C 
BRANCH  12  16
HETATM   16  N1  UNL     1      23.775   2.641  49.153  1.00  0.00    -0.267 N 
HETATM   17  H13 UNL     1      24.533   1.941  49.137  1.00  0.00     0.194 HD
BRANCH  16  18
HETATM   18  O1  UNL     1      22.836   2.571  48.210  1.00  0.00    -0.285 OA
HETATM   19  C15 UNL     1      21.924   1.555  48.396  1.00  0.00     0.237 C 
ENDBRANCH  16  18
ENDBRANCH  12  16
ENDBRANCH   7   9
BRANCH   8  20
HETATM   20  C17 UNL     1      25.343   0.649  53.341  1.00  0.00     0.011 C 
HETATM   21  C18 UNL     1      25.935   1.933  53.811  1.00  0.00     0.015 C 
HETATM   22  C19 UNL     1      25.951   0.245  52.017  1.00  0.00     0.015 C 
ENDBRANCH   8  20
TORSDOF 4
ENDMDL
MODEL 7
REMARK VINA RESULT:      -7.3      2.389      4.941
REMARK  4 active torsions:
REMARK  status: ('A' for Active; 'I' for Inactive)
REMARK    1  A    between atoms: C7_7  and  C8_8 
REMARK    2  A    between atoms: C14_14  and  N1_15 
REMARK    3  A    between atoms: N1_15  and  O1_16 
REMARK    4  A    between atoms: C16_18  and  C17_19 
ROOT
HETATM    1  C1  UNL     1      22.968   5.210  49.392  1.00  0.00     0.043 C 
HETATM    2  C2  UNL     1      22.275   4.136  49.740  1.00  0.00    -0.051 C 
HETATM    3  C3  UNL     1      20.887   4.124  49.209  1.00  0.00     0.004 C 
HETATM    4  C4  UNL     1      20.391   2.958  48.743  1.00  0.00    -0.026 C 
HETATM    5  C5  UNL     1      20.898   1.584  48.606  1.00  0.00     0.032 C 
HETATM    6  C6  UNL     1      21.654   1.002  49.729  1.00  0.00     0.043 C 
HETATM    7  C7  UNL     1      22.578   1.843  50.491  1.00  0.00    -0.050 C 
HETATM    8  C16 UNL     1      22.953   3.112  50.606  1.00  0.00    -0.042 C 
ENDROOT
BRANCH   7   9
HETATM    9  C8  UNL     1      23.120   1.054  51.571  1.00  0.00     0.021 C 
HETATM   10  C9  UNL     1      22.986   0.370  52.679  1.00  0.00    -0.006 C 
HETATM   11  C10 UNL     1      21.616   0.324  53.145  1.00  0.00     0.026 C 
HETATM   12  C14 UNL     1      23.824  -0.378  53.599  1.00  0.00     0.064 C 
HETATM   13  C11 UNL     1      21.264   0.052  54.366  1.00  0.00    -0.025 C 
HETATM   14  C12 UNL     1      21.865  -0.917  54.995  1.00  0.00     0.014 C 
HETATM   15  C13 UNL     1      23.277  -0.958  54.654  1.00  0.00     0.033 C 
BRANCH  12  16
HETATM   16  N1  UNL     1      25.194  -0.364  53.189  1.00  0.00    -0.267 N 
HETATM   17  H13 UNL     1      25.513   0.346  52.513  1.00  0.00     0.194 HD
BRANCH  16  18
HETATM   18  O1  UNL     1      26.086  -1.239  53.648  1.00  0.00    -0.285 OA
HETATM   19  C15 UNL     1      26.868  -1.816  52.671  1.00  0.00     0.237 C 
ENDBRANCH  16  18
ENDBRANCH  12  16
ENDBRANCH   7   9
BRANCH   8  20
HETATM   20  C17 UNL     1      24.032   3.735  51.327  1.00  0.00     0.011 C 
HETATM   21  C18 UNL     1      25.427   3.242  51.154  1.00  0.00     0.015 C 
HETATM   22  C19 UNL     1      23.778   4.092  52.774  1.00  0.00     0.015 C 
ENDBRANCH   8  20
TORSDOF 4
ENDMDL
MODEL 8
REMARK VINA RESULT:      -7.3      3.045      6.247
REMARK  4 active torsions:
REMARK  status: ('A' for Active; 'I' for Inactive)
REMARK    1  A    between atoms: C7_7  and  C8_8 
REMARK    2  A    between atoms: C14_14  and  N1_15 
REMARK    3  A    between atoms: N1_15  and  O1_16 
REMARK    4  A    between atoms: C16_18  and  C17_19 
ROOT
HETATM    1  C1  UNL     1      25.214   2.405  53.225  1.00  0.00     0.043 C 
HETATM    2  C2  UNL     1      24.527   1.278  53.102  1.00  0.00    -0.051 C 
HETATM    3  C3  UNL     1      25.251   0.080  53.600  1.00  0.00     0.004 C 
HETATM    4  C4  UNL     1      24.556  -0.844  54.295  1.00  0.00    -0.026 C 
HETATM    5  C5  UNL     1      23.159  -0.995  54.731  1.00  0.00     0.032 C 
HETATM    6  C6  UNL     1      22.088  -0.674  53.770  1.00  0.00     0.043 C 
HETATM    7  C7  UNL     1      22.249   0.463  52.862  1.00  0.00    -0.050 C 
HETATM    8  C16 UNL     1      23.158   1.354  52.486  1.00  0.00    -0.042 C 
ENDROOT
BRANCH   7   9
HETATM    9  C8  UNL     1      21.104   0.504  51.985  1.00  0.00     0.021 C 
HETATM   10  C9  UNL     1      19.843   0.271  51.723  1.00  0.00    -0.006 C 
HETATM   11  C10 UNL     1      19.148  -0.350  52.831  1.00  0.00     0.026 C 
HETATM   12  C14 UNL     1      18.909   0.462  50.627  1.00  0.00     0.064 C 
HETATM   13  C11 UNL     1      18.035  -1.012  52.722  1.00  0.00    -0.025 C 
HETATM   14  C12 UNL     1      17.093  -0.541  51.957  1.00  0.00     0.014 C 
HETATM   15  C13 UNL     1      17.652   0.077  50.767  1.00  0.00     0.033 C 
BRANCH  12  16
HETATM   16  N1  UNL     1      19.544   1.072  49.500  1.00  0.00    -0.267 N 
HETATM   17  H13 UNL     1      19.939   0.476  48.757  1.00  0.00     0.194 HD
BRANCH  16  18
HETATM   18  O1  UNL     1      19.647   2.393  49.367  1.00  0.00    -0.285 OA
HETATM   19  C15 UNL     1      19.927   2.812  48.084  1.00  0.00     0.237 C 
ENDBRANCH  16  18
ENDBRANCH  12  16
ENDBRANCH   7   9
BRANCH   8  20
HETATM   20  C17 UNL     1      23.068   2.535  51.668  1.00  0.00     0.011 C 
HETATM   21  C18 UNL     1      22.062   3.587  51.986  1.00  0.00     0.015 C 
HETATM   22  C19 UNL     1      23.172   2.345  50.171  1.00  0.00     0.015 C 
ENDBRANCH   8  20
TORSDOF 4
ENDMDL
MODEL 9
REMARK VINA RESULT:      -7.3      2.814      5.886
REMARK  4 active torsions:
REMARK  status: ('A' for Active; 'I' for Inactive)
REMARK    1  A    between atoms: C7_7  and  C8_8 
REMARK    2  A    between atoms: C14_14  and  N1_15 
REMARK    3  A    between atoms: N1_15  and  O1_16 
REMARK    4  A    between atoms: C16_18  and  C17_19 
ROOT
HETATM    1  C1  UNL     1      25.004   7.381  50.782  1.00  0.00     0.043 C 
HETATM    2  C2  UNL     1      25.112   6.241  50.115  1.00  0.00    -0.051 C 
HETATM    3  C3  UNL     1      25.933   6.348  48.881  1.00  0.00     0.004 C 
HETATM    4  C4  UNL     1      26.783   5.341  48.590  1.00  0.00    -0.026 C 
HETATM    5  C5  UNL     1      27.147   4.062  49.220  1.00  0.00     0.032 C 
HETATM    6  C6  UNL     1      26.068   3.214  49.756  1.00  0.00     0.043 C 
HETATM    7  C7  UNL     1      24.924   3.837  50.425  1.00  0.00    -0.050 C 
HETATM    8  C16 UNL     1      24.405   5.035  50.666  1.00  0.00    -0.042 C 
ENDROOT
BRANCH   7   9
HETATM    9  C8  UNL     1      23.988   2.797  50.778  1.00  0.00     0.021 C 
HETATM   10  C9  UNL     1      23.622   1.775  51.508  1.00  0.00    -0.006 C 
HETATM   11  C10 UNL     1      24.603   1.429  52.516  1.00  0.00     0.026 C 
HETATM   12  C14 UNL     1      22.495   0.865  51.614  1.00  0.00     0.064 C 
HETATM   13  C11 UNL     1      24.675   0.272  53.104  1.00  0.00    -0.025 C 
HETATM   14  C12 UNL     1      23.576  -0.308  53.493  1.00  0.00     0.014 C 
HETATM   15  C13 UNL     1      22.506  -0.081  52.537  1.00  0.00     0.033 C 
BRANCH  12  16
HETATM   16  N1  UNL     1      21.493   1.160  50.637  1.00  0.00    -0.267 N 
HETATM   17  H13 UNL     1      20.741   1.827  50.867  1.00  0.00     0.194 HD
BRANCH  16  18
HETATM   18  O1  UNL     1      21.489   0.602  49.427  1.00  0.00    -0.285 OA
HETATM   19  C15 UNL     1      21.522   1.507  48.388  1.00  0.00     0.237 C 
ENDBRANCH  16  18
ENDBRANCH  12  16
ENDBRANCH   7   9
BRANCH   8  20
HETATM   20  C17 UNL     1      23.321   5.462  51.511  1.00  0.00     0.011 C 
HETATM   21  C18 UNL     1      23.292   5.062  52.946  1.00  0.00     0.015 C 
HETATM   22  C19 UNL     1      21.929   5.408  50.924  1.00  0.00     0.015 C 
ENDBRANCH   8  20
TORSDOF 4
ENDMDL
