MODEL 1
REMARK VINA RESULT:      -8.9      0.000      0.000
REMARK  3 active torsions:
REMARK  status: ('A' for Active; 'I' for Inactive)
REMARK    1  A    between atoms: N1_2  and  C2_3 
REMARK    2  A    between atoms: C4_6  and  N3_7 
REMARK    3  A    between atoms: N3_7  and  C5_8 
ROOT
HETATM    1  C2  UNL     1      25.976   0.361  52.617  1.00  0.00     0.081 A 
HETATM    2  C3  UNL     1      26.864   1.313  52.192  1.00  0.00     0.151 A 
HETATM    3  N2  UNL     1      26.433   2.452  51.664  1.00  0.00    -0.240 NA
HETATM    4  C4  UNL     1      25.188   2.859  51.466  1.00  0.00     0.138 A 
HETATM    5  C11 UNL     1      24.257   1.950  51.876  1.00  0.00     0.022 A 
HETATM    6  C12 UNL     1      24.689   0.760  52.412  1.00  0.00     0.033 A 
HETATM    7  C13 UNL     1      23.842  -0.199  52.684  1.00  0.00     0.051 C 
HETATM    8  C14 UNL     1      22.749  -1.276  52.976  1.00  0.00     0.173 C 
HETATM    9  N4  UNL     1      22.630  -0.365  54.030  1.00  0.00    -0.224 NA
HETATM   10  C15 UNL     1      21.665  -0.431  54.975  1.00  0.00     0.116 C 
HETATM   11  C16 UNL     1      20.592   0.654  54.720  1.00  0.00     0.051 C 
HETATM   12  C17 UNL     1      20.026   0.548  53.310  1.00  0.00     0.218 C 
HETATM   13  C18 UNL     1      19.319  -0.759  53.067  1.00  0.00     0.042 C 
HETATM   14  N5  UNL     1      21.093   0.758  52.338  1.00  0.00     0.091 N 
HETATM   15  C19 UNL     1      21.546   2.094  52.249  1.00  0.00     0.298 C 
HETATM   16  C20 UNL     1      22.962   2.307  51.968  1.00  0.00     0.019 C 
HETATM   17  N6  UNL     1      24.004  -0.676  54.159  1.00  0.00    -0.317 N 
HETATM   18  C21 UNL     1      24.427  -1.157  55.474  1.00  0.00     0.171 C 
HETATM   19  H19 UNL     1      20.719   0.383  51.407  1.00  0.00     0.316 HD
ENDROOT
BRANCH   4  20
HETATM   20  N3  UNL     1      24.877   4.114  50.882  1.00  0.00    -0.340 N 
HETATM   21  H4  UNL     1      23.949   4.581  50.986  1.00  0.00     0.167 HD
BRANCH  20  22
HETATM   22  C5  UNL     1      25.736   4.894  50.074  1.00  0.00     0.035 A 
HETATM   23  C6  UNL     1      26.774   4.300  49.327  1.00  0.00     0.029 A 
HETATM   24  C7  UNL     1      27.614   5.033  48.534  1.00  0.00     0.004 A 
HETATM   25  C8  UNL     1      27.502   6.388  48.416  1.00  0.00     0.019 A 
HETATM   26  C9  UNL     1      26.506   7.039  49.123  1.00  0.00     0.013 A 
HETATM   27 BR1  UNL     1      26.319   8.929  48.990  1.00  0.00    -0.051 Br
HETATM   28  C10 UNL     1      25.688   6.256  49.905  1.00  0.00     0.048 A 
ENDBRANCH  20  22
ENDBRANCH   4  20
BRANCH   1  29
HETATM   29  N1  UNL     1      26.697  -0.659  53.208  1.00  0.00    -0.286 NA
HETATM   30  C1  UNL     1      27.235  -1.707  52.744  1.00  0.00     0.171 C 
ENDBRANCH   1  29
TORSDOF 3
ENDMDL
MODEL 2
REMARK VINA RESULT:      -8.8      3.480      6.024
REMARK  3 active torsions:
REMARK  status: ('A' for Active; 'I' for Inactive)
REMARK    1  A    between atoms: N1_2  and  C2_3 
REMARK    2  A    between atoms: C4_6  and  N3_7 
REMARK    3  A    between atoms: N3_7  and  C5_8 
ROOT
HETATM    1  C2  UNL     1      22.116   0.494  52.278  1.00  0.00     0.081 A 
HETATM    2  C3  UNL     1      22.969   0.350  53.338  1.00  0.00     0.151 A 
HETATM    3  N2  UNL     1      24.152   0.951  53.341  1.00  0.00    -0.240 NA
HETATM    4  C4  UNL     1      24.690   1.735  52.418  1.00  0.00     0.138 A 
HETATM    5  C11 UNL     1      23.879   1.919  51.336  1.00  0.00     0.022 A 
HETATM    6  C12 UNL     1      22.657   1.291  51.313  1.00  0.00     0.033 A 
HETATM    7  C13 UNL     1      21.910   1.317  50.240  1.00  0.00     0.051 C 
HETATM    8  C14 UNL     1      21.094   1.415  48.912  1.00  0.00     0.173 C 
HETATM    9  N4  UNL     1      20.911   2.658  49.524  1.00  0.00    -0.224 NA
HETATM   10  C15 UNL     1      20.253   3.690  48.948  1.00  0.00     0.116 C 
HETATM   11  C16 UNL     1      21.259   4.759  48.461  1.00  0.00     0.051 C 
HETATM   12  C17 UNL     1      22.303   4.151  47.534  1.00  0.00     0.218 C 
HETATM   13  C18 UNL     1      21.701   3.587  46.275  1.00  0.00     0.042 C 
HETATM   14  N5  UNL     1      23.066   3.138  48.254  1.00  0.00     0.091 N 
HETATM   15  C19 UNL     1      23.961   3.656  49.218  1.00  0.00     0.298 C 
HETATM   16  C20 UNL     1      24.172   2.872  50.430  1.00  0.00     0.019 C 
HETATM   17  N6  UNL     1      20.475   1.823  50.580  1.00  0.00    -0.317 N 
HETATM   18  C21 UNL     1      19.132   2.094  51.093  1.00  0.00     0.171 C 
HETATM   19  H19 UNL     1      23.556   2.552  47.503  1.00  0.00     0.316 HD
ENDROOT
BRANCH   4  20
HETATM   20  N3  UNL     1      25.979   2.310  52.558  1.00  0.00    -0.340 N 
HETATM   21  H4  UNL     1      26.193   3.305  52.322  1.00  0.00     0.167 HD
BRANCH  20  22
HETATM   22  C5  UNL     1      27.145   1.646  53.003  1.00  0.00     0.035 A 
HETATM   23  C6  UNL     1      28.182   2.347  53.653  1.00  0.00     0.029 A 
HETATM   24  C7  UNL     1      29.317   1.725  54.097  1.00  0.00     0.004 A 
HETATM   25  C8  UNL     1      29.519   0.385  53.938  1.00  0.00     0.019 A 
HETATM   26  C9  UNL     1      28.544  -0.367  53.307  1.00  0.00     0.013 A 
HETATM   27 BR1  UNL     1      28.789  -2.239  53.062  1.00  0.00    -0.051 Br
HETATM   28  C10 UNL     1      27.421   0.306  52.880  1.00  0.00     0.048 A 
ENDBRANCH  20  22
ENDBRANCH   4  20
BRANCH   1  29
HETATM   29  N1  UNL     1      20.935  -0.151  52.592  1.00  0.00    -0.286 NA
HETATM   30  C1  UNL     1      20.378  -0.428  53.695  1.00  0.00     0.171 C 
ENDBRANCH   1  29
TORSDOF 3
ENDMDL
MODEL 3
REMARK VINA RESULT:      -8.7      2.786      6.336
REMARK  3 active torsions:
REMARK  status: ('A' for Active; 'I' for Inactive)
REMARK    1  A    between atoms: N1_2  and  C2_3 
REMARK    2  A    between atoms: C4_6  and  N3_7 
REMARK    3  A    between atoms: N3_7  and  C5_8 
ROOT
HETATM    1  C2  UNL     1      20.559  -0.174  52.705  1.00  0.00     0.081 A 
HETATM    2  C3  UNL     1      20.787  -1.053  53.730  1.00  0.00     0.151 A 
HETATM    3  N2  UNL     1      21.982  -1.128  54.303  1.00  0.00    -0.240 NA
HETATM    4  C4  UNL     1      23.080  -0.437  54.033  1.00  0.00     0.138 A 
HETATM    5  C11 UNL     1      22.909   0.461  53.020  1.00  0.00     0.022 A 
HETATM    6  C12 UNL     1      21.682   0.539  52.408  1.00  0.00     0.033 A 
HETATM    7  C13 UNL     1      21.511   1.277  51.341  1.00  0.00     0.051 C 
HETATM    8  C14 UNL     1      21.412   2.189  50.078  1.00  0.00     0.173 C 
HETATM    9  N4  UNL     1      21.399   3.083  51.153  1.00  0.00    -0.224 NA
HETATM   10  C15 UNL     1      21.417   4.427  51.014  1.00  0.00     0.116 C 
HETATM   11  C16 UNL     1      22.820   4.981  51.360  1.00  0.00     0.051 C 
HETATM   12  C17 UNL     1      23.900   4.301  50.531  1.00  0.00     0.218 C 
HETATM   13  C18 UNL     1      23.741   4.550  49.055  1.00  0.00     0.042 C 
HETATM   14  N5  UNL     1      23.915   2.872  50.825  1.00  0.00     0.091 N 
HETATM   15  C19 UNL     1      24.433   2.544  52.099  1.00  0.00     0.298 C 
HETATM   16  C20 UNL     1      23.847   1.400  52.788  1.00  0.00     0.019 C 
HETATM   17  N6  UNL     1      20.315   2.257  51.534  1.00  0.00    -0.317 N 
HETATM   18  C21 UNL     1      19.047   2.945  51.781  1.00  0.00     0.171 C 
HETATM   19  H19 UNL     1      24.460   2.414  50.024  1.00  0.00     0.316 HD
ENDROOT
BRANCH   4  20
HETATM   20  N3  UNL     1      24.298  -0.631  54.735  1.00  0.00    -0.340 N 
HETATM   21  H4  UNL     1      24.348  -0.773  55.768  1.00  0.00     0.167 HD
BRANCH  20  22
HETATM   22  C5  UNL     1      25.593  -0.638  54.171  1.00  0.00     0.035 A 
HETATM   23  C6  UNL     1      25.943  -1.554  53.158  1.00  0.00     0.029 A 
HETATM   24  C7  UNL     1      27.189  -1.577  52.592  1.00  0.00     0.004 A 
HETATM   25  C8  UNL     1      28.174  -0.712  52.974  1.00  0.00     0.019 A 
HETATM   26  C9  UNL     1      27.902   0.215  53.964  1.00  0.00     0.013 A 
HETATM   27 BR1  UNL     1      29.250   1.435  54.528  1.00  0.00    -0.051 Br
HETATM   28  C10 UNL     1      26.635   0.196  54.499  1.00  0.00     0.048 A 
ENDBRANCH  20  22
ENDBRANCH   4  20
BRANCH   1  29
HETATM   29  N1  UNL     1      19.218  -0.241  52.379  1.00  0.00    -0.286 NA
HETATM   30  C1  UNL     1      18.243  -0.870  52.887  1.00  0.00     0.171 C 
ENDBRANCH   1  29
TORSDOF 3
ENDMDL
MODEL 4
REMARK VINA RESULT:      -8.6      5.460      8.876
REMARK  3 active torsions:
REMARK  status: ('A' for Active; 'I' for Inactive)
REMARK    1  A    between atoms: N1_2  and  C2_3 
REMARK    2  A    between atoms: C4_6  and  N3_7 
REMARK    3  A    between atoms: N3_7  and  C5_8 
ROOT
HETATM    1  C2  UNL     1      28.850   8.476  47.768  1.00  0.00     0.081 A 
HETATM    2  C3  UNL     1      30.029   8.201  47.129  1.00  0.00     0.151 A 
HETATM    3  N2  UNL     1      30.502   6.961  47.087  1.00  0.00    -0.240 NA
HETATM    4  C4  UNL     1      29.983   5.854  47.597  1.00  0.00     0.138 A 
HETATM    5  C11 UNL     1      28.800   6.068  48.243  1.00  0.00     0.022 A 
HETATM    6  C12 UNL     1      28.305   7.349  48.307  1.00  0.00     0.033 A 
HETATM    7  C13 UNL     1      27.256   7.627  49.036  1.00  0.00     0.051 C 
HETATM    8  C14 UNL     1      25.996   7.850  49.930  1.00  0.00     0.173 C 
HETATM    9  N4  UNL     1      25.493   7.267  48.763  1.00  0.00    -0.224 NA
HETATM   10  C15 UNL     1      24.201   6.908  48.599  1.00  0.00     0.116 C 
HETATM   11  C16 UNL     1      24.057   5.370  48.702  1.00  0.00     0.051 C 
HETATM   12  C17 UNL     1      24.639   4.849  50.009  1.00  0.00     0.218 C 
HETATM   13  C18 UNL     1      23.919   5.386  51.217  1.00  0.00     0.042 C 
HETATM   14  N5  UNL     1      26.063   5.154  50.066  1.00  0.00     0.091 N 
HETATM   15  C19 UNL     1      26.861   4.380  49.192  1.00  0.00     0.298 C 
HETATM   16  C20 UNL     1      28.030   5.023  48.602  1.00  0.00     0.019 C 
HETATM   17  N6  UNL     1      26.176   8.366  48.189  1.00  0.00    -0.317 N 
HETATM   18  C21 UNL     1      25.372   9.237  47.332  1.00  0.00     0.171 C 
HETATM   19  H19 UNL     1      26.345   5.046  51.093  1.00  0.00     0.316 HD
ENDROOT
BRANCH   4  20
HETATM   20  N3  UNL     1      30.610   4.588  47.475  1.00  0.00    -0.340 N 
HETATM   21  H4  UNL     1      30.082   3.688  47.424  1.00  0.00     0.167 HD
BRANCH  20  22
HETATM   22  C5  UNL     1      32.002   4.347  47.429  1.00  0.00     0.035 A 
HETATM   23  C6  UNL     1      32.542   3.345  46.597  1.00  0.00     0.029 A 
HETATM   24  C7  UNL     1      33.887   3.098  46.530  1.00  0.00     0.004 A 
HETATM   25  C8  UNL     1      34.791   3.806  47.266  1.00  0.00     0.019 A 
HETATM   26  C9  UNL     1      34.333   4.805  48.106  1.00  0.00     0.013 A 
HETATM   27 BR1  UNL     1      35.562   5.813  49.153  1.00  0.00    -0.051 Br
HETATM   28  C10 UNL     1      32.973   5.014  48.136  1.00  0.00     0.048 A 
ENDBRANCH  20  22
ENDBRANCH   4  20
BRANCH   1  29
HETATM   29  N1  UNL     1      28.558   9.812  47.563  1.00  0.00    -0.286 NA
HETATM   30  C1  UNL     1      29.265  10.861  47.621  1.00  0.00     0.171 C 
ENDBRANCH   1  29
TORSDOF 3
ENDMDL
MODEL 5
REMARK VINA RESULT:      -8.5      3.847      8.331
REMARK  3 active torsions:
REMARK  status: ('A' for Active; 'I' for Inactive)
REMARK    1  A    between atoms: N1_2  and  C2_3 
REMARK    2  A    between atoms: C4_6  and  N3_7 
REMARK    3  A    between atoms: N3_7  and  C5_8 
ROOT
HETATM    1  C2  UNL     1      21.105   2.406  51.577  1.00  0.00     0.081 A 
HETATM    2  C3  UNL     1      19.768   2.236  51.814  1.00  0.00     0.151 A 
HETATM    3  N2  UNL     1      19.333   1.207  52.530  1.00  0.00    -0.240 NA
HETATM    4  C4  UNL     1      20.031   0.239  53.106  1.00  0.00     0.138 A 
HETATM    5  C11 UNL     1      21.376   0.360  52.907  1.00  0.00     0.022 A 
HETATM    6  C12 UNL     1      21.839   1.413  52.155  1.00  0.00     0.033 A 
HETATM    7  C13 UNL     1      23.100   1.491  51.815  1.00  0.00     0.051 C 
HETATM    8  C14 UNL     1      24.623   1.491  51.469  1.00  0.00     0.173 C 
HETATM    9  N4  UNL     1      24.569   1.921  52.798  1.00  0.00    -0.224 NA
HETATM   10  C15 UNL     1      25.662   2.145  53.561  1.00  0.00     0.116 C 
HETATM   11  C16 UNL     1      25.848   0.994  54.579  1.00  0.00     0.051 C 
HETATM   12  C17 UNL     1      25.899  -0.357  53.879  1.00  0.00     0.218 C 
HETATM   13  C18 UNL     1      27.071  -0.479  52.941  1.00  0.00     0.042 C 
HETATM   14  N5  UNL     1      24.640  -0.596  53.183  1.00  0.00     0.091 N 
HETATM   15  C19 UNL     1      23.547  -0.875  54.034  1.00  0.00     0.298 C 
HETATM   16  C20 UNL     1      22.233  -0.395  53.620  1.00  0.00     0.019 C 
HETATM   17  N6  UNL     1      23.696   2.873  52.220  1.00  0.00    -0.317 N 
HETATM   18  C21 UNL     1      24.038   4.276  52.454  1.00  0.00     0.171 C 
HETATM   19  H19 UNL     1      24.836  -1.383  52.484  1.00  0.00     0.316 HD
ENDROOT
BRANCH   4  20
HETATM   20  N3  UNL     1      19.423  -0.808  53.845  1.00  0.00    -0.340 N 
HETATM   21  H4  UNL     1      19.788  -1.150  54.761  1.00  0.00     0.167 HD
BRANCH  20  22
HETATM   22  C5  UNL     1      18.279  -1.544  53.462  1.00  0.00     0.035 A 
HETATM   23  C6  UNL     1      18.120  -2.893  53.838  1.00  0.00     0.029 A 
HETATM   24  C7  UNL     1      17.018  -3.625  53.484  1.00  0.00     0.004 A 
HETATM   25  C8  UNL     1      16.003  -3.094  52.743  1.00  0.00     0.019 A 
HETATM   26  C9  UNL     1      16.092  -1.774  52.337  1.00  0.00     0.013 A 
HETATM   27 BR1  UNL     1      14.698  -0.997  51.299  1.00  0.00    -0.051 Br
HETATM   28  C10 UNL     1      17.219  -1.083  52.720  1.00  0.00     0.048 A 
ENDBRANCH  20  22
ENDBRANCH   4  20
BRANCH   1  29
HETATM   29  N1  UNL     1      21.269   3.601  50.901  1.00  0.00    -0.286 NA
HETATM   30  C1  UNL     1      20.622   4.689  50.917  1.00  0.00     0.171 C 
ENDBRANCH   1  29
TORSDOF 3
ENDMDL
MODEL 6
REMARK VINA RESULT:      -8.4      4.479     10.475
REMARK  3 active torsions:
REMARK  status: ('A' for Active; 'I' for Inactive)
REMARK    1  A    between atoms: N1_2  and  C2_3 
REMARK    2  A    between atoms: C4_6  and  N3_7 
REMARK    3  A    between atoms: N3_7  and  C5_8 
ROOT
HETATM    1  C2  UNL     1      27.531   8.360  48.414  1.00  0.00     0.081 A 
HETATM    2  C3  UNL     1      26.427   7.726  48.918  1.00  0.00     0.151 A 
HETATM    3  N2  UNL     1      26.401   6.405  49.036  1.00  0.00    -0.240 NA
HETATM    4  C4  UNL     1      27.340   5.522  48.726  1.00  0.00     0.138 A 
HETATM    5  C11 UNL     1      28.468   6.099  48.222  1.00  0.00     0.022 A 
HETATM    6  C12 UNL     1      28.505   7.465  48.081  1.00  0.00     0.033 A 
HETATM    7  C13 UNL     1      29.503   8.050  47.470  1.00  0.00     0.051 C 
HETATM    8  C14 UNL     1      30.741   8.648  46.730  1.00  0.00     0.173 C 
HETATM    9  N4  UNL     1      31.213   8.349  48.011  1.00  0.00    -0.224 NA
HETATM   10  C15 UNL     1      32.507   8.477  48.384  1.00  0.00     0.116 C 
HETATM   11  C16 UNL     1      33.176   7.084  48.474  1.00  0.00     0.051 C 
HETATM   12  C17 UNL     1      33.025   6.316  47.168  1.00  0.00     0.218 C 
HETATM   13  C18 UNL     1      33.708   6.997  46.012  1.00  0.00     0.042 C 
HETATM   14  N5  UNL     1      31.611   6.097  46.890  1.00  0.00     0.091 N 
HETATM   15  C19 UNL     1      30.991   5.146  47.732  1.00  0.00     0.298 C 
HETATM   16  C20 UNL     1      29.594   5.371  48.087  1.00  0.00     0.019 C 
HETATM   17  N6  UNL     1      30.116   9.170  48.363  1.00  0.00    -0.317 N 
HETATM   18  C21 UNL     1      30.428  10.318  49.216  1.00  0.00     0.171 C 
HETATM   19  H19 UNL     1      31.553   5.835  45.853  1.00  0.00     0.316 HD
ENDROOT
BRANCH   4  20
HETATM   20  N3  UNL     1      27.166   4.125  48.905  1.00  0.00    -0.340 N 
HETATM   21  H4  UNL     1      27.707   3.407  48.374  1.00  0.00     0.167 HD
BRANCH  20  22
HETATM   22  C5  UNL     1      26.249   3.505  49.784  1.00  0.00     0.035 A 
HETATM   23  C6  UNL     1      24.880   3.405  49.458  1.00  0.00     0.029 A 
HETATM   24  C7  UNL     1      23.974   2.804  50.289  1.00  0.00     0.004 A 
HETATM   25  C8  UNL     1      24.338   2.262  51.488  1.00  0.00     0.019 A 
HETATM   26  C9  UNL     1      25.666   2.324  51.873  1.00  0.00     0.013 A 
HETATM   27 BR1  UNL     1      26.213   1.583  53.539  1.00  0.00    -0.051 Br
HETATM   28  C10 UNL     1      26.536   2.938  51.002  1.00  0.00     0.048 A 
ENDBRANCH  20  22
ENDBRANCH   4  20
BRANCH   1  29
HETATM   29  N1  UNL     1      27.317   9.722  48.504  1.00  0.00    -0.286 NA
HETATM   30  C1  UNL     1      26.268  10.417  48.640  1.00  0.00     0.171 C 
ENDBRANCH   1  29
TORSDOF 3
ENDMDL
MODEL 7
REMARK VINA RESULT:      -8.4      4.733      8.252
REMARK  3 active torsions:
REMARK  status: ('A' for Active; 'I' for Inactive)
REMARK    1  A    between atoms: N1_2  and  C2_3 
REMARK    2  A    between atoms: C4_6  and  N3_7 
REMARK    3  A    between atoms: N3_7  and  C5_8 
ROOT
HETATM    1  C2  UNL     1      27.539   8.219  47.889  1.00  0.00     0.081 A 
HETATM    2  C3  UNL     1      28.723   8.236  47.203  1.00  0.00     0.151 A 
HETATM    3  N2  UNL     1      29.507   7.165  47.180  1.00  0.00    -0.240 NA
HETATM    4  C4  UNL     1      29.319   5.983  47.751  1.00  0.00     0.138 A 
HETATM    5  C11 UNL     1      28.148   5.907  48.446  1.00  0.00     0.022 A 
HETATM    6  C12 UNL     1      27.334   7.013  48.491  1.00  0.00     0.033 A 
HETATM    7  C13 UNL     1      26.277   7.037  49.261  1.00  0.00     0.051 C 
HETATM    8  C14 UNL     1      25.038   6.960  50.208  1.00  0.00     0.173 C 
HETATM    9  N4  UNL     1      24.664   6.214  49.087  1.00  0.00    -0.224 NA
HETATM   10  C15 UNL     1      23.508   5.519  48.998  1.00  0.00     0.116 C 
HETATM   11  C16 UNL     1      23.781   4.004  49.158  1.00  0.00     0.051 C 
HETATM   12  C17 UNL     1      24.530   3.714  50.452  1.00  0.00     0.218 C 
HETATM   13  C18 UNL     1      23.740   4.095  51.676  1.00  0.00     0.042 C 
HETATM   14  N5  UNL     1      25.824   4.386  50.429  1.00  0.00     0.091 N 
HETATM   15  C19 UNL     1      26.764   3.812  49.544  1.00  0.00     0.298 C 
HETATM   16  C20 UNL     1      27.697   4.712  48.877  1.00  0.00     0.019 C 
HETATM   17  N6  UNL     1      25.008   7.426  48.444  1.00  0.00    -0.317 N 
HETATM   18  C21 UNL     1      23.969   8.015  47.599  1.00  0.00     0.171 C 
HETATM   19  H19 UNL     1      26.163   4.402  51.445  1.00  0.00     0.316 HD
ENDROOT
BRANCH   4  20
HETATM   20  N3  UNL     1      30.255   4.923  47.641  1.00  0.00    -0.340 N 
HETATM   21  H4  UNL     1      29.978   3.923  47.526  1.00  0.00     0.167 HD
BRANCH  20  22
HETATM   22  C5  UNL     1      31.663   5.044  47.689  1.00  0.00     0.035 A 
HETATM   23  C6  UNL     1      32.296   5.784  48.709  1.00  0.00     0.029 A 
HETATM   24  C7  UNL     1      33.657   5.911  48.781  1.00  0.00     0.004 A 
HETATM   25  C8  UNL     1      34.489   5.329  47.869  1.00  0.00     0.019 A 
HETATM   26  C9  UNL     1      33.936   4.588  46.839  1.00  0.00     0.013 A 
HETATM   27 BR1  UNL     1      35.061   3.763  45.543  1.00  0.00    -0.051 Br
HETATM   28  C10 UNL     1      32.564   4.491  46.812  1.00  0.00     0.048 A 
ENDBRANCH  20  22
ENDBRANCH   4  20
BRANCH   1  29
HETATM   29  N1  UNL     1      26.895   9.420  47.655  1.00  0.00    -0.286 NA
HETATM   30  C1  UNL     1      26.869  10.196  46.655  1.00  0.00     0.171 C 
ENDBRANCH   1  29
TORSDOF 3
ENDMDL
MODEL 8
REMARK VINA RESULT:      -8.3      3.854      9.401
REMARK  3 active torsions:
REMARK  status: ('A' for Active; 'I' for Inactive)
REMARK    1  A    between atoms: N1_2  and  C2_3 
REMARK    2  A    between atoms: C4_6  and  N3_7 
REMARK    3  A    between atoms: N3_7  and  C5_8 
ROOT
HETATM    1  C2  UNL     1      24.758   6.846  48.876  1.00  0.00     0.081 A 
HETATM    2  C3  UNL     1      24.078   5.855  49.530  1.00  0.00     0.151 A 
HETATM    3  N2  UNL     1      24.664   4.694  49.796  1.00  0.00    -0.240 NA
HETATM    4  C4  UNL     1      25.900   4.303  49.518  1.00  0.00     0.138 A 
HETATM    5  C11 UNL     1      26.628   5.256  48.870  1.00  0.00     0.022 A 
HETATM    6  C12 UNL     1      26.029   6.457  48.574  1.00  0.00     0.033 A 
HETATM    7  C13 UNL     1      26.636   7.344  47.828  1.00  0.00     0.051 C 
HETATM    8  C14 UNL     1      27.449   8.334  46.935  1.00  0.00     0.173 C 
HETATM    9  N4  UNL     1      28.025   8.457  48.203  1.00  0.00    -0.224 NA
HETATM   10  C15 UNL     1      29.120   9.207  48.461  1.00  0.00     0.116 C 
HETATM   11  C16 UNL     1      30.357   8.298  48.656  1.00  0.00     0.051 C 
HETATM   12  C17 UNL     1      30.557   7.377  47.460  1.00  0.00     0.218 C 
HETATM   13  C18 UNL     1      30.832   8.133  46.188  1.00  0.00     0.042 C 
HETATM   14  N5  UNL     1      29.398   6.505  47.315  1.00  0.00     0.091 N 
HETATM   15  C19 UNL     1      29.299   5.498  48.302  1.00  0.00     0.298 C 
HETATM   16  C20 UNL     1      27.960   5.109  48.734  1.00  0.00     0.019 C 
HETATM   17  N6  UNL     1      26.678   8.729  48.542  1.00  0.00    -0.317 N 
HETATM   18  C21 UNL     1      26.439   9.995  49.235  1.00  0.00     0.171 C 
HETATM   19  H19 UNL     1      29.452   6.109  46.321  1.00  0.00     0.316 HD
ENDROOT
BRANCH   4  20
HETATM   20  N3  UNL     1      26.391   3.018  49.866  1.00  0.00    -0.340 N 
HETATM   21  H4  UNL     1      26.911   2.403  49.200  1.00  0.00     0.167 HD
BRANCH  20  22
HETATM   22  C5  UNL     1      26.242   2.378  51.117  1.00  0.00     0.035 A 
HETATM   23  C6  UNL     1      27.272   2.407  52.079  1.00  0.00     0.029 A 
HETATM   24  C7  UNL     1      27.148   1.799  53.299  1.00  0.00     0.004 A 
HETATM   25  C8  UNL     1      26.019   1.125  53.663  1.00  0.00     0.019 A 
HETATM   26  C9  UNL     1      24.966   1.055  52.767  1.00  0.00     0.013 A 
HETATM   27 BR1  UNL     1      23.375   0.120  53.234  1.00  0.00    -0.051 Br
HETATM   28  C10 UNL     1      25.141   1.682  51.555  1.00  0.00     0.048 A 
ENDBRANCH  20  22
ENDBRANCH   4  20
BRANCH   1  29
HETATM   29  N1  UNL     1      23.942   7.961  48.829  1.00  0.00    -0.286 NA
HETATM   30  C1  UNL     1      23.035   8.391  49.600  1.00  0.00     0.171 C 
ENDBRANCH   1  29
TORSDOF 3
ENDMDL
MODEL 9
REMARK VINA RESULT:      -8.2      3.542      7.304
REMARK  3 active torsions:
REMARK  status: ('A' for Active; 'I' for Inactive)
REMARK    1  A    between atoms: N1_2  and  C2_3 
REMARK    2  A    between atoms: C4_6  and  N3_7 
REMARK    3  A    between atoms: N3_7  and  C5_8 
ROOT
HETATM    1  C2  UNL     1      22.797   2.684  50.185  1.00  0.00     0.081 A 
HETATM    2  C3  UNL     1      23.365   1.818  51.080  1.00  0.00     0.151 A 
HETATM    3  N2  UNL     1      24.611   1.998  51.499  1.00  0.00    -0.240 NA
HETATM    4  C4  UNL     1      25.468   2.955  51.174  1.00  0.00     0.138 A 
HETATM    5  C11 UNL     1      24.954   3.853  50.286  1.00  0.00     0.022 A 
HETATM    6  C12 UNL     1      23.669   3.672  49.833  1.00  0.00     0.033 A 
HETATM    7  C13 UNL     1      23.184   4.418  48.875  1.00  0.00     0.051 C 
HETATM    8  C14 UNL     1      22.700   5.367  47.733  1.00  0.00     0.173 C 
HETATM    9  N4  UNL     1      22.626   6.150  48.889  1.00  0.00    -0.224 NA
HETATM   10  C15 UNL     1      22.309   7.464  48.887  1.00  0.00     0.116 C 
HETATM   11  C16 UNL     1      23.577   8.320  49.122  1.00  0.00     0.051 C 
HETATM   12  C17 UNL     1      24.661   7.987  48.107  1.00  0.00     0.218 C 
HETATM   13  C18 UNL     1      24.245   8.295  46.693  1.00  0.00     0.042 C 
HETATM   14  N5  UNL     1      25.052   6.589  48.248  1.00  0.00     0.091 N 
HETATM   15  C19 UNL     1      25.803   6.308  49.412  1.00  0.00     0.298 C 
HETATM   16  C20 UNL     1      25.603   5.009  50.044  1.00  0.00     0.019 C 
HETATM   17  N6  UNL     1      21.830   5.058  49.307  1.00  0.00    -0.317 N 
HETATM   18  C21 UNL     1      20.483   5.393  49.770  1.00  0.00     0.171 C 
HETATM   19  H19 UNL     1      25.572   6.338  47.346  1.00  0.00     0.316 HD
ENDROOT
BRANCH   4  20
HETATM   20  N3  UNL     1      26.783   3.017  51.705  1.00  0.00    -0.340 N 
HETATM   21  H4  UNL     1      27.416   3.838  51.574  1.00  0.00     0.167 HD
BRANCH  20  22
HETATM   22  C5  UNL     1      27.431   2.005  52.448  1.00  0.00     0.035 A 
HETATM   23  C6  UNL     1      28.393   2.323  53.429  1.00  0.00     0.029 A 
HETATM   24  C7  UNL     1      29.030   1.361  54.165  1.00  0.00     0.004 A 
HETATM   25  C8  UNL     1      28.774   0.031  53.996  1.00  0.00     0.019 A 
HETATM   26  C9  UNL     1      27.842  -0.355  53.050  1.00  0.00     0.013 A 
HETATM   27 BR1  UNL     1      27.460  -2.200  52.780  1.00  0.00    -0.051 Br
HETATM   28  C10 UNL     1      27.230   0.651  52.337  1.00  0.00     0.048 A 
ENDBRANCH  20  22
ENDBRANCH   4  20
BRANCH   1  29
HETATM   29  N1  UNL     1      21.477   2.313  50.013  1.00  0.00    -0.286 NA
HETATM   30  C1  UNL     1      20.923   1.435  49.288  1.00  0.00     0.171 C 
ENDBRANCH   1  29
TORSDOF 3
ENDMDL
