MODEL 1
REMARK VINA RESULT:      -8.4      0.000      0.000
REMARK  6 active torsions:
REMARK  status: ('A' for Active; 'I' for Inactive)
REMARK    1  A    between atoms: N1_2  and  C3_4 
REMARK    2  A    between atoms: C3_4  and  C4_5 
REMARK    3  A    between atoms: C5_6  and  C6_7 
REMARK       I    between atoms: C6_7  and  N2_9 
REMARK    4  A    between atoms: N2_9  and  C7_10 
REMARK    5  A    between atoms: C14_19  and  N5_20 
REMARK    6  A    between atoms: N5_20  and  C15_21 
ROOT
HETATM    1  C7  UNL     1      24.140   3.412  49.867  1.00  0.00     0.035 A 
HETATM    2  C8  UNL     1      23.208   3.010  48.928  1.00  0.00     0.032 A 
HETATM    3  C9  UNL     1      22.290   2.013  49.192  1.00  0.00     0.035 A 
HETATM    4  C10 UNL     1      22.290   1.384  50.436  1.00  0.00     0.069 A 
HETATM    5  N3  UNL     1      21.387   0.417  50.668  1.00  0.00    -0.259 NA
HETATM    6  C11 UNL     1      21.353  -0.215  51.852  1.00  0.00     0.142 A 
HETATM    7  C12 UNL     1      22.268   0.145  52.843  1.00  0.00     0.089 A 
HETATM    8  C13 UNL     1      22.248  -0.527  54.133  1.00  0.00     0.103 C 
HETATM    9  N4  UNL     1      22.239  -1.058  55.154  1.00  0.00    -0.191 NA
HETATM   10  C14 UNL     1      23.176   1.143  52.560  1.00  0.00     0.068 A 
HETATM   11  C20 UNL     1      23.231   1.805  51.352  1.00  0.00     0.023 A 
HETATM   12  C21 UNL     1      24.154   2.799  51.103  1.00  0.00     0.045 A 
ENDROOT
BRANCH  10  13
HETATM   13  N5  UNL     1      24.077   1.461  53.605  1.00  0.00    -0.352 N 
HETATM   14  H15 UNL     1      23.950   2.039  54.480  1.00  0.00     0.166 HD
BRANCH  13  15
HETATM   15  C15 UNL     1      25.375   0.880  53.410  1.00  0.00     0.064 C 
HETATM   16  C16 UNL     1      25.629  -0.330  52.970  1.00  0.00     0.108 C 
HETATM   17  N6  UNL     1      26.481  -1.006  53.650  1.00  0.00    -0.280 NA
HETATM   18  C17 UNL     1      27.827  -0.447  53.640  1.00  0.00     0.196 C 
HETATM   19  C18 UNL     1      27.700   1.007  53.817  1.00  0.00     0.011 C 
HETATM   20 BR1  UNL     1      29.301   1.947  54.214  1.00  0.00    -0.054 Br
HETATM   21  C19 UNL     1      26.563   1.667  53.716  1.00  0.00     0.048 C 
ENDBRANCH  13  15
ENDBRANCH  10  13
BRANCH   1  22
HETATM   22  N2  UNL     1      25.104   4.438  49.630  1.00  0.00    -0.324 N 
HETATM   23  C6  UNL     1      26.379   3.896  49.307  1.00  0.00     0.245 C 
HETATM   24  O1  UNL     1      26.511   2.658  49.269  1.00  0.00    -0.268 OA
HETATM   25  H11 UNL     1      24.979   5.493  49.665  1.00  0.00     0.169 HD
BRANCH  23  26
HETATM   26  C5  UNL     1      27.513   4.770  49.027  1.00  0.00     0.072 C 
HETATM   27  C4  UNL     1      27.503   5.964  48.457  1.00  0.00     0.008 C 
BRANCH  27  28
HETATM   28  C3  UNL     1      28.640   6.856  48.169  1.00  0.00     0.299 C 
BRANCH  28  29
HETATM   29  N1  UNL     1      28.456   8.219  48.557  1.00  0.00     0.083 N 
HETATM   30  C1  UNL     1      29.604   8.855  49.122  1.00  0.00     0.309 C 
HETATM   31  C2  UNL     1      27.258   8.356  49.330  1.00  0.00     0.309 C 
ENDBRANCH  28  29
ENDBRANCH  27  28
ENDBRANCH  23  26
ENDBRANCH   1  22
TORSDOF 6
ENDMDL
MODEL 2
REMARK VINA RESULT:      -8.0      2.645      4.806
REMARK  6 active torsions:
REMARK  status: ('A' for Active; 'I' for Inactive)
REMARK    1  A    between atoms: N1_2  and  C3_4 
REMARK    2  A    between atoms: C3_4  and  C4_5 
REMARK    3  A    between atoms: C5_6  and  C6_7 
REMARK       I    between atoms: C6_7  and  N2_9 
REMARK    4  A    between atoms: N2_9  and  C7_10 
REMARK    5  A    between atoms: C14_19  and  N5_20 
REMARK    6  A    between atoms: N5_20  and  C15_21 
ROOT
HETATM    1  C7  UNL     1      25.398   0.350  52.646  1.00  0.00     0.035 A 
HETATM    2  C8  UNL     1      25.771  -0.223  53.848  1.00  0.00     0.032 A 
HETATM    3  C9  UNL     1      24.848  -0.796  54.701  1.00  0.00     0.035 A 
HETATM    4  C10 UNL     1      23.499  -0.806  54.353  1.00  0.00     0.069 A 
HETATM    5  N3  UNL     1      22.620  -1.370  55.200  1.00  0.00    -0.259 NA
HETATM    6  C11 UNL     1      21.312  -1.401  54.904  1.00  0.00     0.142 A 
HETATM    7  C12 UNL     1      20.870  -0.840  53.704  1.00  0.00     0.089 A 
HETATM    8  C13 UNL     1      19.456  -0.864  53.365  1.00  0.00     0.103 C 
HETATM    9  N4  UNL     1      18.339  -0.876  53.093  1.00  0.00    -0.191 NA
HETATM   10  C14 UNL     1      21.807  -0.273  52.866  1.00  0.00     0.068 A 
HETATM   11  C20 UNL     1      23.156  -0.229  53.149  1.00  0.00     0.023 A 
HETATM   12  C21 UNL     1      24.066   0.347  52.287  1.00  0.00     0.045 A 
ENDROOT
BRANCH  10  13
HETATM   13  N5  UNL     1      21.297   0.278  51.667  1.00  0.00    -0.352 N 
HETATM   14  H15 UNL     1      20.949  -0.184  50.783  1.00  0.00     0.166 HD
BRANCH  13  15
HETATM   15  C15 UNL     1      21.259   1.713  51.691  1.00  0.00     0.064 C 
HETATM   16  C16 UNL     1      20.736   2.462  52.633  1.00  0.00     0.108 C 
HETATM   17  N6  UNL     1      19.958   3.401  52.233  1.00  0.00    -0.280 NA
HETATM   18  C17 UNL     1      20.623   4.425  51.436  1.00  0.00     0.196 C 
HETATM   19  C18 UNL     1      21.521   3.737  50.499  1.00  0.00     0.011 C 
HETATM   20 BR1  UNL     1      22.235   4.793  49.092  1.00  0.00    -0.054 Br
HETATM   21  C19 UNL     1      21.845   2.461  50.586  1.00  0.00     0.048 C 
ENDBRANCH  13  15
ENDBRANCH  10  13
BRANCH   1  22
HETATM   22  N2  UNL     1      26.323   0.951  51.740  1.00  0.00    -0.324 N 
HETATM   23  C6  UNL     1      26.018   2.321  51.511  1.00  0.00     0.245 C 
HETATM   24  O1  UNL     1      25.034   2.820  52.090  1.00  0.00    -0.268 OA
HETATM   25  H11 UNL     1      27.160   0.514  51.252  1.00  0.00     0.169 HD
BRANCH  23  26
HETATM   26  C5  UNL     1      26.838   3.129  50.615  1.00  0.00     0.072 C 
HETATM   27  C4  UNL     1      26.438   3.985  49.688  1.00  0.00     0.008 C 
BRANCH  27  28
HETATM   28  C3  UNL     1      27.256   4.806  48.778  1.00  0.00     0.299 C 
BRANCH  28  29
HETATM   29  N1  UNL     1      26.802   6.149  48.599  1.00  0.00     0.083 N 
HETATM   30  C1  UNL     1      27.831   7.127  48.440  1.00  0.00     0.309 C 
HETATM   31  C2  UNL     1      25.818   6.474  49.588  1.00  0.00     0.309 C 
ENDBRANCH  28  29
ENDBRANCH  27  28
ENDBRANCH  23  26
ENDBRANCH   1  22
TORSDOF 6
ENDMDL
MODEL 3
REMARK VINA RESULT:      -8.0      3.702      8.550
REMARK  6 active torsions:
REMARK  status: ('A' for Active; 'I' for Inactive)
REMARK    1  A    between atoms: N1_2  and  C3_4 
REMARK    2  A    between atoms: C3_4  and  C4_5 
REMARK    3  A    between atoms: C5_6  and  C6_7 
REMARK       I    between atoms: C6_7  and  N2_9 
REMARK    4  A    between atoms: N2_9  and  C7_10 
REMARK    5  A    between atoms: C14_19  and  N5_20 
REMARK    6  A    between atoms: N5_20  and  C15_21 
ROOT
HETATM    1  C7  UNL     1      22.272  -1.126  53.775  1.00  0.00     0.035 A 
HETATM    2  C8  UNL     1      22.546  -1.630  55.033  1.00  0.00     0.032 A 
HETATM    3  C9  UNL     1      23.755  -1.406  55.662  1.00  0.00     0.035 A 
HETATM    4  C10 UNL     1      24.736  -0.650  55.024  1.00  0.00     0.069 A 
HETATM    5  N3  UNL     1      25.904  -0.445  55.656  1.00  0.00    -0.259 NA
HETATM    6  C11 UNL     1      26.877   0.276  55.078  1.00  0.00     0.142 A 
HETATM    7  C12 UNL     1      26.662   0.815  53.807  1.00  0.00     0.089 A 
HETATM    8  C13 UNL     1      27.703   1.599  53.163  1.00  0.00     0.103 C 
HETATM    9  N4  UNL     1      28.523   2.218  52.646  1.00  0.00    -0.191 NA
HETATM   10  C14 UNL     1      25.449   0.579  53.196  1.00  0.00     0.068 A 
HETATM   11  C20 UNL     1      24.435  -0.159  53.770  1.00  0.00     0.023 A 
HETATM   12  C21 UNL     1      23.233  -0.376  53.130  1.00  0.00     0.045 A 
ENDROOT
BRANCH  10  13
HETATM   13  N5  UNL     1      25.293   1.151  51.911  1.00  0.00    -0.352 N 
HETATM   14  H15 UNL     1      25.416   0.737  50.947  1.00  0.00     0.166 HD
BRANCH  13  15
HETATM   15  C15 UNL     1      24.896   2.529  51.964  1.00  0.00     0.064 C 
HETATM   16  C16 UNL     1      24.234   3.112  52.936  1.00  0.00     0.108 C 
HETATM   17  N6  UNL     1      23.231   3.828  52.578  1.00  0.00    -0.280 NA
HETATM   18  C17 UNL     1      23.590   4.996  51.782  1.00  0.00     0.196 C 
HETATM   19  C18 UNL     1      24.601   4.568  50.805  1.00  0.00     0.011 C 
HETATM   20 BR1  UNL     1      24.978   5.785  49.398  1.00  0.00    -0.054 Br
HETATM   21  C19 UNL     1      25.238   3.413  50.857  1.00  0.00     0.048 C 
ENDBRANCH  13  15
ENDBRANCH  10  13
BRANCH   1  22
HETATM   22  N2  UNL     1      21.035  -1.337  53.095  1.00  0.00    -0.324 N 
HETATM   23  C6  UNL     1      20.035  -0.422  53.526  1.00  0.00     0.245 C 
HETATM   24  O1  UNL     1      20.328   0.416  54.400  1.00  0.00    -0.268 OA
HETATM   25  H11 UNL     1      20.797  -2.057  52.349  1.00  0.00     0.169 HD
BRANCH  23  26
HETATM   26  C5  UNL     1      18.692  -0.462  52.958  1.00  0.00     0.072 C 
HETATM   27  C4  UNL     1      17.742  -1.359  53.167  1.00  0.00     0.008 C 
BRANCH  27  28
HETATM   28  C3  UNL     1      16.383  -1.410  52.600  1.00  0.00     0.299 C 
BRANCH  28  29
HETATM   29  N1  UNL     1      15.899  -0.174  52.071  1.00  0.00     0.083 N 
HETATM   30  C1  UNL     1      14.838   0.434  52.809  1.00  0.00     0.309 C 
HETATM   31  C2  UNL     1      15.652  -0.300  50.666  1.00  0.00     0.309 C 
ENDBRANCH  28  29
ENDBRANCH  27  28
ENDBRANCH  23  26
ENDBRANCH   1  22
TORSDOF 6
ENDMDL
MODEL 4
REMARK VINA RESULT:      -7.9      2.324      4.170
REMARK  6 active torsions:
REMARK  status: ('A' for Active; 'I' for Inactive)
REMARK    1  A    between atoms: N1_2  and  C3_4 
REMARK    2  A    between atoms: C3_4  and  C4_5 
REMARK    3  A    between atoms: C5_6  and  C6_7 
REMARK       I    between atoms: C6_7  and  N2_9 
REMARK    4  A    between atoms: N2_9  and  C7_10 
REMARK    5  A    between atoms: C14_19  and  N5_20 
REMARK    6  A    between atoms: N5_20  and  C15_21 
ROOT
HETATM    1  C7  UNL     1      26.229   2.407  51.647  1.00  0.00     0.035 A 
HETATM    2  C8  UNL     1      26.935   1.283  52.034  1.00  0.00     0.032 A 
HETATM    3  C9  UNL     1      26.312   0.190  52.604  1.00  0.00     0.035 A 
HETATM    4  C10 UNL     1      24.933   0.205  52.801  1.00  0.00     0.069 A 
HETATM    5  N3  UNL     1      24.350  -0.871  53.358  1.00  0.00    -0.259 NA
HETATM    6  C11 UNL     1      23.024  -0.897  53.565  1.00  0.00     0.142 A 
HETATM    7  C12 UNL     1      22.254   0.207  53.196  1.00  0.00     0.089 A 
HETATM    8  C13 UNL     1      20.816   0.198  53.413  1.00  0.00     0.103 C 
HETATM    9  N4  UNL     1      19.678   0.199  53.585  1.00  0.00    -0.191 NA
HETATM   10  C14 UNL     1      22.894   1.288  52.629  1.00  0.00     0.068 A 
HETATM   11  C20 UNL     1      24.254   1.339  52.406  1.00  0.00     0.023 A 
HETATM   12  C21 UNL     1      24.863   2.437  51.836  1.00  0.00     0.045 A 
ENDROOT
BRANCH  10  13
HETATM   13  N5  UNL     1      22.059   2.375  52.277  1.00  0.00    -0.352 N 
HETATM   14  H15 UNL     1      21.588   3.110  52.871  1.00  0.00     0.166 HD
BRANCH  13  15
HETATM   15  C15 UNL     1      21.838   2.466  50.862  1.00  0.00     0.064 C 
HETATM   16  C16 UNL     1      21.315   1.538  50.094  1.00  0.00     0.108 C 
HETATM   17  N6  UNL     1      21.955   1.281  49.013  1.00  0.00    -0.280 NA
HETATM   18  C17 UNL     1      22.000   2.392  48.070  1.00  0.00     0.196 C 
HETATM   19  C18 UNL     1      22.279   3.611  48.842  1.00  0.00     0.011 C 
HETATM   20 BR1  UNL     1      22.760   5.149  47.837  1.00  0.00    -0.054 Br
HETATM   21  C19 UNL     1      22.213   3.685  50.157  1.00  0.00     0.048 C 
ENDBRANCH  13  15
ENDBRANCH  10  13
BRANCH   1  22
HETATM   22  N2  UNL     1      26.838   3.554  51.056  1.00  0.00    -0.324 N 
HETATM   23  C6  UNL     1      26.469   3.699  49.690  1.00  0.00     0.245 C 
HETATM   24  O1  UNL     1      25.700   2.859  49.185  1.00  0.00    -0.268 OA
HETATM   25  H11 UNL     1      27.493   4.265  51.498  1.00  0.00     0.169 HD
BRANCH  23  26
HETATM   26  C5  UNL     1      26.980   4.808  48.892  1.00  0.00     0.072 C 
HETATM   27  C4  UNL     1      26.561   6.063  48.872  1.00  0.00     0.008 C 
BRANCH  27  28
HETATM   28  C3  UNL     1      27.069   7.191  48.072  1.00  0.00     0.299 C 
BRANCH  28  29
HETATM   29  N1  UNL     1      27.350   8.382  48.811  1.00  0.00     0.083 N 
HETATM   30  C1  UNL     1      28.735   8.696  48.962  1.00  0.00     0.309 C 
HETATM   31  C2  UNL     1      26.598   8.396  50.030  1.00  0.00     0.309 C 
ENDBRANCH  28  29
ENDBRANCH  27  28
ENDBRANCH  23  26
ENDBRANCH   1  22
TORSDOF 6
ENDMDL
MODEL 5
REMARK VINA RESULT:      -7.8      3.799      7.445
REMARK  6 active torsions:
REMARK  status: ('A' for Active; 'I' for Inactive)
REMARK    1  A    between atoms: N1_2  and  C3_4 
REMARK    2  A    between atoms: C3_4  and  C4_5 
REMARK    3  A    between atoms: C5_6  and  C6_7 
REMARK       I    between atoms: C6_7  and  N2_9 
REMARK    4  A    between atoms: N2_9  and  C7_10 
REMARK    5  A    between atoms: C14_19  and  N5_20 
REMARK    6  A    between atoms: N5_20  and  C15_21 
ROOT
HETATM    1  C7  UNL     1      20.953   0.039  52.714  1.00  0.00     0.035 A 
HETATM    2  C8  UNL     1      20.598  -0.596  53.889  1.00  0.00     0.032 A 
HETATM    3  C9  UNL     1      21.543  -1.026  54.801  1.00  0.00     0.035 A 
HETATM    4  C10 UNL     1      22.896  -0.818  54.544  1.00  0.00     0.069 A 
HETATM    5  N3  UNL     1      23.796  -1.245  55.447  1.00  0.00    -0.259 NA
HETATM    6  C11 UNL     1      25.109  -1.066  55.238  1.00  0.00     0.142 A 
HETATM    7  C12 UNL     1      25.534  -0.429  54.070  1.00  0.00     0.089 A 
HETATM    8  C13 UNL     1      26.953  -0.226  53.825  1.00  0.00     0.103 C 
HETATM    9  N4  UNL     1      28.074  -0.065  53.624  1.00  0.00    -0.191 NA
HETATM   10  C14 UNL     1      24.576  -0.009  53.172  1.00  0.00     0.068 A 
HETATM   11  C20 UNL     1      23.221  -0.182  53.364  1.00  0.00     0.023 A 
HETATM   12  C21 UNL     1      22.290   0.252  52.445  1.00  0.00     0.045 A 
ENDROOT
BRANCH  10  13
HETATM   13  N5  UNL     1      25.069   0.628  52.009  1.00  0.00    -0.352 N 
HETATM   14  H15 UNL     1      25.576   0.241  51.166  1.00  0.00     0.166 HD
BRANCH  13  15
HETATM   15  C15 UNL     1      24.819   2.042  52.005  1.00  0.00     0.064 C 
HETATM   16  C16 UNL     1      24.783   2.829  53.054  1.00  0.00     0.108 C 
HETATM   17  N6  UNL     1      23.773   3.617  53.129  1.00  0.00    -0.280 NA
HETATM   18  C17 UNL     1      23.716   4.612  52.064  1.00  0.00     0.196 C 
HETATM   19  C18 UNL     1      24.053   3.930  50.807  1.00  0.00     0.011 C 
HETATM   20 BR1  UNL     1      23.697   4.891  49.209  1.00  0.00    -0.054 Br
HETATM   21  C19 UNL     1      24.574   2.720  50.738  1.00  0.00     0.048 C 
ENDBRANCH  13  15
ENDBRANCH  10  13
BRANCH   1  22
HETATM   22  N2  UNL     1      20.006   0.496  51.748  1.00  0.00    -0.324 N 
HETATM   23  C6  UNL     1      19.604   1.836  52.001  1.00  0.00     0.245 C 
HETATM   24  O1  UNL     1      20.091   2.433  52.980  1.00  0.00    -0.268 OA
HETATM   25  H11 UNL     1      19.598  -0.024  50.916  1.00  0.00     0.169 HD
BRANCH  23  26
HETATM   26  C5  UNL     1      18.638   2.502  51.134  1.00  0.00     0.072 C 
HETATM   27  C4  UNL     1      17.847   3.523  51.421  1.00  0.00     0.008 C 
BRANCH  27  28
HETATM   28  C3  UNL     1      16.869   4.204  50.555  1.00  0.00     0.299 C 
BRANCH  28  29
HETATM   29  N1  UNL     1      15.537   4.260  51.070  1.00  0.00     0.083 N 
HETATM   30  C1  UNL     1      15.416   4.044  52.477  1.00  0.00     0.309 C 
HETATM   31  C2  UNL     1      14.662   3.460  50.267  1.00  0.00     0.309 C 
ENDBRANCH  28  29
ENDBRANCH  27  28
ENDBRANCH  23  26
ENDBRANCH   1  22
TORSDOF 6
ENDMDL
MODEL 6
REMARK VINA RESULT:      -7.5      3.421      7.730
REMARK  6 active torsions:
REMARK  status: ('A' for Active; 'I' for Inactive)
REMARK    1  A    between atoms: N1_2  and  C3_4 
REMARK    2  A    between atoms: C3_4  and  C4_5 
REMARK    3  A    between atoms: C5_6  and  C6_7 
REMARK       I    between atoms: C6_7  and  N2_9 
REMARK    4  A    between atoms: N2_9  and  C7_10 
REMARK    5  A    between atoms: C14_19  and  N5_20 
REMARK    6  A    between atoms: N5_20  and  C15_21 
ROOT
HETATM    1  C7  UNL     1      21.889   0.508  52.885  1.00  0.00     0.035 A 
HETATM    2  C8  UNL     1      22.029  -0.808  53.283  1.00  0.00     0.032 A 
HETATM    3  C9  UNL     1      23.237  -1.313  53.725  1.00  0.00     0.035 A 
HETATM    4  C10 UNL     1      24.355  -0.482  53.778  1.00  0.00     0.069 A 
HETATM    5  N3  UNL     1      25.519  -0.997  54.211  1.00  0.00    -0.259 NA
HETATM    6  C11 UNL     1      26.620  -0.232  54.277  1.00  0.00     0.142 A 
HETATM    7  C12 UNL     1      26.544   1.107  53.890  1.00  0.00     0.089 A 
HETATM    8  C13 UNL     1      27.726   1.952  53.954  1.00  0.00     0.103 C 
HETATM    9  N4  UNL     1      28.658   2.625  53.999  1.00  0.00    -0.191 NA
HETATM   10  C14 UNL     1      25.330   1.591  53.452  1.00  0.00     0.068 A 
HETATM   11  C20 UNL     1      24.186   0.825  53.375  1.00  0.00     0.023 A 
HETATM   12  C21 UNL     1      22.987   1.343  52.931  1.00  0.00     0.045 A 
ENDROOT
BRANCH  10  13
HETATM   13  N5  UNL     1      25.318   2.955  53.074  1.00  0.00    -0.352 N 
HETATM   14  H15 UNL     1      25.213   3.835  53.649  1.00  0.00     0.166 HD
BRANCH  13  15
HETATM   15  C15 UNL     1      25.483   3.137  51.659  1.00  0.00     0.064 C 
HETATM   16  C16 UNL     1      26.406   2.587  50.906  1.00  0.00     0.108 C 
HETATM   17  N6  UNL     1      27.029   3.382  50.114  1.00  0.00    -0.280 NA
HETATM   18  C17 UNL     1      26.185   3.977  49.085  1.00  0.00     0.196 C 
HETATM   19  C18 UNL     1      24.928   4.382  49.729  1.00  0.00     0.011 C 
HETATM   20 BR1  UNL     1      23.793   5.517  48.715  1.00  0.00    -0.054 Br
HETATM   21  C19 UNL     1      24.562   4.007  50.939  1.00  0.00     0.048 C 
ENDBRANCH  13  15
ENDBRANCH  10  13
BRANCH   1  22
HETATM   22  N2  UNL     1      20.658   1.064  52.423  1.00  0.00    -0.324 N 
HETATM   23  C6  UNL     1      20.457   0.814  51.037  1.00  0.00     0.245 C 
HETATM   24  O1  UNL     1      21.325   0.175  50.412  1.00  0.00    -0.268 OA
HETATM   25  H11 UNL     1      19.924   1.607  52.967  1.00  0.00     0.169 HD
BRANCH  23  26
HETATM   26  C5  UNL     1      19.259   1.295  50.358  1.00  0.00     0.072 C 
HETATM   27  C4  UNL     1      18.089   0.689  50.235  1.00  0.00     0.008 C 
BRANCH  27  28
HETATM   28  C3  UNL     1      16.873   1.164  49.552  1.00  0.00     0.299 C 
BRANCH  28  29
HETATM   29  N1  UNL     1      15.642   0.807  50.186  1.00  0.00     0.083 N 
HETATM   30  C1  UNL     1      14.519   0.682  49.313  1.00  0.00     0.309 C 
HETATM   31  C2  UNL     1      15.418   1.635  51.333  1.00  0.00     0.309 C 
ENDBRANCH  28  29
ENDBRANCH  27  28
ENDBRANCH  23  26
ENDBRANCH   1  22
TORSDOF 6
ENDMDL
MODEL 7
REMARK VINA RESULT:      -7.5      3.471      8.381
REMARK  6 active torsions:
REMARK  status: ('A' for Active; 'I' for Inactive)
REMARK    1  A    between atoms: N1_2  and  C3_4 
REMARK    2  A    between atoms: C3_4  and  C4_5 
REMARK    3  A    between atoms: C5_6  and  C6_7 
REMARK       I    between atoms: C6_7  and  N2_9 
REMARK    4  A    between atoms: N2_9  and  C7_10 
REMARK    5  A    between atoms: C14_19  and  N5_20 
REMARK    6  A    between atoms: N5_20  and  C15_21 
ROOT
HETATM    1  C7  UNL     1      24.988   5.468  49.768  1.00  0.00     0.035 A 
HETATM    2  C8  UNL     1      23.899   5.577  48.922  1.00  0.00     0.032 A 
HETATM    3  C9  UNL     1      23.853   6.515  47.909  1.00  0.00     0.035 A 
HETATM    4  C10 UNL     1      24.926   7.382  47.720  1.00  0.00     0.069 A 
HETATM    5  N3  UNL     1      24.857   8.286  46.728  1.00  0.00    -0.259 NA
HETATM    6  C11 UNL     1      25.868   9.141  46.511  1.00  0.00     0.142 A 
HETATM    7  C12 UNL     1      26.997   9.083  47.331  1.00  0.00     0.089 A 
HETATM    8  C13 UNL     1      28.104  10.001  47.113  1.00  0.00     0.103 C 
HETATM    9  N4  UNL     1      28.981  10.727  46.949  1.00  0.00    -0.191 NA
HETATM   10  C14 UNL     1      27.025   8.140  48.336  1.00  0.00     0.068 A 
HETATM   11  C20 UNL     1      25.998   7.252  48.578  1.00  0.00     0.023 A 
HETATM   12  C21 UNL     1      26.059   6.321  49.594  1.00  0.00     0.045 A 
ENDROOT
BRANCH  10  13
HETATM   13  N5  UNL     1      28.195   8.132  49.132  1.00  0.00    -0.352 N 
HETATM   14  H15 UNL     1      28.411   8.597  50.056  1.00  0.00     0.166 HD
BRANCH  13  15
HETATM   15  C15 UNL     1      29.248   7.345  48.556  1.00  0.00     0.064 C 
HETATM   16  C16 UNL     1      29.110   6.208  47.916  1.00  0.00     0.108 C 
HETATM   17  N6  UNL     1      29.898   5.262  48.277  1.00  0.00    -0.280 NA
HETATM   18  C17 UNL     1      31.307   5.531  48.013  1.00  0.00     0.196 C 
HETATM   19  C18 UNL     1      31.569   6.924  48.399  1.00  0.00     0.011 C 
HETATM   20 BR1  UNL     1      33.394   7.435  48.514  1.00  0.00    -0.054 Br
HETATM   21  C19 UNL     1      30.626   7.808  48.663  1.00  0.00     0.048 C 
ENDBRANCH  13  15
ENDBRANCH  10  13
BRANCH   1  22
HETATM   22  N2  UNL     1      25.071   4.513  50.825  1.00  0.00    -0.324 N 
HETATM   23  C6  UNL     1      25.787   3.350  50.426  1.00  0.00     0.245 C 
HETATM   24  O1  UNL     1      26.237   3.293  49.266  1.00  0.00    -0.268 OA
HETATM   25  H11 UNL     1      24.683   4.574  51.812  1.00  0.00     0.169 HD
BRANCH  23  26
HETATM   26  C5  UNL     1      25.991   2.244  51.355  1.00  0.00     0.072 C 
HETATM   27  C4  UNL     1      27.073   1.956  52.060  1.00  0.00     0.008 C 
BRANCH  27  28
HETATM   28  C3  UNL     1      27.292   0.843  53.001  1.00  0.00     0.299 C 
BRANCH  28  29
HETATM   29  N1  UNL     1      28.519   0.897  53.730  1.00  0.00     0.083 N 
HETATM   30  C1  UNL     1      28.556   0.115  54.925  1.00  0.00     0.309 C 
HETATM   31  C2  UNL     1      28.937   2.257  53.895  1.00  0.00     0.309 C 
ENDBRANCH  28  29
ENDBRANCH  27  28
ENDBRANCH  23  26
ENDBRANCH   1  22
TORSDOF 6
ENDMDL
MODEL 8
REMARK VINA RESULT:      -7.3      3.207      6.625
REMARK  6 active torsions:
REMARK  status: ('A' for Active; 'I' for Inactive)
REMARK    1  A    between atoms: N1_2  and  C3_4 
REMARK    2  A    between atoms: C3_4  and  C4_5 
REMARK    3  A    between atoms: C5_6  and  C6_7 
REMARK       I    between atoms: C6_7  and  N2_9 
REMARK    4  A    between atoms: N2_9  and  C7_10 
REMARK    5  A    between atoms: C14_19  and  N5_20 
REMARK    6  A    between atoms: N5_20  and  C15_21 
ROOT
HETATM    1  C7  UNL     1      24.993   3.369  50.291  1.00  0.00     0.035 A 
HETATM    2  C8  UNL     1      25.403   4.642  49.937  1.00  0.00     0.032 A 
HETATM    3  C9  UNL     1      24.676   5.425  49.062  1.00  0.00     0.035 A 
HETATM    4  C10 UNL     1      23.495   4.933  48.511  1.00  0.00     0.069 A 
HETATM    5  N3  UNL     1      22.806   5.715  47.662  1.00  0.00    -0.259 NA
HETATM    6  C11 UNL     1      21.663   5.280  47.109  1.00  0.00     0.142 A 
HETATM    7  C12 UNL     1      21.195   4.003  47.425  1.00  0.00     0.089 A 
HETATM    8  C13 UNL     1      19.959   3.513  46.836  1.00  0.00     0.103 C 
HETATM    9  N4  UNL     1      18.984   3.118  46.371  1.00  0.00    -0.191 NA
HETATM   10  C14 UNL     1      21.934   3.236  48.301  1.00  0.00     0.068 A 
HETATM   11  C20 UNL     1      23.111   3.661  48.881  1.00  0.00     0.023 A 
HETATM   12  C21 UNL     1      23.826   2.868  49.754  1.00  0.00     0.045 A 
ENDROOT
BRANCH  10  13
HETATM   13  N5  UNL     1      21.408   1.953  48.581  1.00  0.00    -0.352 N 
HETATM   14  H15 UNL     1      21.319   1.091  47.977  1.00  0.00     0.166 HD
BRANCH  13  15
HETATM   15  C15 UNL     1      20.923   1.837  49.927  1.00  0.00     0.064 C 
HETATM   16  C16 UNL     1      19.978   2.560  50.479  1.00  0.00     0.108 C 
HETATM   17  N6  UNL     1      20.249   3.049  51.634  1.00  0.00    -0.280 NA
HETATM   18  C17 UNL     1      20.439   2.045  52.675  1.00  0.00     0.196 C 
HETATM   19  C18 UNL     1      21.253   0.965  52.100  1.00  0.00     0.011 C 
HETATM   20 BR1  UNL     1      21.967  -0.293  53.328  1.00  0.00    -0.054 Br
HETATM   21  C19 UNL     1      21.503   0.834  50.811  1.00  0.00     0.048 C 
ENDBRANCH  13  15
ENDBRANCH  10  13
BRANCH   1  22
HETATM   22  N2  UNL     1      25.718   2.531  51.191  1.00  0.00    -0.324 N 
HETATM   23  C6  UNL     1      25.138   2.532  52.490  1.00  0.00     0.245 C 
HETATM   24  O1  UNL     1      24.121   3.223  52.691  1.00  0.00    -0.268 OA
HETATM   25  H11 UNL     1      26.585   1.945  51.007  1.00  0.00     0.169 HD
BRANCH  23  26
HETATM   26  C5  UNL     1      25.720   1.740  53.568  1.00  0.00     0.072 C 
HETATM   27  C4  UNL     1      26.790   0.963  53.526  1.00  0.00     0.008 C 
BRANCH  27  28
HETATM   28  C3  UNL     1      27.388   0.159  54.607  1.00  0.00     0.299 C 
BRANCH  28  29
HETATM   29  N1  UNL     1      28.812   0.236  54.703  1.00  0.00     0.083 N 
HETATM   30  C1  UNL     1      29.370   1.535  54.504  1.00  0.00     0.309 C 
HETATM   31  C2  UNL     1      29.417  -0.800  53.920  1.00  0.00     0.309 C 
ENDBRANCH  28  29
ENDBRANCH  27  28
ENDBRANCH  23  26
ENDBRANCH   1  22
TORSDOF 6
ENDMDL
MODEL 9
REMARK VINA RESULT:      -7.1      3.114      4.976
REMARK  6 active torsions:
REMARK  status: ('A' for Active; 'I' for Inactive)
REMARK    1  A    between atoms: N1_2  and  C3_4 
REMARK    2  A    between atoms: C3_4  and  C4_5 
REMARK    3  A    between atoms: C5_6  and  C6_7 
REMARK       I    between atoms: C6_7  and  N2_9 
REMARK    4  A    between atoms: N2_9  and  C7_10 
REMARK    5  A    between atoms: C14_19  and  N5_20 
REMARK    6  A    between atoms: N5_20  and  C15_21 
ROOT
HETATM    1  C7  UNL     1      24.534   2.936  52.126  1.00  0.00     0.035 A 
HETATM    2  C8  UNL     1      25.443   1.976  52.531  1.00  0.00     0.032 A 
HETATM    3  C9  UNL     1      25.041   0.735  52.984  1.00  0.00     0.035 A 
HETATM    4  C10 UNL     1      23.683   0.426  53.038  1.00  0.00     0.069 A 
HETATM    5  N3  UNL     1      23.317  -0.789  53.483  1.00  0.00    -0.259 NA
HETATM    6  C11 UNL     1      22.020  -1.128  53.552  1.00  0.00     0.142 A 
HETATM    7  C12 UNL     1      21.052  -0.203  53.156  1.00  0.00     0.089 A 
HETATM    8  C13 UNL     1      19.642  -0.550  53.224  1.00  0.00     0.103 C 
HETATM    9  N4  UNL     1      18.524  -0.817  53.278  1.00  0.00    -0.191 NA
HETATM   10  C14 UNL     1      21.474   1.031  52.708  1.00  0.00     0.068 A 
HETATM   11  C20 UNL     1      22.800   1.402  52.628  1.00  0.00     0.023 A 
HETATM   12  C21 UNL     1      23.186   2.645  52.174  1.00  0.00     0.045 A 
ENDROOT
BRANCH  10  13
HETATM   13  N5  UNL     1      20.445   1.923  52.322  1.00  0.00    -0.352 N 
HETATM   14  H15 UNL     1      19.780   2.507  52.898  1.00  0.00     0.166 HD
BRANCH  13  15
HETATM   15  C15 UNL     1      20.314   2.031  50.897  1.00  0.00     0.064 C 
HETATM   16  C16 UNL     1      20.358   1.043  50.034  1.00  0.00     0.108 C 
HETATM   17  N6  UNL     1      21.121   1.221  49.018  1.00  0.00    -0.280 NA
HETATM   18  C17 UNL     1      20.698   2.304  48.140  1.00  0.00     0.196 C 
HETATM   19  C18 UNL     1      20.300   3.432  48.993  1.00  0.00     0.011 C 
HETATM   20 BR1  UNL     1      20.058   5.101  48.121  1.00  0.00    -0.054 Br
HETATM   21  C19 UNL     1      20.109   3.342  50.296  1.00  0.00     0.048 C 
ENDBRANCH  13  15
ENDBRANCH  10  13
BRANCH   1  22
HETATM   22  N2  UNL     1      24.913   4.228  51.653  1.00  0.00    -0.324 N 
HETATM   23  C6  UNL     1      25.209   4.212  50.262  1.00  0.00     0.245 C 
HETATM   24  O1  UNL     1      25.113   3.136  49.642  1.00  0.00    -0.268 OA
HETATM   25  H11 UNL     1      24.990   5.141  52.193  1.00  0.00     0.169 HD
BRANCH  23  26
HETATM   26  C5  UNL     1      25.619   5.431  49.572  1.00  0.00     0.072 C 
HETATM   27  C4  UNL     1      24.977   6.086  48.619  1.00  0.00     0.008 C 
BRANCH  27  28
HETATM   28  C3  UNL     1      25.379   7.317  47.915  1.00  0.00     0.299 C 
BRANCH  28  29
HETATM   29  N1  UNL     1      24.320   8.012  47.254  1.00  0.00     0.083 N 
HETATM   30  C1  UNL     1      23.961   9.269  47.829  1.00  0.00     0.309 C 
HETATM   31  C2  UNL     1      23.218   7.128  47.019  1.00  0.00     0.309 C 
ENDBRANCH  28  29
ENDBRANCH  27  28
ENDBRANCH  23  26
ENDBRANCH   1  22
TORSDOF 6
ENDMDL
