MODEL 1
REMARK VINA RESULT:      -7.7      0.000      0.000
REMARK  4 active torsions:
REMARK  status: ('A' for Active; 'I' for Inactive)
REMARK    1  A    between atoms: C3_3  and  C4_4 
REMARK    2  A    between atoms: C4_4  and  C5_6 
REMARK    3  A    between atoms: C8_9  and  N1_10 
REMARK    4  A    between atoms: N1_10  and  C9_11 
ROOT
HETATM    1  C1  UNL     1      26.433   3.067  49.927  1.00  0.00     0.112 C 
HETATM    2  C2  UNL     1      26.587   2.121  51.037  1.00  0.00    -0.102 C 
HETATM    3  C3  UNL     1      26.708   1.318  51.951  1.00  0.00    -0.022 C 
ENDROOT
BRANCH   3   4
HETATM    4  C4  UNL     1      26.842   0.382  53.044  1.00  0.00     0.253 C 
HETATM    5  O1  UNL     1      27.991   0.085  53.403  1.00  0.00    -0.276 OA
BRANCH   4   6
HETATM    6  C5  UNL     1      25.588  -0.134  53.635  1.00  0.00     0.116 A 
HETATM    7  C6  UNL     1      24.399  -0.002  52.950  1.00  0.00     0.054 A 
HETATM    8  C7  UNL     1      23.213  -0.473  53.476  1.00  0.00     0.042 A 
HETATM    9  C8  UNL     1      22.056  -0.317  52.756  1.00  0.00     0.138 A 
HETATM   10  C15 UNL     1      23.228  -1.087  54.709  1.00  0.00     0.089 A 
HETATM   11  N2  UNL     1      20.959  -0.806  53.347  1.00  0.00    -0.224 NA
HETATM   12  C14 UNL     1      20.948  -1.403  54.538  1.00  0.00     0.236 A 
HETATM   13  N3  UNL     1      22.095  -1.560  55.257  1.00  0.00    -0.240 NA
HETATM   14  C16 UNL     1      24.435  -1.204  55.370  1.00  0.00     0.150 A 
HETATM   15  N4  UNL     1      25.557  -0.740  54.839  1.00  0.00    -0.254 NA
BRANCH   9  16
HETATM   16  N1  UNL     1      21.973   0.304  51.484  1.00  0.00    -0.363 N 
HETATM   17  H5  UNL     1      22.193  -0.111  50.563  1.00  0.00     0.162 HD
BRANCH  16  18
HETATM   18  C9  UNL     1      21.533   1.689  51.403  1.00  0.00     0.134 A 
HETATM   19  C10 UNL     1      22.305   2.616  52.229  1.00  0.00     0.046 A 
HETATM   20  C11 UNL     1      22.890   3.468  51.405  1.00  0.00     0.136 A 
HETATM   21  F1  UNL     1      23.669   4.434  51.961  1.00  0.00    -0.205 F 
HETATM   22  C12 UNL     1      22.574   3.196  50.028  1.00  0.00     0.070 A 
HETATM   23 CL1  UNL     1      23.207   4.161  48.710  1.00  0.00    -0.081 Cl
HETATM   24  C13 UNL     1      21.778   2.152  50.015  1.00  0.00     0.029 A 
ENDBRANCH  16  18
ENDBRANCH   9  16
ENDBRANCH   4   6
ENDBRANCH   3   4
TORSDOF 4
ENDMDL
MODEL 2
REMARK VINA RESULT:      -7.6      2.709      3.858
REMARK  4 active torsions:
REMARK  status: ('A' for Active; 'I' for Inactive)
REMARK    1  A    between atoms: C3_3  and  C4_4 
REMARK    2  A    between atoms: C4_4  and  C5_6 
REMARK    3  A    between atoms: C8_9  and  N1_10 
REMARK    4  A    between atoms: N1_10  and  C9_11 
ROOT
HETATM    1  C1  UNL     1      30.197  -1.785  53.812  1.00  0.00     0.112 C 
HETATM    2  C2  UNL     1      29.351  -0.588  53.836  1.00  0.00    -0.102 C 
HETATM    3  C3  UNL     1      28.640   0.406  53.876  1.00  0.00    -0.022 C 
ENDROOT
BRANCH   3   4
HETATM    4  C4  UNL     1      27.792   1.576  53.905  1.00  0.00     0.253 C 
HETATM    5  O1  UNL     1      28.327   2.662  54.170  1.00  0.00    -0.276 OA
BRANCH   4   6
HETATM    6  C5  UNL     1      26.358   1.365  53.612  1.00  0.00     0.116 A 
HETATM    7  C6  UNL     1      25.580   2.417  53.180  1.00  0.00     0.054 A 
HETATM    8  C7  UNL     1      24.239   2.250  52.899  1.00  0.00     0.042 A 
HETATM    9  C8  UNL     1      23.507   3.329  52.473  1.00  0.00     0.138 A 
HETATM   10  C15 UNL     1      23.676   1.003  53.056  1.00  0.00     0.089 A 
HETATM   11  N2  UNL     1      22.218   3.069  52.226  1.00  0.00    -0.224 NA
HETATM   12  C14 UNL     1      21.651   1.873  52.370  1.00  0.00     0.236 A 
HETATM   13  N3  UNL     1      22.374   0.798  52.794  1.00  0.00    -0.240 NA
HETATM   14  C16 UNL     1      24.481  -0.032  53.491  1.00  0.00     0.150 A 
HETATM   15  N4  UNL     1      25.766   0.161  53.752  1.00  0.00    -0.254 NA
BRANCH   9  16
HETATM   16  N1  UNL     1      24.027   4.636  52.291  1.00  0.00    -0.363 N 
HETATM   17  H5  UNL     1      24.446   5.255  53.005  1.00  0.00     0.162 HD
BRANCH  16  18
HETATM   18  C9  UNL     1      23.992   5.230  50.962  1.00  0.00     0.134 A 
HETATM   19  C10 UNL     1      24.429   6.624  50.913  1.00  0.00     0.046 A 
HETATM   20  C11 UNL     1      25.512   6.660  50.156  1.00  0.00     0.136 A 
HETATM   21  F1  UNL     1      26.097   7.873  49.968  1.00  0.00    -0.205 F 
HETATM   22  C12 UNL     1      25.872   5.358  49.661  1.00  0.00     0.070 A 
HETATM   23 CL1  UNL     1      27.265   5.097  48.631  1.00  0.00    -0.081 Cl
HETATM   24  C13 UNL     1      24.986   4.510  50.128  1.00  0.00     0.029 A 
ENDBRANCH  16  18
ENDBRANCH   9  16
ENDBRANCH   4   6
ENDBRANCH   3   4
TORSDOF 4
ENDMDL
MODEL 3
REMARK VINA RESULT:      -7.6      2.494      4.524
REMARK  4 active torsions:
REMARK  status: ('A' for Active; 'I' for Inactive)
REMARK    1  A    between atoms: C3_3  and  C4_4 
REMARK    2  A    between atoms: C4_4  and  C5_6 
REMARK    3  A    between atoms: C8_9  and  N1_10 
REMARK    4  A    between atoms: N1_10  and  C9_11 
ROOT
HETATM    1  C1  UNL     1      20.969   1.057  49.237  1.00  0.00     0.112 C 
HETATM    2  C2  UNL     1      21.151   0.651  50.633  1.00  0.00    -0.102 C 
HETATM    3  C3  UNL     1      21.319   0.325  51.800  1.00  0.00    -0.022 C 
ENDROOT
BRANCH   3   4
HETATM    4  C4  UNL     1      21.515  -0.079  53.173  1.00  0.00     0.253 C 
HETATM    5  O1  UNL     1      20.505  -0.348  53.840  1.00  0.00    -0.276 OA
BRANCH   4   6
HETATM    6  C5  UNL     1      22.912  -0.135  53.656  1.00  0.00     0.116 A 
HETATM    7  C6  UNL     1      23.819   0.823  53.254  1.00  0.00     0.054 A 
HETATM    8  C7  UNL     1      25.129   0.796  53.688  1.00  0.00     0.042 A 
HETATM    9  C8  UNL     1      25.993   1.772  53.259  1.00  0.00     0.138 A 
HETATM   10  C15 UNL     1      25.529  -0.210  54.539  1.00  0.00     0.089 A 
HETATM   11  N2  UNL     1      27.240   1.663  53.732  1.00  0.00    -0.224 NA
HETATM   12  C14 UNL     1      27.651   0.699  54.556  1.00  0.00     0.236 A 
HETATM   13  N3  UNL     1      26.796  -0.272  54.984  1.00  0.00    -0.240 NA
HETATM   14  C16 UNL     1      24.598  -1.155  54.923  1.00  0.00     0.150 A 
HETATM   15  N4  UNL     1      23.346  -1.102  54.489  1.00  0.00    -0.254 NA
BRANCH   9  16
HETATM   16  N1  UNL     1      25.644   2.833  52.385  1.00  0.00    -0.363 N 
HETATM   17  H5  UNL     1      25.360   3.793  52.639  1.00  0.00     0.162 HD
BRANCH  16  18
HETATM   18  C9  UNL     1      25.669   2.600  50.948  1.00  0.00     0.134 A 
HETATM   19  C10 UNL     1      24.474   3.056  50.242  1.00  0.00     0.046 A 
HETATM   20  C11 UNL     1      24.860   4.004  49.406  1.00  0.00     0.136 A 
HETATM   21  F1  UNL     1      23.899   4.580  48.635  1.00  0.00    -0.205 F 
HETATM   22  C12 UNL     1      26.275   4.249  49.480  1.00  0.00     0.070 A 
HETATM   23 CL1  UNL     1      27.074   5.453  48.489  1.00  0.00    -0.081 Cl
HETATM   24  C13 UNL     1      26.762   3.430  50.383  1.00  0.00     0.029 A 
ENDBRANCH  16  18
ENDBRANCH   9  16
ENDBRANCH   4   6
ENDBRANCH   3   4
TORSDOF 4
ENDMDL
MODEL 4
REMARK VINA RESULT:      -7.5      2.423      4.501
REMARK  4 active torsions:
REMARK  status: ('A' for Active; 'I' for Inactive)
REMARK    1  A    between atoms: C3_3  and  C4_4 
REMARK    2  A    between atoms: C4_4  and  C5_6 
REMARK    3  A    between atoms: C8_9  and  N1_10 
REMARK    4  A    between atoms: N1_10  and  C9_11 
ROOT
HETATM    1  C1  UNL     1      20.819   0.338  50.922  1.00  0.00     0.112 C 
HETATM    2  C2  UNL     1      21.624  -0.111  52.062  1.00  0.00    -0.102 C 
HETATM    3  C3  UNL     1      22.298  -0.504  53.003  1.00  0.00    -0.022 C 
ENDROOT
BRANCH   3   4
HETATM    4  C4  UNL     1      23.080  -0.961  54.129  1.00  0.00     0.253 C 
HETATM    5  O1  UNL     1      22.550  -1.773  54.901  1.00  0.00    -0.276 OA
BRANCH   4   6
HETATM    6  C5  UNL     1      24.448  -0.413  54.253  1.00  0.00     0.116 A 
HETATM    7  C6  UNL     1      24.969   0.376  53.250  1.00  0.00     0.054 A 
HETATM    8  C7  UNL     1      26.242   0.901  53.338  1.00  0.00     0.042 A 
HETATM    9  C8  UNL     1      26.714   1.681  52.312  1.00  0.00     0.138 A 
HETATM   10  C15 UNL     1      27.001   0.627  54.454  1.00  0.00     0.089 A 
HETATM   11  N2  UNL     1      27.957   2.144  52.488  1.00  0.00    -0.224 NA
HETATM   12  C14 UNL     1      28.710   1.892  53.558  1.00  0.00     0.236 A 
HETATM   13  N3  UNL     1      28.245   1.118  54.579  1.00  0.00    -0.240 NA
HETATM   14  C16 UNL     1      26.452  -0.168  55.442  1.00  0.00     0.150 A 
HETATM   15  N4  UNL     1      25.225  -0.657  55.328  1.00  0.00    -0.254 NA
BRANCH   9  16
HETATM   16  N1  UNL     1      25.985   2.001  51.139  1.00  0.00    -0.363 N 
HETATM   17  H5  UNL     1      25.995   1.503  50.233  1.00  0.00     0.162 HD
BRANCH  16  18
HETATM   18  C9  UNL     1      25.100   3.157  51.152  1.00  0.00     0.134 A 
HETATM   19  C10 UNL     1      25.528   4.254  50.286  1.00  0.00     0.046 A 
HETATM   20  C11 UNL     1      24.591   4.403  49.366  1.00  0.00     0.136 A 
HETATM   21  F1  UNL     1      24.781   5.381  48.440  1.00  0.00    -0.205 F 
HETATM   22  C12 UNL     1      23.512   3.466  49.532  1.00  0.00     0.070 A 
HETATM   23 CL1  UNL     1      22.127   3.427  48.460  1.00  0.00    -0.081 Cl
HETATM   24  C13 UNL     1      23.801   2.729  50.579  1.00  0.00     0.029 A 
ENDBRANCH  16  18
ENDBRANCH   9  16
ENDBRANCH   4   6
ENDBRANCH   3   4
TORSDOF 4
ENDMDL
MODEL 5
REMARK VINA RESULT:      -7.4      1.940      2.492
REMARK  4 active torsions:
REMARK  status: ('A' for Active; 'I' for Inactive)
REMARK    1  A    between atoms: C3_3  and  C4_4 
REMARK    2  A    between atoms: C4_4  and  C5_6 
REMARK    3  A    between atoms: C8_9  and  N1_10 
REMARK    4  A    between atoms: N1_10  and  C9_11 
ROOT
HETATM    1  C1  UNL     1      30.120  -1.280  53.541  1.00  0.00     0.112 C 
HETATM    2  C2  UNL     1      28.918  -0.464  53.738  1.00  0.00    -0.102 C 
HETATM    3  C3  UNL     1      27.913   0.208  53.921  1.00  0.00    -0.022 C 
ENDROOT
BRANCH   3   4
HETATM    4  C4  UNL     1      26.720   0.998  54.119  1.00  0.00     0.253 C 
HETATM    5  O1  UNL     1      26.840   2.231  54.094  1.00  0.00    -0.276 OA
BRANCH   4   6
HETATM    6  C5  UNL     1      25.459   0.254  54.332  1.00  0.00     0.116 A 
HETATM    7  C6  UNL     1      24.329   0.595  53.620  1.00  0.00     0.054 A 
HETATM    8  C7  UNL     1      23.139  -0.081  53.797  1.00  0.00     0.042 A 
HETATM    9  C8  UNL     1      22.042   0.297  53.065  1.00  0.00     0.138 A 
HETATM   10  C15 UNL     1      23.088  -1.115  54.706  1.00  0.00     0.089 A 
HETATM   11  N2  UNL     1      20.936  -0.416  53.306  1.00  0.00    -0.224 NA
HETATM   12  C14 UNL     1      20.862  -1.420  54.179  1.00  0.00     0.236 A 
HETATM   13  N3  UNL     1      21.949  -1.798  54.909  1.00  0.00    -0.240 NA
HETATM   14  C16 UNL     1      24.237  -1.432  55.404  1.00  0.00     0.150 A 
HETATM   15  N4  UNL     1      25.366  -0.764  55.211  1.00  0.00    -0.254 NA
BRANCH   9  16
HETATM   16  N1  UNL     1      22.028   1.351  52.116  1.00  0.00    -0.363 N 
HETATM   17  H5  UNL     1      21.882   2.358  52.293  1.00  0.00     0.162 HD
BRANCH  16  18
HETATM   18  C9  UNL     1      22.239   1.036  50.710  1.00  0.00     0.134 A 
HETATM   19  C10 UNL     1      21.014   0.981  49.914  1.00  0.00     0.046 A 
HETATM   20  C11 UNL     1      21.102   1.940  49.008  1.00  0.00     0.136 A 
HETATM   21  F1  UNL     1      20.060   2.075  48.146  1.00  0.00    -0.205 F 
HETATM   22  C12 UNL     1      22.331   2.679  49.118  1.00  0.00     0.070 A 
HETATM   23 CL1  UNL     1      22.726   4.010  48.050  1.00  0.00    -0.081 Cl
HETATM   24  C13 UNL     1      23.007   2.156  50.115  1.00  0.00     0.029 A 
ENDBRANCH  16  18
ENDBRANCH   9  16
ENDBRANCH   4   6
ENDBRANCH   3   4
TORSDOF 4
ENDMDL
MODEL 6
REMARK VINA RESULT:      -7.4      2.646      4.100
REMARK  4 active torsions:
REMARK  status: ('A' for Active; 'I' for Inactive)
REMARK    1  A    between atoms: C3_3  and  C4_4 
REMARK    2  A    between atoms: C4_4  and  C5_6 
REMARK    3  A    between atoms: C8_9  and  N1_10 
REMARK    4  A    between atoms: N1_10  and  C9_11 
ROOT
HETATM    1  C1  UNL     1      22.528   3.146  48.613  1.00  0.00     0.112 C 
HETATM    2  C2  UNL     1      23.872   3.152  49.199  1.00  0.00    -0.102 C 
HETATM    3  C3  UNL     1      24.996   3.138  49.681  1.00  0.00    -0.022 C 
ENDROOT
BRANCH   3   4
HETATM    4  C4  UNL     1      26.316   3.130  50.268  1.00  0.00     0.253 C 
HETATM    5  O1  UNL     1      27.195   3.798  49.704  1.00  0.00    -0.276 OA
BRANCH   4   6
HETATM    6  C5  UNL     1      26.493   2.322  51.494  1.00  0.00     0.116 A 
HETATM    7  C6  UNL     1      25.463   1.526  51.950  1.00  0.00     0.054 A 
HETATM    8  C7  UNL     1      25.599   0.761  53.090  1.00  0.00     0.042 A 
HETATM    9  C8  UNL     1      24.545  -0.014  53.503  1.00  0.00     0.138 A 
HETATM   10  C15 UNL     1      26.791   0.799  53.780  1.00  0.00     0.089 A 
HETATM   11  N2  UNL     1      24.771  -0.719  54.617  1.00  0.00    -0.224 NA
HETATM   12  C14 UNL     1      25.914  -0.699  55.302  1.00  0.00     0.236 A 
HETATM   13  N3  UNL     1      26.964   0.070  54.896  1.00  0.00    -0.240 NA
HETATM   14  C16 UNL     1      27.803   1.606  53.299  1.00  0.00     0.150 A 
HETATM   15  N4  UNL     1      27.642   2.330  52.200  1.00  0.00    -0.254 NA
BRANCH   9  16
HETATM   16  N1  UNL     1      23.295  -0.097  52.839  1.00  0.00    -0.363 N 
HETATM   17  H5  UNL     1      23.077  -0.600  51.963  1.00  0.00     0.162 HD
BRANCH  16  18
HETATM   18  C9  UNL     1      22.145   0.589  53.411  1.00  0.00     0.134 A 
HETATM   19  C10 UNL     1      21.648   1.705  52.610  1.00  0.00     0.046 A 
HETATM   20  C11 UNL     1      20.418   1.395  52.240  1.00  0.00     0.136 A 
HETATM   21  F1  UNL     1      19.752   2.301  51.477  1.00  0.00    -0.205 F 
HETATM   22  C12 UNL     1      20.010   0.108  52.739  1.00  0.00     0.070 A 
HETATM   23 CL1  UNL     1      18.428  -0.569  52.409  1.00  0.00    -0.081 Cl
HETATM   24  C13 UNL     1      21.017  -0.374  53.428  1.00  0.00     0.029 A 
ENDBRANCH  16  18
ENDBRANCH   9  16
ENDBRANCH   4   6
ENDBRANCH   3   4
TORSDOF 4
ENDMDL
MODEL 7
REMARK VINA RESULT:      -7.2      3.035      5.323
REMARK  4 active torsions:
REMARK  status: ('A' for Active; 'I' for Inactive)
REMARK    1  A    between atoms: C3_3  and  C4_4 
REMARK    2  A    between atoms: C4_4  and  C5_6 
REMARK    3  A    between atoms: C8_9  and  N1_10 
REMARK    4  A    between atoms: N1_10  and  C9_11 
ROOT
HETATM    1  C1  UNL     1      17.379  -0.910  51.846  1.00  0.00     0.112 C 
HETATM    2  C2  UNL     1      18.488   0.004  52.134  1.00  0.00    -0.102 C 
HETATM    3  C3  UNL     1      19.422   0.762  52.357  1.00  0.00    -0.022 C 
ENDROOT
BRANCH   3   4
HETATM    4  C4  UNL     1      20.527   1.649  52.639  1.00  0.00     0.253 C 
HETATM    5  O1  UNL     1      20.279   2.861  52.722  1.00  0.00    -0.276 OA
BRANCH   4   6
HETATM    6  C5  UNL     1      21.857   1.023  52.804  1.00  0.00     0.116 A 
HETATM    7  C6  UNL     1      22.990   1.697  52.402  1.00  0.00     0.054 A 
HETATM    8  C7  UNL     1      24.244   1.138  52.542  1.00  0.00     0.042 A 
HETATM    9  C8  UNL     1      25.342   1.849  52.126  1.00  0.00     0.138 A 
HETATM   10  C15 UNL     1      24.356  -0.118  53.097  1.00  0.00     0.089 A 
HETATM   11  N2  UNL     1      26.512   1.226  52.304  1.00  0.00    -0.224 NA
HETATM   12  C14 UNL     1      26.646   0.012  52.837  1.00  0.00     0.236 A 
HETATM   13  N3  UNL     1      25.559  -0.698  53.252  1.00  0.00    -0.240 NA
HETATM   14  C16 UNL     1      23.202  -0.767  53.490  1.00  0.00     0.150 A 
HETATM   15  N4  UNL     1      22.011  -0.204  53.341  1.00  0.00    -0.254 NA
BRANCH   9  16
HETATM   16  N1  UNL     1      25.294   3.143  51.549  1.00  0.00    -0.363 N 
HETATM   17  H5  UNL     1      25.245   4.052  52.038  1.00  0.00     0.162 HD
BRANCH  16  18
HETATM   18  C9  UNL     1      25.315   3.269  50.098  1.00  0.00     0.134 A 
HETATM   19  C10 UNL     1      24.552   4.402  49.580  1.00  0.00     0.046 A 
HETATM   20  C11 UNL     1      25.414   5.204  48.980  1.00  0.00     0.136 A 
HETATM   21  F1  UNL     1      24.919   6.337  48.416  1.00  0.00    -0.205 F 
HETATM   22  C12 UNL     1      26.760   4.697  49.043  1.00  0.00     0.070 A 
HETATM   23 CL1  UNL     1      28.118   5.546  48.332  1.00  0.00    -0.081 Cl
HETATM   24  C13 UNL     1      26.713   3.561  49.698  1.00  0.00     0.029 A 
ENDBRANCH  16  18
ENDBRANCH   9  16
ENDBRANCH   4   6
ENDBRANCH   3   4
TORSDOF 4
ENDMDL
MODEL 8
REMARK VINA RESULT:      -7.1      3.590      6.214
REMARK  4 active torsions:
REMARK  status: ('A' for Active; 'I' for Inactive)
REMARK    1  A    between atoms: C3_3  and  C4_4 
REMARK    2  A    between atoms: C4_4  and  C5_6 
REMARK    3  A    between atoms: C8_9  and  N1_10 
REMARK    4  A    between atoms: N1_10  and  C9_11 
ROOT
HETATM    1  C1  UNL     1      23.706  -1.631  55.745  1.00  0.00     0.112 C 
HETATM    2  C2  UNL     1      22.646  -0.944  55.001  1.00  0.00    -0.102 C 
HETATM    3  C3  UNL     1      21.757  -0.388  54.371  1.00  0.00    -0.022 C 
ENDROOT
BRANCH   3   4
HETATM    4  C4  UNL     1      20.720   0.283  53.623  1.00  0.00     0.253 C 
HETATM    5  O1  UNL     1      19.599  -0.247  53.597  1.00  0.00    -0.276 OA
BRANCH   4   6
HETATM    6  C5  UNL     1      21.096   1.547  52.954  1.00  0.00     0.116 A 
HETATM    7  C6  UNL     1      22.405   1.768  52.582  1.00  0.00     0.054 A 
HETATM    8  C7  UNL     1      22.786   2.937  51.957  1.00  0.00     0.042 A 
HETATM    9  C8  UNL     1      24.102   3.109  51.608  1.00  0.00     0.138 A 
HETATM   10  C15 UNL     1      21.833   3.898  51.702  1.00  0.00     0.089 A 
HETATM   11  N2  UNL     1      24.374   4.273  51.007  1.00  0.00    -0.224 NA
HETATM   12  C14 UNL     1      23.470   5.217  50.750  1.00  0.00     0.236 A 
HETATM   13  N3  UNL     1      22.162   5.051  51.095  1.00  0.00    -0.240 NA
HETATM   14  C16 UNL     1      20.530   3.649  52.086  1.00  0.00     0.150 A 
HETATM   15  N4  UNL     1      20.195   2.514  52.685  1.00  0.00    -0.254 NA
BRANCH   9  16
HETATM   16  N1  UNL     1      25.130   2.160  51.841  1.00  0.00    -0.363 N 
HETATM   17  H5  UNL     1      25.341   1.309  51.294  1.00  0.00     0.162 HD
BRANCH  16  18
HETATM   18  C9  UNL     1      26.026   2.356  52.972  1.00  0.00     0.134 A 
HETATM   19  C10 UNL     1      25.730   1.514  54.129  1.00  0.00     0.046 A 
HETATM   20  C11 UNL     1      26.777   0.729  54.311  1.00  0.00     0.136 A 
HETATM   21  F1  UNL     1      26.722  -0.150  55.347  1.00  0.00    -0.205 F 
HETATM   22  C12 UNL     1      27.810   0.969  53.338  1.00  0.00     0.070 A 
HETATM   23 CL1  UNL     1      29.318   0.076  53.329  1.00  0.00    -0.081 Cl
HETATM   24  C13 UNL     1      27.379   1.923  52.546  1.00  0.00     0.029 A 
ENDBRANCH  16  18
ENDBRANCH   9  16
ENDBRANCH   4   6
ENDBRANCH   3   4
TORSDOF 4
ENDMDL
MODEL 9
REMARK VINA RESULT:      -7.1      3.564      5.572
REMARK  4 active torsions:
REMARK  status: ('A' for Active; 'I' for Inactive)
REMARK    1  A    between atoms: C3_3  and  C4_4 
REMARK    2  A    between atoms: C4_4  and  C5_6 
REMARK    3  A    between atoms: C8_9  and  N1_10 
REMARK    4  A    between atoms: N1_10  and  C9_11 
ROOT
HETATM    1  C1  UNL     1      27.036   5.365  48.606  1.00  0.00     0.112 C 
HETATM    2  C2  UNL     1      25.874   5.256  49.492  1.00  0.00    -0.102 C 
HETATM    3  C3  UNL     1      24.892   5.173  50.218  1.00  0.00    -0.022 C 
ENDROOT
BRANCH   3   4
HETATM    4  C4  UNL     1      23.745   5.083  51.091  1.00  0.00     0.253 C 
HETATM    5  O1  UNL     1      23.221   6.145  51.458  1.00  0.00    -0.276 OA
BRANCH   4   6
HETATM    6  C5  UNL     1      23.301   3.722  51.466  1.00  0.00     0.116 A 
HETATM    7  C6  UNL     1      24.143   2.894  52.177  1.00  0.00     0.054 A 
HETATM    8  C7  UNL     1      23.756   1.620  52.540  1.00  0.00     0.042 A 
HETATM    9  C8  UNL     1      24.631   0.834  53.247  1.00  0.00     0.138 A 
HETATM   10  C15 UNL     1      22.503   1.176  52.181  1.00  0.00     0.089 A 
HETATM   11  N2  UNL     1      24.167  -0.383  53.554  1.00  0.00    -0.224 NA
HETATM   12  C14 UNL     1      22.960  -0.835  53.218  1.00  0.00     0.236 A 
HETATM   13  N3  UNL     1      22.088  -0.058  52.515  1.00  0.00    -0.240 NA
HETATM   14  C16 UNL     1      21.683   2.029  51.469  1.00  0.00     0.150 A 
HETATM   15  N4  UNL     1      22.083   3.248  51.134  1.00  0.00    -0.254 NA
BRANCH   9  16
HETATM   16  N1  UNL     1      25.932   1.232  53.647  1.00  0.00    -0.363 N 
HETATM   17  H5  UNL     1      26.199   1.763  54.492  1.00  0.00     0.162 HD
BRANCH  16  18
HETATM   18  C9  UNL     1      27.067   0.877  52.806  1.00  0.00     0.134 A 
HETATM   19  C10 UNL     1      28.370   1.086  53.432  1.00  0.00     0.046 A 
HETATM   20  C11 UNL     1      28.944  -0.101  53.529  1.00  0.00     0.136 A 
HETATM   21  F1  UNL     1      30.182  -0.148  54.089  1.00  0.00    -0.205 F 
HETATM   22  C12 UNL     1      28.113  -1.150  53.001  1.00  0.00     0.070 A 
HETATM   23 CL1  UNL     1      28.610  -2.830  52.995  1.00  0.00    -0.081 Cl
HETATM   24  C13 UNL     1      27.007  -0.587  52.574  1.00  0.00     0.029 A 
ENDBRANCH  16  18
ENDBRANCH   9  16
ENDBRANCH   4   6
ENDBRANCH   3   4
TORSDOF 4
ENDMDL
