MODEL 1
REMARK VINA RESULT:      -6.8      0.000      0.000
REMARK  6 active torsions:
REMARK  status: ('A' for Active; 'I' for Inactive)
REMARK    1  A    between atoms: C2_2  and  C3_4 
REMARK    2  A    between atoms: C4_5  and  C5_7 
REMARK    3  A    between atoms: C5_7  and  N1_8 
REMARK    4  A    between atoms: N1_8  and  C6_9 
REMARK    5  A    between atoms: C9_13  and  O1_14 
REMARK    6  A    between atoms: C11_16  and  O2_17 
ROOT
HETATM    1  C6  UNL     1      23.283   1.280  52.627  1.00  0.00     0.191 C 
HETATM    2  F1  UNL     1      22.375   0.291  52.318  1.00  0.00    -0.186 F 
HETATM    3  C7  UNL     1      24.447   0.798  53.102  1.00  0.00     0.004 A 
HETATM    4  C8  UNL     1      25.503   1.736  53.493  1.00  0.00     0.051 A 
HETATM    5  C9  UNL     1      26.681   1.389  53.943  1.00  0.00     0.101 A 
HETATM    6  C11 UNL     1      27.007  -0.030  54.089  1.00  0.00     0.098 A 
HETATM    7  C13 UNL     1      26.054  -0.874  53.745  1.00  0.00     0.018 A 
HETATM    8  C14 UNL     1      24.689  -0.651  53.231  1.00  0.00     0.073 A 
ENDROOT
BRANCH   1   9
HETATM    9  N1  UNL     1      23.095   2.694  52.508  1.00  0.00    -0.362 N 
HETATM   10  H6  UNL     1      23.308   3.220  53.374  1.00  0.00     0.162 HD
BRANCH   9  11
HETATM   11  C5  UNL     1      22.681   3.486  51.377  1.00  0.00     0.169 C 
BRANCH  11  12
HETATM   12  C4  UNL     1      23.550   3.233  50.199  1.00  0.00     0.014 C 
HETATM   13  C3  UNL     1      24.479   4.117  50.584  1.00  0.00     0.103 C 
HETATM   14 CL1  UNL     1      22.615   2.003  49.304  1.00  0.00    -0.091 Cl
BRANCH  13  15
HETATM   15  C2  UNL     1      25.697   4.421  49.806  1.00  0.00     0.014 A 
HETATM   16  C1  UNL     1      26.570   3.412  49.971  1.00  0.00     0.090 A 
HETATM   17 BR1  UNL     1      27.276   4.749  48.836  1.00  0.00    -0.161 Br
ENDBRANCH  13  15
ENDBRANCH  11  12
ENDBRANCH   9  11
ENDBRANCH   1   9
BRANCH   5  18
HETATM   18  O1  UNL     1      27.713   2.251  54.322  1.00  0.00    -0.353 OA
HETATM   19  C10 UNL     1      28.731   2.559  53.388  1.00  0.00     0.210 C 
ENDBRANCH   5  18
BRANCH   6  20
HETATM   20  O2  UNL     1      28.233  -0.469  54.555  1.00  0.00    -0.353 OA
HETATM   21  C12 UNL     1      29.184  -1.113  53.734  1.00  0.00     0.210 C 
ENDBRANCH   6  20
TORSDOF 6
ENDMDL
MODEL 2
REMARK VINA RESULT:      -6.6      3.958      5.461
REMARK  6 active torsions:
REMARK  status: ('A' for Active; 'I' for Inactive)
REMARK    1  A    between atoms: C2_2  and  C3_4 
REMARK    2  A    between atoms: C4_5  and  C5_7 
REMARK    3  A    between atoms: C5_7  and  N1_8 
REMARK    4  A    between atoms: N1_8  and  C6_9 
REMARK    5  A    between atoms: C9_13  and  O1_14 
REMARK    6  A    between atoms: C11_16  and  O2_17 
ROOT
HETATM    1  C6  UNL     1      24.772  -0.379  53.915  1.00  0.00     0.191 C 
HETATM    2  F1  UNL     1      25.226  -1.023  55.046  1.00  0.00    -0.186 F 
HETATM    3  C7  UNL     1      23.433  -0.430  53.781  1.00  0.00     0.004 A 
HETATM    4  C8  UNL     1      22.807   0.196  52.613  1.00  0.00     0.051 A 
HETATM    5  C9  UNL     1      21.520   0.235  52.386  1.00  0.00     0.101 A 
HETATM    6  C11 UNL     1      20.601  -0.387  53.341  1.00  0.00     0.098 A 
HETATM    7  C13 UNL     1      21.164  -0.957  54.388  1.00  0.00     0.018 A 
HETATM    8  C14 UNL     1      22.580  -1.091  54.786  1.00  0.00     0.073 A 
ENDROOT
BRANCH   1   9
HETATM    9  N1  UNL     1      25.561   0.282  52.921  1.00  0.00    -0.362 N 
HETATM   10  H6  UNL     1      25.005   0.718  52.165  1.00  0.00     0.162 HD
BRANCH   9  11
HETATM   11  C5  UNL     1      26.990   0.449  52.827  1.00  0.00     0.169 C 
BRANCH  11  12
HETATM   12  C4  UNL     1      27.344   1.847  52.472  1.00  0.00     0.014 C 
HETATM   13  C3  UNL     1      26.553   1.865  51.392  1.00  0.00     0.103 C 
HETATM   14 CL1  UNL     1      28.504   2.277  53.759  1.00  0.00    -0.091 Cl
BRANCH  13  15
HETATM   15  C2  UNL     1      26.432   3.022  50.480  1.00  0.00     0.014 A 
HETATM   16  C1  UNL     1      25.128   3.253  50.257  1.00  0.00     0.090 A 
HETATM   17 BR1  UNL     1      26.210   4.488  49.322  1.00  0.00    -0.161 Br
ENDBRANCH  13  15
ENDBRANCH  11  12
ENDBRANCH   9  11
ENDBRANCH   1   9
BRANCH   5  18
HETATM   18  O1  UNL     1      20.887   0.823  51.288  1.00  0.00    -0.353 OA
HETATM   19  C10 UNL     1      21.617   1.003  50.089  1.00  0.00     0.210 C 
ENDBRANCH   5  18
BRANCH   6  20
HETATM   20  O2  UNL     1      19.230  -0.382  53.166  1.00  0.00    -0.353 OA
HETATM   21  C12 UNL     1      18.420  -1.517  53.391  1.00  0.00     0.210 C 
ENDBRANCH   6  20
TORSDOF 6
ENDMDL
MODEL 3
REMARK VINA RESULT:      -6.4      3.654      4.820
REMARK  6 active torsions:
REMARK  status: ('A' for Active; 'I' for Inactive)
REMARK    1  A    between atoms: C2_2  and  C3_4 
REMARK    2  A    between atoms: C4_5  and  C5_7 
REMARK    3  A    between atoms: C5_7  and  N1_8 
REMARK    4  A    between atoms: N1_8  and  C6_9 
REMARK    5  A    between atoms: C9_13  and  O1_14 
REMARK    6  A    between atoms: C11_16  and  O2_17 
ROOT
HETATM    1  C6  UNL     1      24.022   1.752  51.637  1.00  0.00     0.191 C 
HETATM    2  F1  UNL     1      24.361   2.428  50.485  1.00  0.00    -0.186 F 
HETATM    3  C7  UNL     1      25.066   1.115  52.200  1.00  0.00     0.004 A 
HETATM    4  C8  UNL     1      24.852   0.335  53.423  1.00  0.00     0.051 A 
HETATM    5  C9  UNL     1      25.788  -0.305  54.074  1.00  0.00     0.101 A 
HETATM    6  C11 UNL     1      27.164  -0.270  53.577  1.00  0.00     0.098 A 
HETATM    7  C13 UNL     1      27.355   0.425  52.473  1.00  0.00     0.018 A 
HETATM    8  C14 UNL     1      26.421   1.190  51.624  1.00  0.00     0.073 A 
ENDROOT
BRANCH   1   9
HETATM    9  N1  UNL     1      22.725   1.660  52.236  1.00  0.00    -0.362 N 
HETATM   10  H6  UNL     1      22.731   1.257  53.189  1.00  0.00     0.162 HD
BRANCH   9  11
HETATM   11  C5  UNL     1      21.436   2.058  51.728  1.00  0.00     0.169 C 
BRANCH  11  12
HETATM   12  C4  UNL     1      20.633   0.876  51.321  1.00  0.00     0.014 C 
HETATM   13  C3  UNL     1      20.047   0.752  52.518  1.00  0.00     0.103 C 
HETATM   14 CL1  UNL     1      21.145   0.643  49.627  1.00  0.00    -0.091 Cl
BRANCH  13  15
HETATM   15  C2  UNL     1      19.081  -0.315  52.855  1.00  0.00     0.014 A 
HETATM   16  C1  UNL     1      18.194  -0.418  51.851  1.00  0.00     0.090 A 
HETATM   17 BR1  UNL     1      17.820  -1.662  53.224  1.00  0.00    -0.161 Br
ENDBRANCH  13  15
ENDBRANCH  11  12
ENDBRANCH   9  11
ENDBRANCH   1   9
BRANCH   5  18
HETATM   18  O1  UNL     1      25.624  -1.055  55.241  1.00  0.00    -0.353 OA
HETATM   19  C10 UNL     1      24.316  -1.302  55.722  1.00  0.00     0.210 C 
ENDBRANCH   5  18
BRANCH   6  20
HETATM   20  O2  UNL     1      28.204  -0.920  54.215  1.00  0.00    -0.353 OA
HETATM   21  C12 UNL     1      29.559  -0.735  53.865  1.00  0.00     0.210 C 
ENDBRANCH   6  20
TORSDOF 6
ENDMDL
MODEL 4
REMARK VINA RESULT:      -6.3      2.585      3.266
REMARK  6 active torsions:
REMARK  status: ('A' for Active; 'I' for Inactive)
REMARK    1  A    between atoms: C2_2  and  C3_4 
REMARK    2  A    between atoms: C4_5  and  C5_7 
REMARK    3  A    between atoms: C5_7  and  N1_8 
REMARK    4  A    between atoms: N1_8  and  C6_9 
REMARK    5  A    between atoms: C9_13  and  O1_14 
REMARK    6  A    between atoms: C11_16  and  O2_17 
ROOT
HETATM    1  C6  UNL     1      23.168  -0.631  53.851  1.00  0.00     0.191 C 
HETATM    2  F1  UNL     1      22.835  -1.238  55.042  1.00  0.00    -0.186 F 
HETATM    3  C7  UNL     1      24.465  -0.272  53.788  1.00  0.00     0.004 A 
HETATM    4  C8  UNL     1      24.961   0.405  52.585  1.00  0.00     0.051 A 
HETATM    5  C9  UNL     1      26.200   0.778  52.396  1.00  0.00     0.101 A 
HETATM    6  C11 UNL     1      27.196   0.525  53.439  1.00  0.00     0.098 A 
HETATM    7  C13 UNL     1      26.748  -0.076  54.523  1.00  0.00     0.018 A 
HETATM    8  C14 UNL     1      25.400  -0.552  54.892  1.00  0.00     0.073 A 
ENDROOT
BRANCH   1   9
HETATM    9  N1  UNL     1      22.298  -0.349  52.751  1.00  0.00    -0.362 N 
HETATM   10  H6  UNL     1      22.729  -0.508  51.824  1.00  0.00     0.162 HD
BRANCH   9  11
HETATM   11  C5  UNL     1      20.927   0.097  52.740  1.00  0.00     0.169 C 
BRANCH  11  12
HETATM   12  C4  UNL     1      20.469   0.386  51.357  1.00  0.00     0.014 C 
HETATM   13  C3  UNL     1      21.657   0.867  50.971  1.00  0.00     0.103 C 
HETATM   14 CL1  UNL     1      18.762  -0.137  51.411  1.00  0.00    -0.091 Cl
BRANCH  13  15
HETATM   15  C2  UNL     1      21.928   1.403  49.620  1.00  0.00     0.014 A 
HETATM   16  C1  UNL     1      22.902   2.324  49.716  1.00  0.00     0.090 A 
HETATM   17 BR1  UNL     1      22.320   2.127  47.928  1.00  0.00    -0.161 Br
ENDBRANCH  13  15
ENDBRANCH  11  12
ENDBRANCH   9  11
ENDBRANCH   1   9
BRANCH   5  18
HETATM   18  O1  UNL     1      26.711   1.422  51.266  1.00  0.00    -0.353 OA
HETATM   19  C10 UNL     1      26.415   2.791  51.063  1.00  0.00     0.210 C 
ENDBRANCH   5  18
BRANCH   6  20
HETATM   20  O2  UNL     1      28.523   0.890  53.305  1.00  0.00    -0.353 OA
HETATM   21  C12 UNL     1      29.594   0.020  53.604  1.00  0.00     0.210 C 
ENDBRANCH   6  20
TORSDOF 6
ENDMDL
MODEL 5
REMARK VINA RESULT:      -6.1      3.211      4.414
REMARK  6 active torsions:
REMARK  status: ('A' for Active; 'I' for Inactive)
REMARK    1  A    between atoms: C2_2  and  C3_4 
REMARK    2  A    between atoms: C4_5  and  C5_7 
REMARK    3  A    between atoms: C5_7  and  N1_8 
REMARK    4  A    between atoms: N1_8  and  C6_9 
REMARK    5  A    between atoms: C9_13  and  O1_14 
REMARK    6  A    between atoms: C11_16  and  O2_17 
ROOT
HETATM    1  C6  UNL     1      26.697   2.005  51.953  1.00  0.00     0.191 C 
HETATM    2  F1  UNL     1      27.854   1.424  52.425  1.00  0.00    -0.186 F 
HETATM    3  C7  UNL     1      25.584   1.353  52.339  1.00  0.00     0.004 A 
HETATM    4  C8  UNL     1      24.276   1.845  51.894  1.00  0.00     0.051 A 
HETATM    5  C9  UNL     1      23.128   1.313  52.222  1.00  0.00     0.101 A 
HETATM    6  C11 UNL     1      23.100   0.135  53.089  1.00  0.00     0.098 A 
HETATM    7  C13 UNL     1      24.277  -0.313  53.482  1.00  0.00     0.018 A 
HETATM    8  C14 UNL     1      25.647   0.160  53.204  1.00  0.00     0.073 A 
ENDROOT
BRANCH   1   9
HETATM    9  N1  UNL     1      26.589   3.165  51.121  1.00  0.00    -0.362 N 
HETATM   10  H6  UNL     1      26.567   4.057  51.646  1.00  0.00     0.162 HD
BRANCH   9  11
HETATM   11  C5  UNL     1      26.528   3.278  49.685  1.00  0.00     0.169 C 
BRANCH  11  12
HETATM   12  C4  UNL     1      26.430   4.699  49.263  1.00  0.00     0.014 C 
HETATM   13  C3  UNL     1      27.672   4.728  48.766  1.00  0.00     0.103 C 
HETATM   14 CL1  UNL     1      24.778   5.129  49.785  1.00  0.00    -0.091 Cl
BRANCH  13  15
HETATM   15  C2  UNL     1      28.291   5.930  48.170  1.00  0.00     0.014 A 
HETATM   16  C1  UNL     1      27.373   6.910  48.140  1.00  0.00     0.090 A 
HETATM   17 BR1  UNL     1      29.020   7.494  47.419  1.00  0.00    -0.161 Br
ENDBRANCH  13  15
ENDBRANCH  11  12
ENDBRANCH   9  11
ENDBRANCH   1   9
BRANCH   5  18
HETATM   18  O1  UNL     1      21.864   1.754  51.822  1.00  0.00    -0.353 OA
HETATM   19  C10 UNL     1      21.565   3.136  51.889  1.00  0.00     0.210 C 
ENDBRANCH   5  18
BRANCH   6  20
HETATM   20  O2  UNL     1      21.923  -0.478  53.477  1.00  0.00    -0.353 OA
HETATM   21  C12 UNL     1      21.857  -1.429  54.518  1.00  0.00     0.210 C 
ENDBRANCH   6  20
TORSDOF 6
ENDMDL
MODEL 6
REMARK VINA RESULT:      -6.0      2.074      2.677
REMARK  6 active torsions:
REMARK  status: ('A' for Active; 'I' for Inactive)
REMARK    1  A    between atoms: C2_2  and  C3_4 
REMARK    2  A    between atoms: C4_5  and  C5_7 
REMARK    3  A    between atoms: C5_7  and  N1_8 
REMARK    4  A    between atoms: N1_8  and  C6_9 
REMARK    5  A    between atoms: C9_13  and  O1_14 
REMARK    6  A    between atoms: C11_16  and  O2_17 
ROOT
HETATM    1  C6  UNL     1      23.331   0.016  53.060  1.00  0.00     0.191 C 
HETATM    2  F1  UNL     1      22.856  -0.929  53.943  1.00  0.00    -0.186 F 
HETATM    3  C7  UNL     1      24.656   0.227  53.177  1.00  0.00     0.004 A 
HETATM    4  C8  UNL     1      25.301   1.221  52.314  1.00  0.00     0.051 A 
HETATM    5  C9  UNL     1      26.579   1.496  52.317  1.00  0.00     0.101 A 
HETATM    6  C11 UNL     1      27.467   0.786  53.239  1.00  0.00     0.098 A 
HETATM    7  C13 UNL     1      26.886  -0.103  54.021  1.00  0.00     0.018 A 
HETATM    8  C14 UNL     1      25.477  -0.524  54.145  1.00  0.00     0.073 A 
ENDROOT
BRANCH   1   9
HETATM    9  N1  UNL     1      22.575   0.760  52.099  1.00  0.00    -0.362 N 
HETATM   10  H6  UNL     1      22.596   0.357  51.146  1.00  0.00     0.162 HD
BRANCH   9  11
HETATM   11  C5  UNL     1      21.785   1.955  52.260  1.00  0.00     0.169 C 
BRANCH  11  12
HETATM   12  C4  UNL     1      22.047   2.922  51.164  1.00  0.00     0.014 C 
HETATM   13  C3  UNL     1      21.702   3.985  51.901  1.00  0.00     0.103 C 
HETATM   14 CL1  UNL     1      22.573   1.849  49.837  1.00  0.00    -0.091 Cl
BRANCH  13  15
HETATM   15  C2  UNL     1      21.696   5.372  51.392  1.00  0.00     0.014 A 
HETATM   16  C1  UNL     1      22.969   5.774  51.238  1.00  0.00     0.090 A 
HETATM   17 BR1  UNL     1      21.757   7.138  50.743  1.00  0.00    -0.161 Br
ENDBRANCH  13  15
ENDBRANCH  11  12
ENDBRANCH   9  11
ENDBRANCH   1   9
BRANCH   5  18
HETATM   18  O1  UNL     1      27.230   2.433  51.510  1.00  0.00    -0.353 OA
HETATM   19  C10 UNL     1      26.476   3.165  50.562  1.00  0.00     0.210 C 
ENDBRANCH   5  18
BRANCH   6  20
HETATM   20  O2  UNL     1      28.828   1.024  53.295  1.00  0.00    -0.353 OA
HETATM   21  C12 UNL     1      29.772   0.024  53.614  1.00  0.00     0.210 C 
ENDBRANCH   6  20
TORSDOF 6
ENDMDL
MODEL 7
REMARK VINA RESULT:      -6.0      4.495      6.483
REMARK  6 active torsions:
REMARK  status: ('A' for Active; 'I' for Inactive)
REMARK    1  A    between atoms: C2_2  and  C3_4 
REMARK    2  A    between atoms: C4_5  and  C5_7 
REMARK    3  A    between atoms: C5_7  and  N1_8 
REMARK    4  A    between atoms: N1_8  and  C6_9 
REMARK    5  A    between atoms: C9_13  and  O1_14 
REMARK    6  A    between atoms: C11_16  and  O2_17 
ROOT
HETATM    1  C6  UNL     1      23.193  -0.061  53.464  1.00  0.00     0.191 C 
HETATM    2  F1  UNL     1      23.240  -0.593  54.734  1.00  0.00    -0.186 F 
HETATM    3  C7  UNL     1      21.950  -0.044  52.946  1.00  0.00     0.004 A 
HETATM    4  C8  UNL     1      21.749   0.477  51.590  1.00  0.00     0.051 A 
HETATM    5  C9  UNL     1      20.590   0.567  50.990  1.00  0.00     0.101 A 
HETATM    6  C11 UNL     1      19.382   0.121  51.684  1.00  0.00     0.098 A 
HETATM    7  C13 UNL     1      19.564  -0.354  52.901  1.00  0.00     0.018 A 
HETATM    8  C14 UNL     1      20.786  -0.527  53.710  1.00  0.00     0.073 A 
ENDROOT
BRANCH   1   9
HETATM    9  N1  UNL     1      24.293   0.429  52.690  1.00  0.00    -0.362 N 
HETATM   10  H6  UNL     1      24.479  -0.119  51.832  1.00  0.00     0.162 HD
BRANCH   9  11
HETATM   11  C5  UNL     1      25.154   1.564  52.911  1.00  0.00     0.169 C 
BRANCH  11  12
HETATM   12  C4  UNL     1      26.515   1.317  52.371  1.00  0.00     0.014 C 
HETATM   13  C3  UNL     1      26.836   0.448  53.339  1.00  0.00     0.103 C 
HETATM   14 CL1  UNL     1      26.547   2.380  50.937  1.00  0.00    -0.091 Cl
BRANCH  13  15
HETATM   15  C2  UNL     1      28.153  -0.213  53.447  1.00  0.00     0.014 A 
HETATM   16  C1  UNL     1      29.068   0.713  53.778  1.00  0.00     0.090 A 
HETATM   17 BR1  UNL     1      29.857  -0.995  53.600  1.00  0.00    -0.161 Br
ENDBRANCH  13  15
ENDBRANCH  11  12
ENDBRANCH   9  11
ENDBRANCH   1   9
BRANCH   5  18
HETATM   18  O1  UNL     1      20.358   1.058  49.703  1.00  0.00    -0.353 OA
HETATM   19  C10 UNL     1      21.432   1.113  48.783  1.00  0.00     0.210 C 
ENDBRANCH   5  18
BRANCH   6  20
HETATM   20  O2  UNL     1      18.125   0.190  51.112  1.00  0.00    -0.353 OA
HETATM   21  C12 UNL     1      16.967   0.548  51.836  1.00  0.00     0.210 C 
ENDBRANCH   6  20
TORSDOF 6
ENDMDL
MODEL 8
REMARK VINA RESULT:      -6.0      4.138      6.809
REMARK  6 active torsions:
REMARK  status: ('A' for Active; 'I' for Inactive)
REMARK    1  A    between atoms: C2_2  and  C3_4 
REMARK    2  A    between atoms: C4_5  and  C5_7 
REMARK    3  A    between atoms: C5_7  and  N1_8 
REMARK    4  A    between atoms: N1_8  and  C6_9 
REMARK    5  A    between atoms: C9_13  and  O1_14 
REMARK    6  A    between atoms: C11_16  and  O2_17 
ROOT
HETATM    1  C6  UNL     1      25.883   3.395  49.676  1.00  0.00     0.191 C 
HETATM    2  F1  UNL     1      26.776   2.541  49.067  1.00  0.00    -0.186 F 
HETATM    3  C7  UNL     1      26.186   4.694  49.490  1.00  0.00     0.004 A 
HETATM    4  C8  UNL     1      25.333   5.721  50.099  1.00  0.00     0.051 A 
HETATM    5  C9  UNL     1      25.510   7.010  49.970  1.00  0.00     0.101 A 
HETATM    6  C11 UNL     1      26.632   7.508  49.173  1.00  0.00     0.098 A 
HETATM    7  C13 UNL     1      27.403   6.585  48.633  1.00  0.00     0.018 A 
HETATM    8  C14 UNL     1      27.347   5.110  48.683  1.00  0.00     0.073 A 
ENDROOT
BRANCH   1   9
HETATM    9  N1  UNL     1      24.739   3.036  50.458  1.00  0.00    -0.362 N 
HETATM   10  H6  UNL     1      23.976   3.735  50.431  1.00  0.00     0.162 HD
BRANCH   9  11
HETATM   11  C5  UNL     1      24.486   1.858  51.249  1.00  0.00     0.169 C 
BRANCH  11  12
HETATM   12  C4  UNL     1      25.352   1.826  52.456  1.00  0.00     0.014 C 
HETATM   13  C3  UNL     1      26.135   0.852  51.975  1.00  0.00     0.103 C 
HETATM   14 CL1  UNL     1      24.605   3.080  53.484  1.00  0.00    -0.091 Cl
BRANCH  13  15
HETATM   15  C2  UNL     1      27.267   0.263  52.721  1.00  0.00     0.014 A 
HETATM   16  C1  UNL     1      28.049   1.262  53.164  1.00  0.00     0.090 A 
HETATM   17 BR1  UNL     1      28.731  -0.423  53.683  1.00  0.00    -0.161 Br
ENDBRANCH  13  15
ENDBRANCH  11  12
ENDBRANCH   9  11
ENDBRANCH   1   9
BRANCH   5  18
HETATM   18  O1  UNL     1      24.720   8.017  50.530  1.00  0.00    -0.353 OA
HETATM   19  C10 UNL     1      23.415   8.228  50.026  1.00  0.00     0.210 C 
ENDBRANCH   5  18
BRANCH   6  20
HETATM   20  O2  UNL     1      26.877   8.856  48.992  1.00  0.00    -0.353 OA
HETATM   21  C12 UNL     1      28.094   9.473  49.356  1.00  0.00     0.210 C 
ENDBRANCH   6  20
TORSDOF 6
ENDMDL
MODEL 9
REMARK VINA RESULT:      -5.9      3.619      4.808
REMARK  6 active torsions:
REMARK  status: ('A' for Active; 'I' for Inactive)
REMARK    1  A    between atoms: C2_2  and  C3_4 
REMARK    2  A    between atoms: C4_5  and  C5_7 
REMARK    3  A    between atoms: C5_7  and  N1_8 
REMARK    4  A    between atoms: N1_8  and  C6_9 
REMARK    5  A    between atoms: C9_13  and  O1_14 
REMARK    6  A    between atoms: C11_16  and  O2_17 
ROOT
HETATM    1  C6  UNL     1      25.668   1.627  51.698  1.00  0.00     0.191 C 
HETATM    2  F1  UNL     1      26.733   0.779  51.915  1.00  0.00    -0.186 F 
HETATM    3  C7  UNL     1      24.535   1.212  52.295  1.00  0.00     0.004 A 
HETATM    4  C8  UNL     1      23.311   2.004  52.135  1.00  0.00     0.051 A 
HETATM    5  C9  UNL     1      22.160   1.718  52.685  1.00  0.00     0.101 A 
HETATM    6  C11 UNL     1      22.038   0.525  53.523  1.00  0.00     0.098 A 
HETATM    7  C13 UNL     1      23.136  -0.192  53.661  1.00  0.00     0.018 A 
HETATM    8  C14 UNL     1      24.495  -0.014  53.113  1.00  0.00     0.073 A 
ENDROOT
BRANCH   1   9
HETATM    9  N1  UNL     1      25.664   2.829  50.922  1.00  0.00    -0.362 N 
HETATM   10  H6  UNL     1      25.055   3.573  51.304  1.00  0.00     0.162 HD
BRANCH   9  11
HETATM   11  C5  UNL     1      26.384   3.161  49.718  1.00  0.00     0.169 C 
BRANCH  11  12
HETATM   12  C4  UNL     1      26.398   4.629  49.490  1.00  0.00     0.014 C 
HETATM   13  C3  UNL     1      25.255   4.831  50.157  1.00  0.00     0.103 C 
HETATM   14 CL1  UNL     1      27.891   4.845  48.535  1.00  0.00    -0.091 Cl
BRANCH  13  15
HETATM   15  C2  UNL     1      24.615   6.155  50.310  1.00  0.00     0.014 A 
HETATM   16  C1  UNL     1      23.868   6.139  51.426  1.00  0.00     0.090 A 
HETATM   17 BR1  UNL     1      23.772   7.818  50.563  1.00  0.00    -0.161 Br
ENDBRANCH  13  15
ENDBRANCH  11  12
ENDBRANCH   9  11
ENDBRANCH   1   9
BRANCH   5  18
HETATM   18  O1  UNL     1      20.975   2.448  52.558  1.00  0.00    -0.353 OA
HETATM   19  C10 UNL     1      21.042   3.803  52.158  1.00  0.00     0.210 C 
ENDBRANCH   5  18
BRANCH   6  20
HETATM   20  O2  UNL     1      20.853   0.163  54.136  1.00  0.00    -0.353 OA
HETATM   21  C12 UNL     1      19.922  -0.724  53.552  1.00  0.00     0.210 C 
ENDBRANCH   6  20
TORSDOF 6
ENDMDL
