MODEL 1
REMARK VINA RESULT:      -8.7      0.000      0.000
REMARK  3 active torsions:
REMARK  status: ('A' for Active; 'I' for Inactive)
REMARK    1  A    between atoms: O1_2  and  C2_3 
REMARK    2  A    between atoms: C7_8  and  O2_9 
REMARK    3  A    between atoms: C9_11  and  C10_12 
ROOT
HETATM    1  C2  UNL     1      20.511   2.949  52.336  1.00  0.00     0.103 A 
HETATM    2  C3  UNL     1      20.395   1.589  52.605  1.00  0.00     0.071 A 
HETATM    3  C4  UNL     1      21.497   0.802  52.890  1.00  0.00     0.065 A 
HETATM    4  C5  UNL     1      22.715   1.425  52.894  1.00  0.00     0.005 A 
HETATM    5  C6  UNL     1      22.874   2.770  52.631  1.00  0.00     0.054 A 
HETATM    6  C7  UNL     1      21.759   3.565  52.344  1.00  0.00     0.102 A 
HETATM    7  C9  UNL     1      23.656   0.532  53.182  1.00  0.00     0.003 A 
HETATM    8  C19 UNL     1      22.987  -0.800  53.386  1.00  0.00     0.191 A 
HETATM    9  N2  UNL     1      21.592  -0.456  53.162  1.00  0.00    -0.284 NA
ENDROOT
BRANCH   7  10
HETATM   10  C10 UNL     1      25.105   0.635  53.319  1.00  0.00     0.066 A 
HETATM   11  C11 UNL     1      25.840  -0.520  53.157  1.00  0.00     0.044 A 
HETATM   12  C12 UNL     1      27.206  -0.524  53.267  1.00  0.00    -0.022 A 
HETATM   13  C13 UNL     1      27.898  -1.706  53.097  1.00  0.00     0.012 A 
HETATM   14  C17 UNL     1      27.905   0.634  53.545  1.00  0.00    -0.008 A 
HETATM   15  C14 UNL     1      29.284  -1.777  53.195  1.00  0.00     0.001 A 
HETATM   16  C15 UNL     1      29.964  -0.595  53.476  1.00  0.00     0.001 A 
HETATM   17  C16 UNL     1      29.265   0.590  53.646  1.00  0.00     0.014 A 
HETATM   18  C18 UNL     1      27.127   1.782  53.701  1.00  0.00     0.129 A 
HETATM   19  N1  UNL     1      25.785   1.772  53.590  1.00  0.00    -0.260 NA
ENDBRANCH   7  10
BRANCH   6  20
HETATM   20  O2  UNL     1      21.857   4.923  52.072  1.00  0.00    -0.353 OA
HETATM   21  C8  UNL     1      22.925   5.404  51.296  1.00  0.00     0.210 C 
ENDBRANCH   6  20
BRANCH   1  22
HETATM   22  O1  UNL     1      19.419   3.733  52.053  1.00  0.00    -0.353 OA
HETATM   23  C1  UNL     1      18.710   3.632  50.828  1.00  0.00     0.210 C 
ENDBRANCH   1  22
TORSDOF 3
ENDMDL
MODEL 2
REMARK VINA RESULT:      -8.5      1.792      1.832
REMARK  3 active torsions:
REMARK  status: ('A' for Active; 'I' for Inactive)
REMARK    1  A    between atoms: O1_2  and  C2_3 
REMARK    2  A    between atoms: C7_8  and  O2_9 
REMARK    3  A    between atoms: C9_11  and  C10_12 
ROOT
HETATM    1  C2  UNL     1      20.611   1.172  50.550  1.00  0.00     0.103 A 
HETATM    2  C3  UNL     1      20.452   0.327  51.642  1.00  0.00     0.071 A 
HETATM    3  C4  UNL     1      21.503   0.018  52.489  1.00  0.00     0.065 A 
HETATM    4  C5  UNL     1      22.715   0.586  52.200  1.00  0.00     0.005 A 
HETATM    5  C6  UNL     1      22.914   1.428  51.126  1.00  0.00     0.054 A 
HETATM    6  C7  UNL     1      21.851   1.740  50.271  1.00  0.00     0.102 A 
HETATM    7  C9  UNL     1      23.604   0.189  53.103  1.00  0.00     0.003 A 
HETATM    8  C19 UNL     1      22.907  -0.726  54.073  1.00  0.00     0.191 A 
HETATM    9  N2  UNL     1      21.554  -0.732  53.536  1.00  0.00    -0.284 NA
ENDROOT
BRANCH   7  10
HETATM   10  C10 UNL     1      25.024   0.474  53.282  1.00  0.00     0.066 A 
HETATM   11  C11 UNL     1      25.905  -0.577  53.139  1.00  0.00     0.044 A 
HETATM   12  C12 UNL     1      27.256  -0.407  53.290  1.00  0.00    -0.022 A 
HETATM   13  C13 UNL     1      28.099  -1.489  53.137  1.00  0.00     0.012 A 
HETATM   14  C17 UNL     1      27.793   0.830  53.591  1.00  0.00    -0.008 A 
HETATM   15  C14 UNL     1      29.478  -1.384  53.276  1.00  0.00     0.001 A 
HETATM   16  C15 UNL     1      29.994  -0.126  53.580  1.00  0.00     0.001 A 
HETATM   17  C16 UNL     1      29.144   0.959  53.732  1.00  0.00     0.014 A 
HETATM   18  C18 UNL     1      26.871   1.868  53.726  1.00  0.00     0.129 A 
HETATM   19  N1  UNL     1      25.545   1.688  53.576  1.00  0.00    -0.260 NA
ENDBRANCH   7  10
BRANCH   6  20
HETATM   20  O2  UNL     1      21.991   2.582  49.175  1.00  0.00    -0.353 OA
HETATM   21  C8  UNL     1      22.501   2.075  47.969  1.00  0.00     0.210 C 
ENDBRANCH   6  20
BRANCH   1  22
HETATM   22  O1  UNL     1      19.569   1.480  49.707  1.00  0.00    -0.353 OA
HETATM   23  C1  UNL     1      18.213   1.332  50.094  1.00  0.00     0.210 C 
ENDBRANCH   1  22
TORSDOF 3
ENDMDL
MODEL 3
REMARK VINA RESULT:      -8.5      2.929      7.229
REMARK  3 active torsions:
REMARK  status: ('A' for Active; 'I' for Inactive)
REMARK    1  A    between atoms: O1_2  and  C2_3 
REMARK    2  A    between atoms: C7_8  and  O2_9 
REMARK    3  A    between atoms: C9_11  and  C10_12 
ROOT
HETATM    1  C2  UNL     1      27.450   0.717  53.512  1.00  0.00     0.103 A 
HETATM    2  C3  UNL     1      26.905  -0.083  54.511  1.00  0.00     0.071 A 
HETATM    3  C4  UNL     1      25.560  -0.408  54.537  1.00  0.00     0.065 A 
HETATM    4  C5  UNL     1      24.784   0.097  53.529  1.00  0.00     0.005 A 
HETATM    5  C6  UNL     1      25.286   0.894  52.521  1.00  0.00     0.054 A 
HETATM    6  C7  UNL     1      26.646   1.222  52.496  1.00  0.00     0.102 A 
HETATM    7  C9  UNL     1      23.531  -0.307  53.704  1.00  0.00     0.003 A 
HETATM    8  C19 UNL     1      23.485  -1.157  54.945  1.00  0.00     0.191 A 
HETATM    9  N2  UNL     1      24.878  -1.124  55.365  1.00  0.00    -0.284 NA
ENDROOT
BRANCH   7  10
HETATM   10  C10 UNL     1      22.305  -0.075  52.949  1.00  0.00     0.066 A 
HETATM   11  C11 UNL     1      21.139  -0.615  53.451  1.00  0.00     0.044 A 
HETATM   12  C12 UNL     1      19.938  -0.451  52.813  1.00  0.00    -0.022 A 
HETATM   13  C13 UNL     1      18.798  -1.010  53.354  1.00  0.00     0.012 A 
HETATM   14  C17 UNL     1      19.846   0.265  51.635  1.00  0.00    -0.008 A 
HETATM   15  C14 UNL     1      17.550  -0.880  52.756  1.00  0.00     0.001 A 
HETATM   16  C15 UNL     1      17.484  -0.154  51.570  1.00  0.00     0.001 A 
HETATM   17  C16 UNL     1      18.630   0.407  51.030  1.00  0.00     0.014 A 
HETATM   18  C18 UNL     1      21.045   0.796  51.159  1.00  0.00     0.129 A 
HETATM   19  N1  UNL     1      22.219   0.628  51.796  1.00  0.00    -0.260 NA
ENDBRANCH   7  10
BRANCH   6  20
HETATM   20  O2  UNL     1      27.207   2.020  51.507  1.00  0.00    -0.353 OA
HETATM   21  C8  UNL     1      26.382   2.847  50.727  1.00  0.00     0.210 C 
ENDBRANCH   6  20
BRANCH   1  22
HETATM   22  O1  UNL     1      28.786   1.041  53.484  1.00  0.00    -0.353 OA
HETATM   23  C1  UNL     1      29.805   0.074  53.679  1.00  0.00     0.210 C 
ENDBRANCH   1  22
TORSDOF 3
ENDMDL
MODEL 4
REMARK VINA RESULT:      -8.3      3.072      7.605
REMARK  3 active torsions:
REMARK  status: ('A' for Active; 'I' for Inactive)
REMARK    1  A    between atoms: O1_2  and  C2_3 
REMARK    2  A    between atoms: C7_8  and  O2_9 
REMARK    3  A    between atoms: C9_11  and  C10_12 
ROOT
HETATM    1  C2  UNL     1      27.014   0.928  53.016  1.00  0.00     0.103 A 
HETATM    2  C3  UNL     1      26.382   2.127  52.707  1.00  0.00     0.071 A 
HETATM    3  C4  UNL     1      25.002   2.239  52.668  1.00  0.00     0.065 A 
HETATM    4  C5  UNL     1      24.284   1.109  52.949  1.00  0.00     0.005 A 
HETATM    5  C6  UNL     1      24.873  -0.100  53.260  1.00  0.00     0.054 A 
HETATM    6  C7  UNL     1      26.267  -0.211  53.299  1.00  0.00     0.102 A 
HETATM    7  C9  UNL     1      22.988   1.389  52.868  1.00  0.00     0.003 A 
HETATM    8  C19 UNL     1      22.848   2.841  52.498  1.00  0.00     0.191 A 
HETATM    9  N2  UNL     1      24.242   3.247  52.406  1.00  0.00    -0.284 NA
ENDROOT
BRANCH   7  10
HETATM   10  C10 UNL     1      21.789   0.581  53.063  1.00  0.00     0.066 A 
HETATM   11  C11 UNL     1      20.735   0.792  52.200  1.00  0.00     0.044 A 
HETATM   12  C12 UNL     1      19.568   0.082  52.305  1.00  0.00    -0.022 A 
HETATM   13  C13 UNL     1      18.540   0.329  51.417  1.00  0.00     0.012 A 
HETATM   14  C17 UNL     1      19.400  -0.879  53.283  1.00  0.00    -0.008 A 
HETATM   15  C14 UNL     1      17.331  -0.357  51.469  1.00  0.00     0.001 A 
HETATM   16  C15 UNL     1      17.187  -1.320  52.465  1.00  0.00     0.001 A 
HETATM   17  C16 UNL     1      18.222  -1.566  53.354  1.00  0.00     0.014 A 
HETATM   18  C18 UNL     1      20.488  -1.065  54.136  1.00  0.00     0.129 A 
HETATM   19  N1  UNL     1      21.630  -0.360  54.023  1.00  0.00    -0.260 NA
ENDBRANCH   7  10
BRANCH   6  20
HETATM   20  O2  UNL     1      26.916  -1.401  53.606  1.00  0.00    -0.353 OA
HETATM   21  C8  UNL     1      27.166  -2.340  52.592  1.00  0.00     0.210 C 
ENDBRANCH   6  20
BRANCH   1  22
HETATM   22  O1  UNL     1      28.384   0.814  53.055  1.00  0.00    -0.353 OA
HETATM   23  C1  UNL     1      29.148   1.241  54.171  1.00  0.00     0.210 C 
ENDBRANCH   1  22
TORSDOF 3
ENDMDL
MODEL 5
REMARK VINA RESULT:      -8.3      2.400      2.910
REMARK  3 active torsions:
REMARK  status: ('A' for Active; 'I' for Inactive)
REMARK    1  A    between atoms: O1_2  and  C2_3 
REMARK    2  A    between atoms: C7_8  and  O2_9 
REMARK    3  A    between atoms: C9_11  and  C10_12 
ROOT
HETATM    1  C2  UNL     1      18.952  -0.276  52.277  1.00  0.00     0.103 A 
HETATM    2  C3  UNL     1      19.333  -0.970  53.420  1.00  0.00     0.071 A 
HETATM    3  C4  UNL     1      20.640  -0.968  53.878  1.00  0.00     0.065 A 
HETATM    4  C5  UNL     1      21.546  -0.247  53.150  1.00  0.00     0.005 A 
HETATM    5  C6  UNL     1      21.209   0.455  52.011  1.00  0.00     0.054 A 
HETATM    6  C7  UNL     1      19.888   0.452  51.550  1.00  0.00     0.102 A 
HETATM    7  C9  UNL     1      22.740  -0.350  53.722  1.00  0.00     0.003 A 
HETATM    8  C19 UNL     1      22.599  -1.223  54.940  1.00  0.00     0.191 A 
HETATM    9  N2  UNL     1      21.180  -1.540  54.900  1.00  0.00    -0.284 NA
ENDROOT
BRANCH   7  10
HETATM   10  C10 UNL     1      24.049   0.199  53.383  1.00  0.00     0.066 A 
HETATM   11  C11 UNL     1      25.105  -0.124  54.208  1.00  0.00     0.044 A 
HETATM   12  C12 UNL     1      26.371   0.345  53.972  1.00  0.00    -0.022 A 
HETATM   13  C13 UNL     1      27.396  -0.006  54.826  1.00  0.00     0.012 A 
HETATM   14  C17 UNL     1      26.641   1.163  52.892  1.00  0.00    -0.008 A 
HETATM   15  C14 UNL     1      28.702   0.436  54.641  1.00  0.00     0.001 A 
HETATM   16  C15 UNL     1      28.948   1.259  53.546  1.00  0.00     0.001 A 
HETATM   17  C16 UNL     1      27.915   1.609  52.689  1.00  0.00     0.014 A 
HETATM   18  C18 UNL     1      25.547   1.467  52.080  1.00  0.00     0.129 A 
HETATM   19  N1  UNL     1      24.308   1.000  52.324  1.00  0.00    -0.260 NA
ENDBRANCH   7  10
BRANCH   6  20
HETATM   20  O2  UNL     1      19.491   1.139  50.410  1.00  0.00    -0.353 OA
HETATM   21  C8  UNL     1      20.422   1.399  49.392  1.00  0.00     0.210 C 
ENDBRANCH   6  20
BRANCH   1  22
HETATM   22  O1  UNL     1      17.656  -0.276  51.821  1.00  0.00    -0.353 OA
HETATM   23  C1  UNL     1      16.571  -0.716  52.621  1.00  0.00     0.210 C 
ENDBRANCH   1  22
TORSDOF 3
ENDMDL
MODEL 6
REMARK VINA RESULT:      -8.2      3.051      7.466
REMARK  3 active torsions:
REMARK  status: ('A' for Active; 'I' for Inactive)
REMARK    1  A    between atoms: O1_2  and  C2_3 
REMARK    2  A    between atoms: C7_8  and  O2_9 
REMARK    3  A    between atoms: C9_11  and  C10_12 
ROOT
HETATM    1  C2  UNL     1      27.528   0.185  53.853  1.00  0.00     0.103 A 
HETATM    2  C3  UNL     1      27.830   1.076  52.829  1.00  0.00     0.071 A 
HETATM    3  C4  UNL     1      26.849   1.801  52.175  1.00  0.00     0.065 A 
HETATM    4  C5  UNL     1      25.559   1.599  52.584  1.00  0.00     0.005 A 
HETATM    5  C6  UNL     1      25.217   0.724  53.594  1.00  0.00     0.054 A 
HETATM    6  C7  UNL     1      26.210  -0.007  54.255  1.00  0.00     0.102 A 
HETATM    7  C9  UNL     1      24.751   2.365  51.859  1.00  0.00     0.003 A 
HETATM    8  C19 UNL     1      25.596   3.140  50.884  1.00  0.00     0.191 A 
HETATM    9  N2  UNL     1      26.928   2.661  51.218  1.00  0.00    -0.284 NA
ENDROOT
BRANCH   7  10
HETATM   10  C10 UNL     1      23.304   2.553  51.860  1.00  0.00     0.066 A 
HETATM   11  C11 UNL     1      22.524   1.474  51.502  1.00  0.00     0.044 A 
HETATM   12  C12 UNL     1      21.157   1.555  51.473  1.00  0.00    -0.022 A 
HETATM   13  C13 UNL     1      20.418   0.447  51.108  1.00  0.00     0.012 A 
HETATM   14  C17 UNL     1      20.502   2.725  51.803  1.00  0.00    -0.008 A 
HETATM   15  C14 UNL     1      19.029   0.463  51.058  1.00  0.00     0.001 A 
HETATM   16  C15 UNL     1      18.393   1.655  51.396  1.00  0.00     0.001 A 
HETATM   17  C16 UNL     1      19.138   2.765  51.763  1.00  0.00     0.014 A 
HETATM   18  C18 UNL     1      21.324   3.794  52.161  1.00  0.00     0.129 A 
HETATM   19  N1  UNL     1      22.667   3.702  52.185  1.00  0.00    -0.260 NA
ENDBRANCH   7  10
BRANCH   6  20
HETATM   20  O2  UNL     1      25.926  -0.902  55.279  1.00  0.00    -0.353 OA
HETATM   21  C8  UNL     1      24.591  -1.194  55.599  1.00  0.00     0.210 C 
ENDBRANCH   6  20
BRANCH   1  22
HETATM   22  O1  UNL     1      28.501  -0.536  54.504  1.00  0.00    -0.353 OA
HETATM   23  C1  UNL     1      29.683  -0.973  53.854  1.00  0.00     0.210 C 
ENDBRANCH   1  22
TORSDOF 3
ENDMDL
MODEL 7
REMARK VINA RESULT:      -8.2      3.797      6.160
REMARK  3 active torsions:
REMARK  status: ('A' for Active; 'I' for Inactive)
REMARK    1  A    between atoms: O1_2  and  C2_3 
REMARK    2  A    between atoms: C7_8  and  O2_9 
REMARK    3  A    between atoms: C9_11  and  C10_12 
ROOT
HETATM    1  C2  UNL     1      24.944  -0.211  54.032  1.00  0.00     0.103 A 
HETATM    2  C3  UNL     1      23.782  -0.314  53.275  1.00  0.00     0.071 A 
HETATM    3  C4  UNL     1      23.468   0.602  52.286  1.00  0.00     0.065 A 
HETATM    4  C5  UNL     1      24.358   1.621  52.085  1.00  0.00     0.005 A 
HETATM    5  C6  UNL     1      25.521   1.760  52.814  1.00  0.00     0.054 A 
HETATM    6  C7  UNL     1      25.838   0.833  53.813  1.00  0.00     0.102 A 
HETATM    7  C9  UNL     1      23.907   2.402  51.110  1.00  0.00     0.003 A 
HETATM    8  C19 UNL     1      22.598   1.838  50.629  1.00  0.00     0.191 A 
HETATM    9  N2  UNL     1      22.455   0.675  51.491  1.00  0.00    -0.284 NA
ENDROOT
BRANCH   7  10
HETATM   10  C10 UNL     1      24.436   3.612  50.490  1.00  0.00     0.066 A 
HETATM   11  C11 UNL     1      25.709   3.551  49.962  1.00  0.00     0.044 A 
HETATM   12  C12 UNL     1      26.291   4.636  49.361  1.00  0.00    -0.022 A 
HETATM   13  C13 UNL     1      27.567   4.525  48.848  1.00  0.00     0.012 A 
HETATM   14  C17 UNL     1      25.623   5.840  49.258  1.00  0.00    -0.008 A 
HETATM   15  C14 UNL     1      28.213   5.588  48.226  1.00  0.00     0.001 A 
HETATM   16  C15 UNL     1      27.518   6.791  48.135  1.00  0.00     0.001 A 
HETATM   17  C16 UNL     1      26.236   6.898  48.651  1.00  0.00     0.014 A 
HETATM   18  C18 UNL     1      24.338   5.864  49.802  1.00  0.00     0.129 A 
HETATM   19  N1  UNL     1      23.778   4.790  50.391  1.00  0.00    -0.260 NA
ENDBRANCH   7  10
BRANCH   6  20
HETATM   20  O2  UNL     1      26.994   0.921  54.578  1.00  0.00    -0.353 OA
HETATM   21  C8  UNL     1      28.221   1.205  53.957  1.00  0.00     0.210 C 
ENDBRANCH   6  20
BRANCH   1  22
HETATM   22  O1  UNL     1      25.259  -1.119  55.015  1.00  0.00    -0.353 OA
HETATM   23  C1  UNL     1      24.572  -1.162  56.255  1.00  0.00     0.210 C 
ENDBRANCH   1  22
TORSDOF 3
ENDMDL
MODEL 8
REMARK VINA RESULT:      -8.0      5.037      7.095
REMARK  3 active torsions:
REMARK  status: ('A' for Active; 'I' for Inactive)
REMARK    1  A    between atoms: O1_2  and  C2_3 
REMARK    2  A    between atoms: C7_8  and  O2_9 
REMARK    3  A    between atoms: C9_11  and  C10_12 
ROOT
HETATM    1  C2  UNL     1      25.734   0.998  52.432  1.00  0.00     0.103 A 
HETATM    2  C3  UNL     1      24.516   1.280  51.825  1.00  0.00     0.071 A 
HETATM    3  C4  UNL     1      24.373   2.312  50.913  1.00  0.00     0.065 A 
HETATM    4  C5  UNL     1      25.492   3.048  50.634  1.00  0.00     0.005 A 
HETATM    5  C6  UNL     1      26.719   2.801  51.215  1.00  0.00     0.054 A 
HETATM    6  C7  UNL     1      26.862   1.758  52.137  1.00  0.00     0.102 A 
HETATM    7  C9  UNL     1      25.182   3.988  49.749  1.00  0.00     0.003 A 
HETATM    8  C19 UNL     1      23.720   3.853  49.419  1.00  0.00     0.191 A 
HETATM    9  N2  UNL     1      23.343   2.723  50.254  1.00  0.00    -0.284 NA
ENDROOT
BRANCH   7  10
HETATM   10  C10 UNL     1      25.967   5.037  49.107  1.00  0.00     0.066 A 
HETATM   11  C11 UNL     1      27.304   4.785  48.888  1.00  0.00     0.044 A 
HETATM   12  C12 UNL     1      28.122   5.709  48.293  1.00  0.00    -0.022 A 
HETATM   13  C13 UNL     1      29.455   5.410  48.095  1.00  0.00     0.012 A 
HETATM   14  C17 UNL     1      27.637   6.936  47.885  1.00  0.00    -0.008 A 
HETATM   15  C14 UNL     1      30.337   6.303  47.497  1.00  0.00     0.001 A 
HETATM   16  C15 UNL     1      29.823   7.534  47.095  1.00  0.00     0.001 A 
HETATM   17  C16 UNL     1      28.483   7.830  47.294  1.00  0.00     0.014 A 
HETATM   18  C18 UNL     1      26.279   7.155  48.122  1.00  0.00     0.129 A 
HETATM   19  N1  UNL     1      25.487   6.238  48.708  1.00  0.00    -0.260 NA
ENDBRANCH   7  10
BRANCH   6  20
HETATM   20  O2  UNL     1      28.071   1.463  52.753  1.00  0.00    -0.353 OA
HETATM   21  C8  UNL     1      28.661   2.401  53.616  1.00  0.00     0.210 C 
ENDBRANCH   6  20
BRANCH   1  22
HETATM   22  O1  UNL     1      25.879  -0.026  53.338  1.00  0.00    -0.353 OA
HETATM   23  C1  UNL     1      26.343  -1.312  52.960  1.00  0.00     0.210 C 
ENDBRANCH   1  22
TORSDOF 3
ENDMDL
MODEL 9
REMARK VINA RESULT:      -7.9      2.763      4.587
REMARK  3 active torsions:
REMARK  status: ('A' for Active; 'I' for Inactive)
REMARK    1  A    between atoms: O1_2  and  C2_3 
REMARK    2  A    between atoms: C7_8  and  O2_9 
REMARK    3  A    between atoms: C9_11  and  C10_12 
ROOT
HETATM    1  C2  UNL     1      19.780  -0.697  53.322  1.00  0.00     0.103 A 
HETATM    2  C3  UNL     1      20.764  -1.193  54.171  1.00  0.00     0.071 A 
HETATM    3  C4  UNL     1      22.094  -0.829  54.042  1.00  0.00     0.065 A 
HETATM    4  C5  UNL     1      22.399   0.046  53.035  1.00  0.00     0.005 A 
HETATM    5  C6  UNL     1      21.453   0.559  52.172  1.00  0.00     0.054 A 
HETATM    6  C7  UNL     1      20.109   0.191  52.303  1.00  0.00     0.102 A 
HETATM    7  C9  UNL     1      23.705   0.287  53.052  1.00  0.00     0.003 A 
HETATM    8  C19 UNL     1      24.310  -0.508  54.179  1.00  0.00     0.191 A 
HETATM    9  N2  UNL     1      23.135  -1.174  54.720  1.00  0.00    -0.284 NA
ENDROOT
BRANCH   7  10
HETATM   10  C10 UNL     1      24.566   1.124  52.224  1.00  0.00     0.066 A 
HETATM   11  C11 UNL     1      23.970   2.158  51.534  1.00  0.00     0.044 A 
HETATM   12  C12 UNL     1      24.696   2.997  50.730  1.00  0.00    -0.022 A 
HETATM   13  C13 UNL     1      24.055   4.019  50.059  1.00  0.00     0.012 A 
HETATM   14  C17 UNL     1      26.060   2.841  50.578  1.00  0.00    -0.008 A 
HETATM   15  C14 UNL     1      24.733   4.904  49.228  1.00  0.00     0.001 A 
HETATM   16  C15 UNL     1      26.108   4.725  49.092  1.00  0.00     0.001 A 
HETATM   17  C16 UNL     1      26.748   3.698  49.769  1.00  0.00     0.014 A 
HETATM   18  C18 UNL     1      26.627   1.784  51.292  1.00  0.00     0.129 A 
HETATM   19  N1  UNL     1      25.902   0.966  52.079  1.00  0.00    -0.260 NA
ENDBRANCH   7  10
BRANCH   6  20
HETATM   20  O2  UNL     1      19.114   0.675  51.464  1.00  0.00    -0.353 OA
HETATM   21  C8  UNL     1      18.722   2.021  51.552  1.00  0.00     0.210 C 
ENDBRANCH   6  20
BRANCH   1  22
HETATM   22  O1  UNL     1      18.459  -1.057  53.447  1.00  0.00    -0.353 OA
HETATM   23  C1  UNL     1      18.057  -2.398  53.677  1.00  0.00     0.210 C 
ENDBRANCH   1  22
TORSDOF 3
ENDMDL
