MODEL 1
REMARK VINA RESULT:      -7.9      0.000      0.000
REMARK  6 active torsions:
REMARK  status: ('A' for Active; 'I' for Inactive)
REMARK    1  A    between atoms: C2_2  and  O1_3 
REMARK    2  A    between atoms: O1_3  and  C3_4 
REMARK    3  A    between atoms: C3_4  and  C4_5 
REMARK    4  A    between atoms: C4_5  and  O2_6 
REMARK    5  A    between atoms: O2_6  and  C5_7 
REMARK    6  A    between atoms: N1_17  and  C13_18 
ROOT
HETATM    1  C5  UNL     1      21.668   1.608  52.525  1.00  0.00     0.107 A 
HETATM    2  C6  UNL     1      22.168   2.458  51.558  1.00  0.00     0.073 A 
HETATM    3  C7  UNL     1      23.510   2.468  51.250  1.00  0.00     0.083 A 
HETATM    4  C8  UNL     1      24.300   1.589  51.961  1.00  0.00     0.105 A 
HETATM    5  C9  UNL     1      23.859   0.719  52.934  1.00  0.00     0.134 A 
HETATM    6  C10 UNL     1      22.503   0.732  53.222  1.00  0.00     0.138 A 
HETATM    7  O3  UNL     1      21.986  -0.129  54.204  1.00  0.00    -0.344 OA
HETATM    8  C11 UNL     1      22.794  -1.201  54.709  1.00  0.00     0.202 C 
HETATM    9  C12 UNL     1      24.240  -0.717  54.841  1.00  0.00     0.202 C 
HETATM   10  O4  UNL     1      24.686  -0.150  53.623  1.00  0.00    -0.344 OA
HETATM   11  N1  UNL     1      25.687   1.515  51.720  1.00  0.00    -0.300 N 
HETATM   12  C19 UNL     1      26.230   2.386  50.707  1.00  0.00     0.237 A 
HETATM   13  N2  UNL     1      25.499   3.216  50.030  1.00  0.00    -0.169 NA
HETATM   14  N3  UNL     1      24.103   3.302  50.265  1.00  0.00    -0.275 N 
HETATM   15  H19 UNL     1      23.478   3.968  49.733  1.00  0.00     0.189 HD
ENDROOT
BRANCH  11  16
HETATM   16  C13 UNL     1      26.707   0.740  52.329  1.00  0.00     0.042 A 
HETATM   17  C14 UNL     1      27.022  -0.625  52.299  1.00  0.00     0.033 A 
HETATM   18  C15 UNL     1      28.106  -1.089  52.996  1.00  0.00     0.046 A 
HETATM   19  C16 UNL     1      28.928  -0.282  53.746  1.00  0.00     0.138 A 
HETATM   20  F1  UNL     1      29.970  -0.855  54.392  1.00  0.00    -0.204 F 
HETATM   21  C17 UNL     1      28.631   1.065  53.786  1.00  0.00     0.074 A 
HETATM   22 CL1  UNL     1      29.704   2.055  54.752  1.00  0.00    -0.081 Cl
HETATM   23  C18 UNL     1      27.533   1.579  53.087  1.00  0.00     0.057 A 
ENDBRANCH  11  16
BRANCH   1  24
HETATM   24  O2  UNL     1      20.328   1.564  52.866  1.00  0.00    -0.346 OA
BRANCH  24  25
HETATM   25  C4  UNL     1      19.283   1.231  51.992  1.00  0.00     0.201 C 
BRANCH  25  26
HETATM   26  C3  UNL     1      18.749  -0.142  52.337  1.00  0.00     0.194 C 
BRANCH  26  27
HETATM   27  O1  UNL     1      17.360  -0.206  52.153  1.00  0.00    -0.389 OA
BRANCH  27  28
HETATM   28  C2  UNL     1      16.851  -1.296  52.858  1.00  0.00     0.163 C 
HETATM   29  C1  UNL     1      17.910  -2.178  53.441  1.00  0.00     0.033 C 
ENDBRANCH  27  28
ENDBRANCH  26  27
ENDBRANCH  25  26
ENDBRANCH  24  25
ENDBRANCH   1  24
TORSDOF 6
ENDMDL
MODEL 2
REMARK VINA RESULT:      -7.9      4.449      7.943
REMARK  6 active torsions:
REMARK  status: ('A' for Active; 'I' for Inactive)
REMARK    1  A    between atoms: C2_2  and  O1_3 
REMARK    2  A    between atoms: O1_3  and  C3_4 
REMARK    3  A    between atoms: C3_4  and  C4_5 
REMARK    4  A    between atoms: C4_5  and  O2_6 
REMARK    5  A    between atoms: O2_6  and  C5_7 
REMARK    6  A    between atoms: N1_17  and  C13_18 
ROOT
HETATM    1  C5  UNL     1      26.717   1.689  52.449  1.00  0.00     0.107 A 
HETATM    2  C6  UNL     1      26.125   0.742  53.261  1.00  0.00     0.073 A 
HETATM    3  C7  UNL     1      24.807   0.386  53.086  1.00  0.00     0.083 A 
HETATM    4  C8  UNL     1      24.137   1.028  52.067  1.00  0.00     0.105 A 
HETATM    5  C9  UNL     1      24.673   1.978  51.225  1.00  0.00     0.134 A 
HETATM    6  C10 UNL     1      26.002   2.316  51.425  1.00  0.00     0.138 A 
HETATM    7  O3  UNL     1      26.613   3.277  50.604  1.00  0.00    -0.344 OA
HETATM    8  C11 UNL     1      25.960   3.705  49.400  1.00  0.00     0.202 C 
HETATM    9  C12 UNL     1      24.454   3.805  49.657  1.00  0.00     0.202 C 
HETATM   10  O4  UNL     1      23.966   2.597  50.210  1.00  0.00    -0.344 OA
HETATM   11  N1  UNL     1      22.784   0.732  51.799  1.00  0.00    -0.300 N 
HETATM   12  C19 UNL     1      22.147  -0.261  52.628  1.00  0.00     0.237 A 
HETATM   13  N2  UNL     1      22.765  -0.873  53.590  1.00  0.00    -0.169 NA
HETATM   14  N3  UNL     1      24.125  -0.583  53.871  1.00  0.00    -0.275 N 
HETATM   15  H19 UNL     1      24.659  -1.062  54.647  1.00  0.00     0.189 HD
ENDROOT
BRANCH  11  16
HETATM   16  C13 UNL     1      21.874   1.269  50.852  1.00  0.00     0.042 A 
HETATM   17  C14 UNL     1      21.676   1.053  49.483  1.00  0.00     0.033 A 
HETATM   18  C15 UNL     1      20.682   1.724  48.824  1.00  0.00     0.046 A 
HETATM   19  C16 UNL     1      19.840   2.624  49.434  1.00  0.00     0.138 A 
HETATM   20  F1  UNL     1      18.893   3.228  48.679  1.00  0.00    -0.204 F 
HETATM   21  C17 UNL     1      20.022   2.848  50.783  1.00  0.00     0.074 A 
HETATM   22 CL1  UNL     1      18.929   4.000  51.520  1.00  0.00    -0.081 Cl
HETATM   23  C18 UNL     1      21.027   2.181  51.493  1.00  0.00     0.057 A 
ENDBRANCH  11  16
BRANCH   1  24
HETATM   24  O2  UNL     1      28.038   2.078  52.587  1.00  0.00    -0.346 OA
BRANCH  24  25
HETATM   25  C4  UNL     1      28.650   2.439  53.796  1.00  0.00     0.201 C 
BRANCH  25  26
HETATM   26  C3  UNL     1      29.351   1.237  54.391  1.00  0.00     0.194 C 
BRANCH  26  27
HETATM   27  O1  UNL     1      29.863   0.402  53.387  1.00  0.00    -0.389 OA
BRANCH  27  28
HETATM   28  C2  UNL     1      29.873  -0.915  53.845  1.00  0.00     0.163 C 
HETATM   29  C1  UNL     1      28.906  -1.805  53.130  1.00  0.00     0.033 C 
ENDBRANCH  27  28
ENDBRANCH  26  27
ENDBRANCH  25  26
ENDBRANCH  24  25
ENDBRANCH   1  24
TORSDOF 6
ENDMDL
MODEL 3
REMARK VINA RESULT:      -7.8      4.388      8.051
REMARK  6 active torsions:
REMARK  status: ('A' for Active; 'I' for Inactive)
REMARK    1  A    between atoms: C2_2  and  O1_3 
REMARK    2  A    between atoms: O1_3  and  C3_4 
REMARK    3  A    between atoms: C3_4  and  C4_5 
REMARK    4  A    between atoms: C4_5  and  O2_6 
REMARK    5  A    between atoms: O2_6  and  C5_7 
REMARK    6  A    between atoms: N1_17  and  C13_18 
ROOT
HETATM    1  C5  UNL     1      25.785   0.696  52.939  1.00  0.00     0.107 A 
HETATM    2  C6  UNL     1      25.256  -0.177  53.869  1.00  0.00     0.073 A 
HETATM    3  C7  UNL     1      23.895  -0.275  54.052  1.00  0.00     0.083 A 
HETATM    4  C8  UNL     1      23.118   0.543  53.260  1.00  0.00     0.105 A 
HETATM    5  C9  UNL     1      23.587   1.431  52.318  1.00  0.00     0.134 A 
HETATM    6  C10 UNL     1      24.961   1.508  52.156  1.00  0.00     0.138 A 
HETATM    7  O3  UNL     1      25.509   2.393  51.212  1.00  0.00    -0.344 OA
HETATM    8  C11 UNL     1      24.657   3.009  50.235  1.00  0.00     0.202 C 
HETATM    9  C12 UNL     1      23.321   3.364  50.891  1.00  0.00     0.202 C 
HETATM   10  O4  UNL     1      22.771   2.233  51.539  1.00  0.00    -0.344 OA
HETATM   11  N1  UNL     1      21.712   0.516  53.364  1.00  0.00    -0.300 N 
HETATM   12  C19 UNL     1      21.136  -0.396  54.322  1.00  0.00     0.237 A 
HETATM   13  N2  UNL     1      21.855  -1.171  55.073  1.00  0.00    -0.169 NA
HETATM   14  N3  UNL     1      23.270  -1.152  54.979  1.00  0.00    -0.275 N 
HETATM   15  H19 UNL     1      23.887  -1.770  55.576  1.00  0.00     0.189 HD
ENDROOT
BRANCH  11  16
HETATM   16  C13 UNL     1      20.706   1.270  52.705  1.00  0.00     0.042 A 
HETATM   17  C14 UNL     1      20.387   2.633  52.687  1.00  0.00     0.033 A 
HETATM   18  C15 UNL     1      19.340   3.077  51.924  1.00  0.00     0.046 A 
HETATM   19  C16 UNL     1      18.559   2.251  51.152  1.00  0.00     0.138 A 
HETATM   20  F1  UNL     1      17.551   2.805  50.439  1.00  0.00    -0.204 F 
HETATM   21  C17 UNL     1      18.861   0.904  51.159  1.00  0.00     0.074 A 
HETATM   22 CL1  UNL     1      17.841  -0.112  50.162  1.00  0.00    -0.081 Cl
HETATM   23  C18 UNL     1      19.923   0.410  51.925  1.00  0.00     0.057 A 
ENDBRANCH  11  16
BRANCH   1  24
HETATM   24  O2  UNL     1      27.146   0.828  52.721  1.00  0.00    -0.346 OA
BRANCH  24  25
HETATM   25  C4  UNL     1      28.058   1.382  53.630  1.00  0.00     0.201 C 
BRANCH  25  26
HETATM   26  C3  UNL     1      29.268   0.481  53.750  1.00  0.00     0.194 C 
BRANCH  26  27
HETATM   27  O1  UNL     1      28.910  -0.784  54.239  1.00  0.00    -0.389 OA
BRANCH  27  28
HETATM   28  C2  UNL     1      29.373  -1.765  53.363  1.00  0.00     0.163 C 
HETATM   29  C1  UNL     1      28.316  -2.735  52.939  1.00  0.00     0.033 C 
ENDBRANCH  27  28
ENDBRANCH  26  27
ENDBRANCH  25  26
ENDBRANCH  24  25
ENDBRANCH   1  24
TORSDOF 6
ENDMDL
MODEL 4
REMARK VINA RESULT:      -7.7      2.276      3.502
REMARK  6 active torsions:
REMARK  status: ('A' for Active; 'I' for Inactive)
REMARK    1  A    between atoms: C2_2  and  O1_3 
REMARK    2  A    between atoms: O1_3  and  C3_4 
REMARK    3  A    between atoms: C3_4  and  C4_5 
REMARK    4  A    between atoms: C4_5  and  O2_6 
REMARK    5  A    between atoms: O2_6  and  C5_7 
REMARK    6  A    between atoms: N1_17  and  C13_18 
ROOT
HETATM    1  C5  UNL     1      21.157   0.864  52.061  1.00  0.00     0.107 A 
HETATM    2  C6  UNL     1      20.998  -0.027  53.104  1.00  0.00     0.073 A 
HETATM    3  C7  UNL     1      22.076  -0.434  53.857  1.00  0.00     0.083 A 
HETATM    4  C8  UNL     1      23.297   0.099  53.503  1.00  0.00     0.105 A 
HETATM    5  C9  UNL     1      23.517   0.991  52.475  1.00  0.00     0.134 A 
HETATM    6  C10 UNL     1      22.413   1.381  51.734  1.00  0.00     0.138 A 
HETATM    7  O3  UNL     1      22.564   2.288  50.672  1.00  0.00    -0.344 OA
HETATM    8  C11 UNL     1      23.793   3.014  50.525  1.00  0.00     0.202 C 
HETATM    9  C12 UNL     1      24.963   2.094  50.882  1.00  0.00     0.202 C 
HETATM   10  O4  UNL     1      24.760   1.506  52.153  1.00  0.00    -0.344 OA
HETATM   11  N1  UNL     1      24.465  -0.246  54.213  1.00  0.00    -0.300 N 
HETATM   12  C19 UNL     1      24.322  -1.168  55.313  1.00  0.00     0.237 A 
HETATM   13  N2  UNL     1      23.180  -1.677  55.658  1.00  0.00    -0.169 NA
HETATM   14  N3  UNL     1      21.998  -1.339  54.950  1.00  0.00    -0.275 N 
HETATM   15  H19 UNL     1      21.052  -1.734  55.204  1.00  0.00     0.189 HD
ENDROOT
BRANCH  11  16
HETATM   16  C13 UNL     1      25.822   0.125  54.029  1.00  0.00     0.042 A 
HETATM   17  C14 UNL     1      26.518   1.329  54.193  1.00  0.00     0.033 A 
HETATM   18  C15 UNL     1      27.864   1.377  53.946  1.00  0.00     0.046 A 
HETATM   19  C16 UNL     1      28.599   0.291  53.535  1.00  0.00     0.138 A 
HETATM   20  F1  UNL     1      29.925   0.460  53.321  1.00  0.00    -0.204 F 
HETATM   21  C17 UNL     1      27.929  -0.903  53.368  1.00  0.00     0.074 A 
HETATM   22 CL1  UNL     1      28.903  -2.260  52.844  1.00  0.00    -0.081 Cl
HETATM   23  C18 UNL     1      26.553  -0.994  53.611  1.00  0.00     0.057 A 
ENDBRANCH  11  16
BRANCH   1  24
HETATM   24  O2  UNL     1      20.102   1.300  51.278  1.00  0.00    -0.346 OA
BRANCH  24  25
HETATM   25  C4  UNL     1      19.127   0.472  50.705  1.00  0.00     0.201 C 
BRANCH  25  26
HETATM   26  C3  UNL     1      17.898   0.446  51.589  1.00  0.00     0.194 C 
BRANCH  26  27
HETATM   27  O1  UNL     1      17.484  -0.870  51.842  1.00  0.00    -0.389 OA
BRANCH  27  28
HETATM   28  C2  UNL     1      17.603  -1.137  53.205  1.00  0.00     0.163 C 
HETATM   29  C1  UNL     1      17.705  -2.595  53.523  1.00  0.00     0.033 C 
ENDBRANCH  27  28
ENDBRANCH  26  27
ENDBRANCH  25  26
ENDBRANCH  24  25
ENDBRANCH   1  24
TORSDOF 6
ENDMDL
MODEL 5
REMARK VINA RESULT:      -7.7      4.017      7.343
REMARK  6 active torsions:
REMARK  status: ('A' for Active; 'I' for Inactive)
REMARK    1  A    between atoms: C2_2  and  O1_3 
REMARK    2  A    between atoms: O1_3  and  C3_4 
REMARK    3  A    between atoms: C3_4  and  C4_5 
REMARK    4  A    between atoms: C4_5  and  O2_6 
REMARK    5  A    between atoms: O2_6  and  C5_7 
REMARK    6  A    between atoms: N1_17  and  C13_18 
ROOT
HETATM    1  C5  UNL     1      25.794   0.221  52.684  1.00  0.00     0.107 A 
HETATM    2  C6  UNL     1      26.540   1.206  52.067  1.00  0.00     0.073 A 
HETATM    3  C7  UNL     1      25.929   2.280  51.459  1.00  0.00     0.083 A 
HETATM    4  C8  UNL     1      24.551   2.301  51.511  1.00  0.00     0.105 A 
HETATM    5  C9  UNL     1      23.755   1.350  52.111  1.00  0.00     0.134 A 
HETATM    6  C10 UNL     1      24.398   0.280  52.713  1.00  0.00     0.138 A 
HETATM    7  O3  UNL     1      23.647  -0.725  53.344  1.00  0.00    -0.344 OA
HETATM    8  C11 UNL     1      22.252  -0.516  53.606  1.00  0.00     0.202 C 
HETATM    9  C12 UNL     1      21.631   0.239  52.427  1.00  0.00     0.202 C 
HETATM   10  O4  UNL     1      22.373   1.410  52.143  1.00  0.00    -0.344 OA
HETATM   11  N1  UNL     1      23.827   3.359  50.926  1.00  0.00    -0.300 N 
HETATM   12  C19 UNL     1      24.586   4.405  50.284  1.00  0.00     0.237 A 
HETATM   13  N2  UNL     1      25.881   4.399  50.228  1.00  0.00    -0.169 NA
HETATM   14  N3  UNL     1      26.621   3.338  50.811  1.00  0.00    -0.275 N 
HETATM   15  H19 UNL     1      27.677   3.301  50.785  1.00  0.00     0.189 HD
ENDROOT
BRANCH  11  16
HETATM   16  C13 UNL     1      22.432   3.593  50.808  1.00  0.00     0.042 A 
HETATM   17  C14 UNL     1      21.478   4.152  51.667  1.00  0.00     0.033 A 
HETATM   18  C15 UNL     1      20.176   4.261  51.259  1.00  0.00     0.046 A 
HETATM   19  C16 UNL     1      19.729   3.846  50.028  1.00  0.00     0.138 A 
HETATM   20  F1  UNL     1      18.416   4.005  49.736  1.00  0.00    -0.204 F 
HETATM   21  C17 UNL     1      20.656   3.293  49.169  1.00  0.00     0.074 A 
HETATM   22 CL1  UNL     1      20.045   2.778  47.612  1.00  0.00    -0.081 Cl
HETATM   23  C18 UNL     1      21.998   3.164  49.548  1.00  0.00     0.057 A 
ENDBRANCH  11  16
BRANCH   1  24
HETATM   24  O2  UNL     1      26.364  -0.875  53.306  1.00  0.00    -0.346 OA
BRANCH  24  25
HETATM   25  C4  UNL     1      27.066  -1.898  52.653  1.00  0.00     0.201 C 
BRANCH  25  26
HETATM   26  C3  UNL     1      28.529  -1.836  53.034  1.00  0.00     0.194 C 
BRANCH  26  27
HETATM   27  O1  UNL     1      28.725  -1.017  54.155  1.00  0.00    -0.389 OA
BRANCH  27  28
HETATM   28  C2  UNL     1      29.638  -0.012  53.837  1.00  0.00     0.163 C 
HETATM   29  C1  UNL     1      29.252   1.335  54.361  1.00  0.00     0.033 C 
ENDBRANCH  27  28
ENDBRANCH  26  27
ENDBRANCH  25  26
ENDBRANCH  24  25
ENDBRANCH   1  24
TORSDOF 6
ENDMDL
MODEL 6
REMARK VINA RESULT:      -7.7      2.978      4.881
REMARK  6 active torsions:
REMARK  status: ('A' for Active; 'I' for Inactive)
REMARK    1  A    between atoms: C2_2  and  O1_3 
REMARK    2  A    between atoms: O1_3  and  C3_4 
REMARK    3  A    between atoms: C3_4  and  C4_5 
REMARK    4  A    between atoms: C4_5  and  O2_6 
REMARK    5  A    between atoms: O2_6  and  C5_7 
REMARK    6  A    between atoms: N1_17  and  C13_18 
ROOT
HETATM    1  C5  UNL     1      22.359   2.155  50.516  1.00  0.00     0.107 A 
HETATM    2  C6  UNL     1      21.811   1.254  51.407  1.00  0.00     0.073 A 
HETATM    3  C7  UNL     1      22.594   0.626  52.349  1.00  0.00     0.083 A 
HETATM    4  C8  UNL     1      23.933   0.953  52.338  1.00  0.00     0.105 A 
HETATM    5  C9  UNL     1      24.536   1.843  51.477  1.00  0.00     0.134 A 
HETATM    6  C10 UNL     1      23.722   2.460  50.539  1.00  0.00     0.138 A 
HETATM    7  O3  UNL     1      24.271   3.378  49.629  1.00  0.00    -0.344 OA
HETATM    8  C11 UNL     1      25.597   3.883  49.838  1.00  0.00     0.202 C 
HETATM    9  C12 UNL     1      26.483   2.754  50.371  1.00  0.00     0.202 C 
HETATM   10  O4  UNL     1      25.885   2.147  51.501  1.00  0.00    -0.344 OA
HETATM   11  N1  UNL     1      24.821   0.372  53.266  1.00  0.00    -0.300 N 
HETATM   12  C19 UNL     1      24.269  -0.565  54.213  1.00  0.00     0.237 A 
HETATM   13  N2  UNL     1      23.012  -0.882  54.235  1.00  0.00    -0.169 NA
HETATM   14  N3  UNL     1      22.109  -0.306  53.306  1.00  0.00    -0.275 N 
HETATM   15  H19 UNL     1      21.078  -0.541  53.296  1.00  0.00     0.189 HD
ENDROOT
BRANCH  11  16
HETATM   16  C13 UNL     1      26.223   0.507  53.436  1.00  0.00     0.042 A 
HETATM   17  C14 UNL     1      27.044   1.575  53.818  1.00  0.00     0.033 A 
HETATM   18  C15 UNL     1      28.399   1.394  53.911  1.00  0.00     0.046 A 
HETATM   19  C16 UNL     1      29.024   0.199  53.647  1.00  0.00     0.138 A 
HETATM   20  F1  UNL     1      30.371   0.140  53.773  1.00  0.00    -0.204 F 
HETATM   21  C17 UNL     1      28.230  -0.864  53.270  1.00  0.00     0.074 A 
HETATM   22 CL1  UNL     1      29.067  -2.366  52.943  1.00  0.00    -0.081 Cl
HETATM   23  C18 UNL     1      26.841  -0.720  53.163  1.00  0.00     0.057 A 
ENDBRANCH  11  16
BRANCH   1  24
HETATM   24  O2  UNL     1      21.611   2.809  49.553  1.00  0.00    -0.346 OA
BRANCH  24  25
HETATM   25  C4  UNL     1      20.627   3.773  49.813  1.00  0.00     0.201 C 
BRANCH  25  26
HETATM   26  C3  UNL     1      21.128   4.742  50.862  1.00  0.00     0.194 C 
BRANCH  26  27
HETATM   27  O1  UNL     1      21.719   5.868  50.270  1.00  0.00    -0.389 OA
BRANCH  27  28
HETATM   28  C2  UNL     1      22.773   6.308  51.069  1.00  0.00     0.163 C 
HETATM   29  C1  UNL     1      23.356   7.613  50.624  1.00  0.00     0.033 C 
ENDBRANCH  27  28
ENDBRANCH  26  27
ENDBRANCH  25  26
ENDBRANCH  24  25
ENDBRANCH   1  24
TORSDOF 6
ENDMDL
MODEL 7
REMARK VINA RESULT:      -7.6      2.429      3.750
REMARK  6 active torsions:
REMARK  status: ('A' for Active; 'I' for Inactive)
REMARK    1  A    between atoms: C2_2  and  O1_3 
REMARK    2  A    between atoms: O1_3  and  C3_4 
REMARK    3  A    between atoms: C3_4  and  C4_5 
REMARK    4  A    between atoms: C4_5  and  O2_6 
REMARK    5  A    between atoms: O2_6  and  C5_7 
REMARK    6  A    between atoms: N1_17  and  C13_18 
ROOT
HETATM    1  C5  UNL     1      22.347   2.021  50.585  1.00  0.00     0.107 A 
HETATM    2  C6  UNL     1      21.823   1.133  51.503  1.00  0.00     0.073 A 
HETATM    3  C7  UNL     1      22.628   0.533  52.446  1.00  0.00     0.083 A 
HETATM    4  C8  UNL     1      23.962   0.875  52.407  1.00  0.00     0.105 A 
HETATM    5  C9  UNL     1      24.542   1.753  51.519  1.00  0.00     0.134 A 
HETATM    6  C10 UNL     1      23.708   2.341  50.581  1.00  0.00     0.138 A 
HETATM    7  O3  UNL     1      24.232   3.246  49.644  1.00  0.00    -0.344 OA
HETATM    8  C11 UNL     1      25.556   3.770  49.822  1.00  0.00     0.202 C 
HETATM    9  C12 UNL     1      26.462   2.662  50.364  1.00  0.00     0.202 C 
HETATM   10  O4  UNL     1      25.888   2.072  51.516  1.00  0.00    -0.344 OA
HETATM   11  N1  UNL     1      24.872   0.322  53.332  1.00  0.00    -0.300 N 
HETATM   12  C19 UNL     1      24.344  -0.601  54.307  1.00  0.00     0.237 A 
HETATM   13  N2  UNL     1      23.092  -0.931  54.356  1.00  0.00    -0.169 NA
HETATM   14  N3  UNL     1      22.167  -0.384  53.429  1.00  0.00    -0.275 N 
HETATM   15  H19 UNL     1      21.140  -0.631  53.439  1.00  0.00     0.189 HD
ENDROOT
BRANCH  11  16
HETATM   16  C13 UNL     1      26.275   0.476  53.479  1.00  0.00     0.042 A 
HETATM   17  C14 UNL     1      27.089   1.560  53.828  1.00  0.00     0.033 A 
HETATM   18  C15 UNL     1      28.447   1.396  53.903  1.00  0.00     0.046 A 
HETATM   19  C16 UNL     1      29.082   0.203  53.651  1.00  0.00     0.138 A 
HETATM   20  F1  UNL     1      30.431   0.161  53.756  1.00  0.00    -0.204 F 
HETATM   21  C17 UNL     1      28.293  -0.876  53.306  1.00  0.00     0.074 A 
HETATM   22 CL1  UNL     1      29.143  -2.374  52.994  1.00  0.00    -0.081 Cl
HETATM   23  C18 UNL     1      26.902  -0.749  53.219  1.00  0.00     0.057 A 
ENDBRANCH  11  16
BRANCH   1  24
HETATM   24  O2  UNL     1      21.578   2.648  49.621  1.00  0.00    -0.346 OA
BRANCH  24  25
HETATM   25  C4  UNL     1      20.367   2.157  49.112  1.00  0.00     0.201 C 
BRANCH  25  26
HETATM   26  C3  UNL     1      19.220   3.000  49.627  1.00  0.00     0.194 C 
BRANCH  26  27
HETATM   27  O1  UNL     1      18.362   2.245  50.441  1.00  0.00    -0.389 OA
BRANCH  27  28
HETATM   28  C2  UNL     1      18.464   0.899  50.093  1.00  0.00     0.163 C 
HETATM   29  C1  UNL     1      18.227  -0.034  51.239  1.00  0.00     0.033 C 
ENDBRANCH  27  28
ENDBRANCH  26  27
ENDBRANCH  25  26
ENDBRANCH  24  25
ENDBRANCH   1  24
TORSDOF 6
ENDMDL
MODEL 8
REMARK VINA RESULT:      -7.6      3.024      4.470
REMARK  6 active torsions:
REMARK  status: ('A' for Active; 'I' for Inactive)
REMARK    1  A    between atoms: C2_2  and  O1_3 
REMARK    2  A    between atoms: O1_3  and  C3_4 
REMARK    3  A    between atoms: C3_4  and  C4_5 
REMARK    4  A    between atoms: C4_5  and  O2_6 
REMARK    5  A    between atoms: O2_6  and  C5_7 
REMARK    6  A    between atoms: N1_17  and  C13_18 
ROOT
HETATM    1  C5  UNL     1      19.556   0.831  51.315  1.00  0.00     0.107 A 
HETATM    2  C6  UNL     1      19.388  -0.032  52.380  1.00  0.00     0.073 A 
HETATM    3  C7  UNL     1      20.452  -0.382  53.181  1.00  0.00     0.083 A 
HETATM    4  C8  UNL     1      21.668   0.178  52.850  1.00  0.00     0.105 A 
HETATM    5  C9  UNL     1      21.896   1.043  51.803  1.00  0.00     0.134 A 
HETATM    6  C10 UNL     1      20.806   1.377  51.014  1.00  0.00     0.138 A 
HETATM    7  O3  UNL     1      20.967   2.254  49.929  1.00  0.00    -0.344 OA
HETATM    8  C11 UNL     1      22.177   3.013  49.800  1.00  0.00     0.202 C 
HETATM    9  C12 UNL     1      23.362   2.141  50.224  1.00  0.00     0.202 C 
HETATM   10  O4  UNL     1      23.133   1.586  51.506  1.00  0.00    -0.344 OA
HETATM   11  N1  UNL     1      22.821  -0.110  53.609  1.00  0.00    -0.300 N 
HETATM   12  C19 UNL     1      22.667  -1.001  54.733  1.00  0.00     0.237 A 
HETATM   13  N2  UNL     1      21.531  -1.534  55.056  1.00  0.00    -0.169 NA
HETATM   14  N3  UNL     1      20.364  -1.255  54.299  1.00  0.00    -0.275 N 
HETATM   15  H19 UNL     1      19.422  -1.671  54.533  1.00  0.00     0.189 HD
ENDROOT
BRANCH  11  16
HETATM   16  C13 UNL     1      24.171   0.297  53.459  1.00  0.00     0.042 A 
HETATM   17  C14 UNL     1      24.820   1.533  53.578  1.00  0.00     0.033 A 
HETATM   18  C15 UNL     1      26.173   1.613  53.383  1.00  0.00     0.046 A 
HETATM   19  C16 UNL     1      26.960   0.532  53.069  1.00  0.00     0.138 A 
HETATM   20  F1  UNL     1      28.288   0.734  52.899  1.00  0.00    -0.204 F 
HETATM   21  C17 UNL     1      26.337  -0.694  52.948  1.00  0.00     0.074 A 
HETATM   22 CL1  UNL     1      27.376  -2.044  52.547  1.00  0.00    -0.081 Cl
HETATM   23  C18 UNL     1      24.956  -0.818  53.140  1.00  0.00     0.057 A 
ENDBRANCH  11  16
BRANCH   1  24
HETATM   24  O2  UNL     1      18.516   1.210  50.484  1.00  0.00    -0.346 OA
BRANCH  24  25
HETATM   25  C4  UNL     1      17.402   1.963  50.879  1.00  0.00     0.201 C 
BRANCH  25  26
HETATM   26  C3  UNL     1      17.803   3.412  51.055  1.00  0.00     0.194 C 
BRANCH  26  27
HETATM   27  O1  UNL     1      17.199   3.970  52.191  1.00  0.00    -0.389 OA
BRANCH  27  28
HETATM   28  C2  UNL     1      15.837   4.147  51.950  1.00  0.00     0.163 C 
HETATM   29  C1  UNL     1      14.993   4.048  53.181  1.00  0.00     0.033 C 
ENDBRANCH  27  28
ENDBRANCH  26  27
ENDBRANCH  25  26
ENDBRANCH  24  25
ENDBRANCH   1  24
TORSDOF 6
ENDMDL
MODEL 9
REMARK VINA RESULT:      -7.5      4.773      7.919
REMARK  6 active torsions:
REMARK  status: ('A' for Active; 'I' for Inactive)
REMARK    1  A    between atoms: C2_2  and  O1_3 
REMARK    2  A    between atoms: O1_3  and  C3_4 
REMARK    3  A    between atoms: C3_4  and  C4_5 
REMARK    4  A    between atoms: C4_5  and  O2_6 
REMARK    5  A    between atoms: O2_6  and  C5_7 
REMARK    6  A    between atoms: N1_17  and  C13_18 
ROOT
HETATM    1  C5  UNL     1      24.663   1.038  52.217  1.00  0.00     0.107 A 
HETATM    2  C6  UNL     1      23.405   0.844  52.752  1.00  0.00     0.073 A 
HETATM    3  C7  UNL     1      22.393   1.749  52.525  1.00  0.00     0.083 A 
HETATM    4  C8  UNL     1      22.718   2.838  51.745  1.00  0.00     0.105 A 
HETATM    5  C9  UNL     1      23.953   3.085  51.184  1.00  0.00     0.134 A 
HETATM    6  C10 UNL     1      24.952   2.156  51.430  1.00  0.00     0.138 A 
HETATM    7  O3  UNL     1      26.234   2.345  50.890  1.00  0.00    -0.344 OA
HETATM    8  C11 UNL     1      26.440   3.335  49.873  1.00  0.00     0.202 C 
HETATM    9  C12 UNL     1      25.587   4.565  50.192  1.00  0.00     0.202 C 
HETATM   10  O4  UNL     1      24.238   4.190  50.403  1.00  0.00    -0.344 OA
HETATM   11  N1  UNL     1      21.754   3.821  51.446  1.00  0.00    -0.300 N 
HETATM   12  C19 UNL     1      20.429   3.634  51.986  1.00  0.00     0.237 A 
HETATM   13  N2  UNL     1      20.108   2.615  52.721  1.00  0.00    -0.169 NA
HETATM   14  N3  UNL     1      21.071   1.620  53.030  1.00  0.00    -0.275 N 
HETATM   15  H19 UNL     1      20.844   0.777  53.626  1.00  0.00     0.189 HD
ENDROOT
BRANCH  11  16
HETATM   16  C13 UNL     1      21.842   5.033  50.713  1.00  0.00     0.042 A 
HETATM   17  C14 UNL     1      22.277   6.323  51.042  1.00  0.00     0.033 A 
HETATM   18  C15 UNL     1      22.258   7.311  50.094  1.00  0.00     0.046 A 
HETATM   19  C16 UNL     1      21.826   7.116  48.804  1.00  0.00     0.138 A 
HETATM   20  F1  UNL     1      21.853   8.169  47.953  1.00  0.00    -0.204 F 
HETATM   21  C17 UNL     1      21.394   5.850  48.463  1.00  0.00     0.074 A 
HETATM   22 CL1  UNL     1      20.854   5.646  46.810  1.00  0.00    -0.081 Cl
HETATM   23  C18 UNL     1      21.399   4.813  49.403  1.00  0.00     0.057 A 
ENDBRANCH  11  16
BRANCH   1  24
HETATM   24  O2  UNL     1      25.710   0.156  52.419  1.00  0.00    -0.346 OA
BRANCH  24  25
HETATM   25  C4  UNL     1      25.925  -0.586  53.588  1.00  0.00     0.201 C 
BRANCH  25  26
HETATM   26  C3  UNL     1      26.650   0.267  54.607  1.00  0.00     0.194 C 
BRANCH  26  27
HETATM   27  O1  UNL     1      27.811  -0.371  55.068  1.00  0.00    -0.389 OA
BRANCH  27  28
HETATM   28  C2  UNL     1      28.923   0.181  54.432  1.00  0.00     0.163 C 
HETATM   29  C1  UNL     1      29.708  -0.811  53.632  1.00  0.00     0.033 C 
ENDBRANCH  27  28
ENDBRANCH  26  27
ENDBRANCH  25  26
ENDBRANCH  24  25
ENDBRANCH   1  24
TORSDOF 6
ENDMDL
