MODEL 1
REMARK VINA RESULT:      -6.6      0.000      0.000
REMARK  7 active torsions:
REMARK  status: ('A' for Active; 'I' for Inactive)
REMARK    1  A    between atoms: C2_3  and  C3_4 
REMARK    2  A    between atoms: C3_4  and  C4_5 
REMARK    3  A    between atoms: C5_6  and  N2_7 
REMARK    4  A    between atoms: N2_7  and  C6_8 
REMARK    5  A    between atoms: C9_11  and  O1_12 
REMARK    6  A    between atoms: O1_12  and  C10_13 
REMARK    7  A    between atoms: C10_13  and  C11_14 
ROOT
HETATM    1  N1  UNL     1      21.562   0.323  52.008  1.00  0.00    -0.197 NA
HETATM    2  C1  UNL     1      21.495   0.585  50.901  1.00  0.00     0.059 C 
HETATM    3  C2  UNL     1      21.432   0.919  49.501  1.00  0.00     0.127 C 
ENDROOT
BRANCH   3   4
HETATM    4  C3  UNL     1      20.860   2.287  49.209  1.00  0.00     0.042 C 
BRANCH   4   5
HETATM    5  C4  UNL     1      20.365   2.988  50.391  1.00  0.00    -0.009 C 
HETATM    6  C5  UNL     1      20.875   4.036  51.004  1.00  0.00     0.084 C 
BRANCH   6   7
HETATM    7  N2  UNL     1      22.032   4.824  50.749  1.00  0.00    -0.366 N 
HETATM    8  H7  UNL     1      21.904   5.767  50.329  1.00  0.00     0.165 HD
BRANCH   7   9
HETATM    9  C6  UNL     1      23.235   4.145  51.137  1.00  0.00     0.033 A 
HETATM   10  C7  UNL     1      23.276   3.507  52.358  1.00  0.00     0.032 A 
HETATM   11  C8  UNL     1      24.430   2.853  52.696  1.00  0.00     0.041 A 
HETATM   12  C9  UNL     1      25.550   2.791  51.900  1.00  0.00     0.091 A 
HETATM   13  C17 UNL     1      25.455   3.460  50.663  1.00  0.00     0.069 A 
HETATM   14 CL1  UNL     1      26.718   3.558  49.433  1.00  0.00    -0.081 Cl
HETATM   15  C18 UNL     1      24.316   4.142  50.257  1.00  0.00     0.056 A 
BRANCH  12  16
HETATM   16  O1  UNL     1      26.787   2.239  51.965  1.00  0.00    -0.345 OA
BRANCH  16  17
HETATM   17  C10 UNL     1      27.656   1.969  52.994  1.00  0.00     0.214 C 
BRANCH  17  18
HETATM   18  C11 UNL     1      27.981   0.526  53.045  1.00  0.00    -0.034 A 
HETATM   19  C12 UNL     1      29.268   0.306  53.521  1.00  0.00     0.009 A 
HETATM   20  C13 UNL     1      29.865  -0.937  53.664  1.00  0.00     0.001 A 
HETATM   21  C14 UNL     1      29.119  -2.046  53.305  1.00  0.00     0.000 A 
HETATM   22  C15 UNL     1      27.832  -1.867  52.826  1.00  0.00     0.001 A 
HETATM   23  C16 UNL     1      27.286  -0.610  52.703  1.00  0.00     0.009 A 
ENDBRANCH  17  18
ENDBRANCH  16  17
ENDBRANCH  12  16
ENDBRANCH   7   9
ENDBRANCH   6   7
ENDBRANCH   4   5
ENDBRANCH   3   4
TORSDOF 7
ENDMDL
MODEL 2
REMARK VINA RESULT:      -6.4      3.461      4.483
REMARK  7 active torsions:
REMARK  status: ('A' for Active; 'I' for Inactive)
REMARK    1  A    between atoms: C2_3  and  C3_4 
REMARK    2  A    between atoms: C3_4  and  C4_5 
REMARK    3  A    between atoms: C5_6  and  N2_7 
REMARK    4  A    between atoms: N2_7  and  C6_8 
REMARK    5  A    between atoms: C9_11  and  O1_12 
REMARK    6  A    between atoms: O1_12  and  C10_13 
REMARK    7  A    between atoms: C10_13  and  C11_14 
ROOT
HETATM    1  N1  UNL     1      14.860   1.008  52.051  1.00  0.00    -0.197 NA
HETATM    2  C1  UNL     1      15.758   0.308  52.026  1.00  0.00     0.059 C 
HETATM    3  C2  UNL     1      16.885  -0.588  51.981  1.00  0.00     0.127 C 
ENDROOT
BRANCH   3   4
HETATM    4  C3  UNL     1      17.064  -1.430  53.223  1.00  0.00     0.042 C 
BRANCH   4   5
HETATM    5  C4  UNL     1      18.367  -2.086  53.314  1.00  0.00    -0.009 C 
HETATM    6  C5  UNL     1      19.500  -1.611  53.784  1.00  0.00     0.084 C 
BRANCH   6   7
HETATM    7  N2  UNL     1      19.850  -0.351  54.347  1.00  0.00    -0.366 N 
HETATM    8  H7  UNL     1      19.167   0.114  54.978  1.00  0.00     0.165 HD
BRANCH   7   9
HETATM    9  C6  UNL     1      21.151   0.079  53.923  1.00  0.00     0.033 A 
HETATM   10  C7  UNL     1      22.238  -0.728  54.186  1.00  0.00     0.032 A 
HETATM   11  C8  UNL     1      23.466  -0.302  53.757  1.00  0.00     0.041 A 
HETATM   12  C9  UNL     1      23.688   0.876  53.081  1.00  0.00     0.091 A 
HETATM   13  C17 UNL     1      22.544   1.663  52.838  1.00  0.00     0.069 A 
HETATM   14 CL1  UNL     1      22.507   3.215  51.998  1.00  0.00    -0.081 Cl
HETATM   15  C18 UNL     1      21.270   1.291  53.245  1.00  0.00     0.056 A 
BRANCH  12  16
HETATM   16  O1  UNL     1      24.748   1.533  52.550  1.00  0.00    -0.345 OA
BRANCH  16  17
HETATM   17  C10 UNL     1      25.731   1.187  51.654  1.00  0.00     0.214 C 
BRANCH  17  18
HETATM   18  C11 UNL     1      26.854   0.510  52.340  1.00  0.00    -0.034 A 
HETATM   19  C12 UNL     1      27.810   1.418  52.780  1.00  0.00     0.009 A 
HETATM   20  C13 UNL     1      28.983   1.086  53.438  1.00  0.00     0.001 A 
HETATM   21  C14 UNL     1      29.221  -0.256  53.678  1.00  0.00     0.000 A 
HETATM   22  C15 UNL     1      28.291  -1.192  53.255  1.00  0.00     0.001 A 
HETATM   23  C16 UNL     1      27.140  -0.809  52.604  1.00  0.00     0.009 A 
ENDBRANCH  17  18
ENDBRANCH  16  17
ENDBRANCH  12  16
ENDBRANCH   7   9
ENDBRANCH   6   7
ENDBRANCH   4   5
ENDBRANCH   3   4
TORSDOF 7
ENDMDL
MODEL 3
REMARK VINA RESULT:      -6.2      3.788      5.387
REMARK  7 active torsions:
REMARK  status: ('A' for Active; 'I' for Inactive)
REMARK    1  A    between atoms: C2_3  and  C3_4 
REMARK    2  A    between atoms: C3_4  and  C4_5 
REMARK    3  A    between atoms: C5_6  and  N2_7 
REMARK    4  A    between atoms: N2_7  and  C6_8 
REMARK    5  A    between atoms: C9_11  and  O1_12 
REMARK    6  A    between atoms: O1_12  and  C10_13 
REMARK    7  A    between atoms: C10_13  and  C11_14 
ROOT
HETATM    1  N1  UNL     1      21.015   4.641  51.571  1.00  0.00    -0.197 NA
HETATM    2  C1  UNL     1      21.446   5.613  51.160  1.00  0.00     0.059 C 
HETATM    3  C2  UNL     1      21.990   6.834  50.622  1.00  0.00     0.127 C 
ENDROOT
BRANCH   3   4
HETATM    4  C3  UNL     1      23.432   7.092  50.993  1.00  0.00     0.042 C 
BRANCH   4   5
HETATM    5  C4  UNL     1      24.341   7.138  49.850  1.00  0.00    -0.009 C 
HETATM    6  C5  UNL     1      25.359   6.352  49.572  1.00  0.00     0.084 C 
BRANCH   6   7
HETATM    7  N2  UNL     1      25.915   5.231  50.250  1.00  0.00    -0.366 N 
HETATM    8  H7  UNL     1      26.895   5.297  50.593  1.00  0.00     0.165 HD
BRANCH   7   9
HETATM    9  C6  UNL     1      24.978   4.149  50.346  1.00  0.00     0.033 A 
HETATM   10  C7  UNL     1      24.751   3.571  51.576  1.00  0.00     0.032 A 
HETATM   11  C8  UNL     1      23.840   2.551  51.643  1.00  0.00     0.041 A 
HETATM   12  C9  UNL     1      23.137   2.066  50.565  1.00  0.00     0.091 A 
HETATM   13  C17 UNL     1      23.406   2.691  49.331  1.00  0.00     0.069 A 
HETATM   14 CL1  UNL     1      22.666   2.294  47.778  1.00  0.00    -0.081 Cl
HETATM   15  C18 UNL     1      24.317   3.729  49.192  1.00  0.00     0.056 A 
BRANCH  12  16
HETATM   16  O1  UNL     1      22.205   1.107  50.335  1.00  0.00    -0.345 OA
BRANCH  16  17
HETATM   17  C10 UNL     1      20.976   0.825  50.880  1.00  0.00     0.214 C 
BRANCH  17  18
HETATM   18  C11 UNL     1      21.106   0.448  52.305  1.00  0.00    -0.034 A 
HETATM   19  C12 UNL     1      21.906  -0.677  52.469  1.00  0.00     0.009 A 
HETATM   20  C13 UNL     1      22.199  -1.279  53.682  1.00  0.00     0.001 A 
HETATM   21  C14 UNL     1      21.651  -0.716  54.821  1.00  0.00     0.000 A 
HETATM   22  C15 UNL     1      20.848   0.406  54.699  1.00  0.00     0.001 A 
HETATM   23  C16 UNL     1      20.589   0.967  53.469  1.00  0.00     0.009 A 
ENDBRANCH  17  18
ENDBRANCH  16  17
ENDBRANCH  12  16
ENDBRANCH   7   9
ENDBRANCH   6   7
ENDBRANCH   4   5
ENDBRANCH   3   4
TORSDOF 7
ENDMDL
MODEL 4
REMARK VINA RESULT:      -6.2      3.755      6.699
REMARK  7 active torsions:
REMARK  status: ('A' for Active; 'I' for Inactive)
REMARK    1  A    between atoms: C2_3  and  C3_4 
REMARK    2  A    between atoms: C3_4  and  C4_5 
REMARK    3  A    between atoms: C5_6  and  N2_7 
REMARK    4  A    between atoms: N2_7  and  C6_8 
REMARK    5  A    between atoms: C9_11  and  O1_12 
REMARK    6  A    between atoms: O1_12  and  C10_13 
REMARK    7  A    between atoms: C10_13  and  C11_14 
ROOT
HETATM    1  N1  UNL     1      21.042   4.666  51.615  1.00  0.00    -0.197 NA
HETATM    2  C1  UNL     1      21.614   5.582  51.252  1.00  0.00     0.059 C 
HETATM    3  C2  UNL     1      22.334   6.735  50.774  1.00  0.00     0.127 C 
ENDROOT
BRANCH   3   4
HETATM    4  C3  UNL     1      23.829   6.670  50.982  1.00  0.00     0.042 C 
BRANCH   4   5
HETATM    5  C4  UNL     1      24.555   6.040  49.882  1.00  0.00    -0.009 C 
HETATM    6  C5  UNL     1      25.338   4.983  49.905  1.00  0.00     0.084 C 
BRANCH   6   7
HETATM    7  N2  UNL     1      25.739   4.113  50.958  1.00  0.00    -0.366 N 
HETATM    8  H7  UNL     1      26.692   4.228  51.359  1.00  0.00     0.165 HD
BRANCH   7   9
HETATM    9  C6  UNL     1      24.704   3.180  51.302  1.00  0.00     0.033 A 
HETATM   10  C7  UNL     1      24.548   2.814  52.621  1.00  0.00     0.032 A 
HETATM   11  C8  UNL     1      23.543   1.936  52.924  1.00  0.00     0.041 A 
HETATM   12  C9  UNL     1      22.679   1.395  52.000  1.00  0.00     0.091 A 
HETATM   13  C17 UNL     1      22.882   1.802  50.666  1.00  0.00     0.069 A 
HETATM   14 CL1  UNL     1      21.940   1.286  49.264  1.00  0.00    -0.081 Cl
HETATM   15  C18 UNL     1      23.881   2.689  50.290  1.00  0.00     0.056 A 
BRANCH  12  16
HETATM   16  O1  UNL     1      21.628   0.538  52.003  1.00  0.00    -0.345 OA
BRANCH  16  17
HETATM   17  C10 UNL     1      20.882  -0.050  52.997  1.00  0.00     0.214 C 
BRANCH  17  18
HETATM   18  C11 UNL     1      19.494  -0.286  52.541  1.00  0.00    -0.034 A 
HETATM   19  C12 UNL     1      19.253   0.296  51.302  1.00  0.00     0.009 A 
HETATM   20  C13 UNL     1      18.044   0.263  50.626  1.00  0.00     0.001 A 
HETATM   21  C14 UNL     1      16.994  -0.403  51.232  1.00  0.00     0.000 A 
HETATM   22  C15 UNL     1      17.194  -0.996  52.467  1.00  0.00     0.001 A 
HETATM   23  C16 UNL     1      18.417  -0.934  53.097  1.00  0.00     0.009 A 
ENDBRANCH  17  18
ENDBRANCH  16  17
ENDBRANCH  12  16
ENDBRANCH   7   9
ENDBRANCH   6   7
ENDBRANCH   4   5
ENDBRANCH   3   4
TORSDOF 7
ENDMDL
MODEL 5
REMARK VINA RESULT:      -6.1      4.237      6.568
REMARK  7 active torsions:
REMARK  status: ('A' for Active; 'I' for Inactive)
REMARK    1  A    between atoms: C2_3  and  C3_4 
REMARK    2  A    between atoms: C3_4  and  C4_5 
REMARK    3  A    between atoms: C5_6  and  N2_7 
REMARK    4  A    between atoms: N2_7  and  C6_8 
REMARK    5  A    between atoms: C9_11  and  O1_12 
REMARK    6  A    between atoms: O1_12  and  C10_13 
REMARK    7  A    between atoms: C10_13  and  C11_14 
ROOT
HETATM    1  N1  UNL     1      27.088   8.625  44.491  1.00  0.00    -0.197 NA
HETATM    2  C1  UNL     1      27.803   8.488  45.368  1.00  0.00     0.059 C 
HETATM    3  C2  UNL     1      28.722   8.309  46.463  1.00  0.00     0.127 C 
ENDROOT
BRANCH   3   4
HETATM    4  C3  UNL     1      28.449   7.091  47.316  1.00  0.00     0.042 C 
BRANCH   4   5
HETATM    5  C4  UNL     1      27.826   7.393  48.602  1.00  0.00    -0.009 C 
HETATM    6  C5  UNL     1      26.736   6.882  49.132  1.00  0.00     0.084 C 
BRANCH   6   7
HETATM    7  N2  UNL     1      25.817   5.897  48.669  1.00  0.00    -0.366 N 
HETATM    8  H7  UNL     1      25.378   6.032  47.736  1.00  0.00     0.165 HD
BRANCH   7   9
HETATM    9  C6  UNL     1      25.650   4.836  49.621  1.00  0.00     0.033 A 
HETATM   10  C7  UNL     1      26.532   3.777  49.600  1.00  0.00     0.032 A 
HETATM   11  C8  UNL     1      26.360   2.787  50.528  1.00  0.00     0.041 A 
HETATM   12  C9  UNL     1      25.367   2.777  51.479  1.00  0.00     0.091 A 
HETATM   13  C17 UNL     1      24.492   3.882  51.457  1.00  0.00     0.069 A 
HETATM   14 CL1  UNL     1      23.128   4.153  52.545  1.00  0.00    -0.081 Cl
HETATM   15  C18 UNL     1      24.609   4.921  50.544  1.00  0.00     0.056 A 
BRANCH  12  16
HETATM   16  O1  UNL     1      24.965   1.967  52.490  1.00  0.00    -0.345 OA
BRANCH  16  17
HETATM   17  C10 UNL     1      24.879   0.604  52.640  1.00  0.00     0.214 C 
BRANCH  17  18
HETATM   18  C11 UNL     1      23.593   0.224  53.268  1.00  0.00    -0.034 A 
HETATM   19  C12 UNL     1      23.772  -0.707  54.285  1.00  0.00     0.009 A 
HETATM   20  C13 UNL     1      22.757  -1.267  55.043  1.00  0.00     0.001 A 
HETATM   21  C14 UNL     1      21.461  -0.866  54.767  1.00  0.00     0.000 A 
HETATM   22  C15 UNL     1      21.242   0.061  53.761  1.00  0.00     0.001 A 
HETATM   23  C16 UNL     1      22.287   0.587  53.036  1.00  0.00     0.009 A 
ENDBRANCH  17  18
ENDBRANCH  16  17
ENDBRANCH  12  16
ENDBRANCH   7   9
ENDBRANCH   6   7
ENDBRANCH   4   5
ENDBRANCH   3   4
TORSDOF 7
ENDMDL
MODEL 6
REMARK VINA RESULT:      -6.1      1.963      2.906
REMARK  7 active torsions:
REMARK  status: ('A' for Active; 'I' for Inactive)
REMARK    1  A    between atoms: C2_3  and  C3_4 
REMARK    2  A    between atoms: C3_4  and  C4_5 
REMARK    3  A    between atoms: C5_6  and  N2_7 
REMARK    4  A    between atoms: N2_7  and  C6_8 
REMARK    5  A    between atoms: C9_11  and  O1_12 
REMARK    6  A    between atoms: O1_12  and  C10_13 
REMARK    7  A    between atoms: C10_13  and  C11_14 
ROOT
HETATM    1  N1  UNL     1      21.511   1.059  48.384  1.00  0.00    -0.197 NA
HETATM    2  C1  UNL     1      20.671   1.762  48.698  1.00  0.00     0.059 C 
HETATM    3  C2  UNL     1      19.619   2.656  49.111  1.00  0.00     0.127 C 
ENDROOT
BRANCH   3   4
HETATM    4  C3  UNL     1      18.349   1.966  49.551  1.00  0.00     0.042 C 
BRANCH   4   5
HETATM    5  C4  UNL     1      18.572   0.755  50.337  1.00  0.00    -0.009 C 
HETATM    6  C5  UNL     1      19.118   0.632  51.528  1.00  0.00     0.084 C 
BRANCH   6   7
HETATM    7  N2  UNL     1      19.660   1.585  52.435  1.00  0.00    -0.366 N 
HETATM    8  H7  UNL     1      19.003   2.132  53.027  1.00  0.00     0.165 HD
BRANCH   7   9
HETATM    9  C6  UNL     1      21.093   1.626  52.372  1.00  0.00     0.033 A 
HETATM   10  C7  UNL     1      21.805   0.475  52.637  1.00  0.00     0.032 A 
HETATM   11  C8  UNL     1      23.169   0.538  52.554  1.00  0.00     0.041 A 
HETATM   12  C9  UNL     1      23.877   1.670  52.223  1.00  0.00     0.091 A 
HETATM   13  C17 UNL     1      23.102   2.818  51.962  1.00  0.00     0.069 A 
HETATM   14 CL1  UNL     1      23.717   4.411  51.514  1.00  0.00    -0.081 Cl
HETATM   15  C18 UNL     1      21.716   2.825  52.028  1.00  0.00     0.056 A 
BRANCH  12  16
HETATM   16  O1  UNL     1      25.178   2.019  52.065  1.00  0.00    -0.345 OA
BRANCH  16  17
HETATM   17  C10 UNL     1      26.268   1.400  51.502  1.00  0.00     0.214 C 
BRANCH  17  18
HETATM   18  C11 UNL     1      27.279   1.075  52.533  1.00  0.00    -0.034 A 
HETATM   19  C12 UNL     1      27.886   2.220  53.038  1.00  0.00     0.009 A 
HETATM   20  C13 UNL     1      28.883   2.237  53.999  1.00  0.00     0.001 A 
HETATM   21  C14 UNL     1      29.308   1.018  54.497  1.00  0.00     0.000 A 
HETATM   22  C15 UNL     1      28.728  -0.146  54.020  1.00  0.00     0.001 A 
HETATM   23  C16 UNL     1      27.739  -0.107  53.063  1.00  0.00     0.009 A 
ENDBRANCH  17  18
ENDBRANCH  16  17
ENDBRANCH  12  16
ENDBRANCH   7   9
ENDBRANCH   6   7
ENDBRANCH   4   5
ENDBRANCH   3   4
TORSDOF 7
ENDMDL
MODEL 7
REMARK VINA RESULT:      -6.0      3.704      5.628
REMARK  7 active torsions:
REMARK  status: ('A' for Active; 'I' for Inactive)
REMARK    1  A    between atoms: C2_3  and  C3_4 
REMARK    2  A    between atoms: C3_4  and  C4_5 
REMARK    3  A    between atoms: C5_6  and  N2_7 
REMARK    4  A    between atoms: N2_7  and  C6_8 
REMARK    5  A    between atoms: C9_11  and  O1_12 
REMARK    6  A    between atoms: O1_12  and  C10_13 
REMARK    7  A    between atoms: C10_13  and  C11_14 
ROOT
HETATM    1  N1  UNL     1      17.374  -3.489  53.795  1.00  0.00    -0.197 NA
HETATM    2  C1  UNL     1      17.813  -2.481  53.498  1.00  0.00     0.059 C 
HETATM    3  C2  UNL     1      18.359  -1.197  53.138  1.00  0.00     0.127 C 
ENDROOT
BRANCH   3   4
HETATM    4  C3  UNL     1      17.736  -0.574  51.911  1.00  0.00     0.042 C 
BRANCH   4   5
HETATM    5  C4  UNL     1      18.231   0.767  51.608  1.00  0.00    -0.009 C 
HETATM    6  C5  UNL     1      19.439   1.138  51.239  1.00  0.00     0.084 C 
BRANCH   6   7
HETATM    7  N2  UNL     1      20.637   0.405  51.011  1.00  0.00    -0.366 N 
HETATM    8  H7  UNL     1      20.583  -0.634  50.980  1.00  0.00     0.165 HD
BRANCH   7   9
HETATM    9  C6  UNL     1      21.770   1.271  50.856  1.00  0.00     0.033 A 
HETATM   10  C7  UNL     1      22.755   1.260  51.821  1.00  0.00     0.032 A 
HETATM   11  C8  UNL     1      23.832   2.085  51.640  1.00  0.00     0.041 A 
HETATM   12  C9  UNL     1      23.998   2.922  50.562  1.00  0.00     0.091 A 
HETATM   13  C17 UNL     1      22.963   2.895  49.605  1.00  0.00     0.069 A 
HETATM   14 CL1  UNL     1      22.890   3.850  48.122  1.00  0.00    -0.081 Cl
HETATM   15  C18 UNL     1      21.844   2.084  49.726  1.00  0.00     0.056 A 
BRANCH  12  16
HETATM   16  O1  UNL     1      24.923   3.814  50.128  1.00  0.00    -0.345 OA
BRANCH  16  17
HETATM   17  C10 UNL     1      26.171   3.694  49.567  1.00  0.00     0.214 C 
BRANCH  17  18
HETATM   18  C11 UNL     1      26.621   4.987  49.003  1.00  0.00    -0.034 A 
HETATM   19  C12 UNL     1      27.906   4.900  48.478  1.00  0.00     0.009 A 
HETATM   20  C13 UNL     1      28.605   5.947  47.900  1.00  0.00     0.001 A 
HETATM   21  C14 UNL     1      27.974   7.177  47.838  1.00  0.00     0.000 A 
HETATM   22  C15 UNL     1      26.693   7.304  48.351  1.00  0.00     0.001 A 
HETATM   23  C16 UNL     1      26.042   6.231  48.916  1.00  0.00     0.009 A 
ENDBRANCH  17  18
ENDBRANCH  16  17
ENDBRANCH  12  16
ENDBRANCH   7   9
ENDBRANCH   6   7
ENDBRANCH   4   5
ENDBRANCH   3   4
TORSDOF 7
ENDMDL
MODEL 8
REMARK VINA RESULT:      -6.0      3.922      6.244
REMARK  7 active torsions:
REMARK  status: ('A' for Active; 'I' for Inactive)
REMARK    1  A    between atoms: C2_3  and  C3_4 
REMARK    2  A    between atoms: C3_4  and  C4_5 
REMARK    3  A    between atoms: C5_6  and  N2_7 
REMARK    4  A    between atoms: N2_7  and  C6_8 
REMARK    5  A    between atoms: C9_11  and  O1_12 
REMARK    6  A    between atoms: O1_12  and  C10_13 
REMARK    7  A    between atoms: C10_13  and  C11_14 
ROOT
HETATM    1  N1  UNL     1      24.215   7.686  44.243  1.00  0.00    -0.197 NA
HETATM    2  C1  UNL     1      24.261   7.798  45.376  1.00  0.00     0.059 C 
HETATM    3  C2  UNL     1      24.304   7.953  46.808  1.00  0.00     0.127 C 
ENDROOT
BRANCH   3   4
HETATM    4  C3  UNL     1      25.568   8.599  47.329  1.00  0.00     0.042 C 
BRANCH   4   5
HETATM    5  C4  UNL     1      26.721   7.703  47.365  1.00  0.00    -0.009 C 
HETATM    6  C5  UNL     1      27.189   6.997  48.372  1.00  0.00     0.084 C 
BRANCH   6   7
HETATM    7  N2  UNL     1      26.760   6.857  49.722  1.00  0.00    -0.366 N 
HETATM    8  H7  UNL     1      27.195   7.465  50.445  1.00  0.00     0.165 HD
BRANCH   7   9
HETATM    9  C6  UNL     1      25.749   5.847  49.857  1.00  0.00     0.033 A 
HETATM   10  C7  UNL     1      26.008   4.577  49.387  1.00  0.00     0.032 A 
HETATM   11  C8  UNL     1      25.034   3.630  49.543  1.00  0.00     0.041 A 
HETATM   12  C9  UNL     1      23.814   3.859  50.137  1.00  0.00     0.091 A 
HETATM   13  C17 UNL     1      23.600   5.173  50.600  1.00  0.00     0.069 A 
HETATM   14 CL1  UNL     1      22.145   5.771  51.402  1.00  0.00    -0.081 Cl
HETATM   15  C18 UNL     1      24.545   6.182  50.474  1.00  0.00     0.056 A 
BRANCH  12  16
HETATM   16  O1  UNL     1      22.697   3.145  50.424  1.00  0.00    -0.345 OA
BRANCH  16  17
HETATM   17  C10 UNL     1      22.368   1.815  50.328  1.00  0.00     0.214 C 
BRANCH  17  18
HETATM   18  C11 UNL     1      22.831   1.071  51.522  1.00  0.00    -0.034 A 
HETATM   19  C12 UNL     1      21.854   0.203  51.998  1.00  0.00     0.009 A 
HETATM   20  C13 UNL     1      21.984  -0.612  53.110  1.00  0.00     0.001 A 
HETATM   21  C14 UNL     1      23.182  -0.559  53.802  1.00  0.00     0.000 A 
HETATM   22  C15 UNL     1      24.179   0.293  53.359  1.00  0.00     0.001 A 
HETATM   23  C16 UNL     1      23.999   1.084  52.246  1.00  0.00     0.009 A 
ENDBRANCH  17  18
ENDBRANCH  16  17
ENDBRANCH  12  16
ENDBRANCH   7   9
ENDBRANCH   6   7
ENDBRANCH   4   5
ENDBRANCH   3   4
TORSDOF 7
ENDMDL
MODEL 9
REMARK VINA RESULT:      -5.9      2.324      3.837
REMARK  7 active torsions:
REMARK  status: ('A' for Active; 'I' for Inactive)
REMARK    1  A    between atoms: C2_3  and  C3_4 
REMARK    2  A    between atoms: C3_4  and  C4_5 
REMARK    3  A    between atoms: C5_6  and  N2_7 
REMARK    4  A    between atoms: N2_7  and  C6_8 
REMARK    5  A    between atoms: C9_11  and  O1_12 
REMARK    6  A    between atoms: O1_12  and  C10_13 
REMARK    7  A    between atoms: C10_13  and  C11_14 
ROOT
HETATM    1  N1  UNL     1      22.335   8.750  46.943  1.00  0.00    -0.197 NA
HETATM    2  C1  UNL     1      23.118   7.957  47.181  1.00  0.00     0.059 C 
HETATM    3  C2  UNL     1      24.099   6.941  47.467  1.00  0.00     0.127 C 
ENDROOT
BRANCH   3   4
HETATM    4  C3  UNL     1      23.998   6.349  48.855  1.00  0.00     0.042 C 
BRANCH   4   5
HETATM    5  C4  UNL     1      22.628   6.107  49.300  1.00  0.00    -0.009 C 
HETATM    6  C5  UNL     1      22.191   5.808  50.505  1.00  0.00     0.084 C 
BRANCH   6   7
HETATM    7  N2  UNL     1      22.861   5.623  51.747  1.00  0.00    -0.366 N 
HETATM    8  H7  UNL     1      22.939   6.436  52.392  1.00  0.00     0.165 HD
BRANCH   7   9
HETATM    9  C6  UNL     1      23.336   4.278  51.901  1.00  0.00     0.033 A 
HETATM   10  C7  UNL     1      22.510   3.343  52.486  1.00  0.00     0.032 A 
HETATM   11  C8  UNL     1      22.982   2.064  52.607  1.00  0.00     0.041 A 
HETATM   12  C9  UNL     1      24.223   1.650  52.183  1.00  0.00     0.091 A 
HETATM   13  C17 UNL     1      25.028   2.645  51.592  1.00  0.00     0.069 A 
HETATM   14 CL1  UNL     1      26.659   2.423  50.953  1.00  0.00    -0.081 Cl
HETATM   15  C18 UNL     1      24.612   3.960  51.439  1.00  0.00     0.056 A 
BRANCH  12  16
HETATM   16  O1  UNL     1      24.935   0.496  52.167  1.00  0.00    -0.345 OA
BRANCH  16  17
HETATM   17  C10 UNL     1      25.364  -0.372  53.142  1.00  0.00     0.214 C 
BRANCH  17  18
HETATM   18  C11 UNL     1      26.788  -0.133  53.469  1.00  0.00    -0.034 A 
HETATM   19  C12 UNL     1      27.598  -1.176  53.032  1.00  0.00     0.009 A 
HETATM   20  C13 UNL     1      28.970  -1.249  53.208  1.00  0.00     0.001 A 
HETATM   21  C14 UNL     1      29.584  -0.200  53.871  1.00  0.00     0.000 A 
HETATM   22  C15 UNL     1      28.811   0.857  54.322  1.00  0.00     0.001 A 
HETATM   23  C16 UNL     1      27.449   0.881  54.121  1.00  0.00     0.009 A 
ENDBRANCH  17  18
ENDBRANCH  16  17
ENDBRANCH  12  16
ENDBRANCH   7   9
ENDBRANCH   6   7
ENDBRANCH   4   5
ENDBRANCH   3   4
TORSDOF 7
ENDMDL
