MODEL 1
REMARK VINA RESULT:      -9.0      0.000      0.000
REMARK  0 active torsions:
REMARK  status: ('A' for Active; 'I' for Inactive)
ROOT
HETATM    1  N1  UNL     1      24.969   0.471  52.061  1.00  0.00     0.008 N 
HETATM    2  C1  UNL     1      23.827   1.370  51.902  1.00  0.00     0.167 C 
HETATM    3  C2  UNL     1      22.674   1.175  52.449  1.00  0.00     0.007 C 
HETATM    4  C3  UNL     1      22.905  -0.101  53.215  1.00  0.00     0.010 C 
HETATM    5  C4  UNL     1      22.454  -1.058  54.044  1.00  0.00    -0.025 C 
HETATM    6  C5  UNL     1      21.021  -0.740  54.453  1.00  0.00     0.032 C 
HETATM    7  C6  UNL     1      20.813   0.777  54.266  1.00  0.00     0.044 C 
HETATM    8  C7  UNL     1      21.347   1.116  52.972  1.00  0.00    -0.030 C 
HETATM    9  C8  UNL     1      20.153   1.268  52.244  1.00  0.00     0.101 C 
HETATM   10  N2  UNL     1      20.930   1.468  51.018  1.00  0.00    -0.331 N 
HETATM   11  C9  UNL     1      21.249   0.576  50.096  1.00  0.00     0.094 A 
HETATM   12  C10 UNL     1      22.210   1.349  49.411  1.00  0.00     0.028 A 
HETATM   13  C11 UNL     1      22.330   2.527  49.979  1.00  0.00     0.015 A 
HETATM   14  C12 UNL     1      22.430   3.679  50.553  1.00  0.00     0.161 A 
HETATM   15  N3  UNL     1      22.371   4.797  51.286  1.00  0.00    -0.258 NA
HETATM   16  C13 UNL     1      21.447   4.769  52.323  1.00  0.00     0.226 A 
HETATM   17  N4  UNL     1      21.180   3.589  51.948  1.00  0.00    -0.243 NA
HETATM   18  C14 UNL     1      21.507   2.713  51.058  1.00  0.00     0.196 A 
HETATM   19  C15 UNL     1      23.944   3.534  50.314  1.00  0.00    -0.005 A 
HETATM   20  C16 UNL     1      24.534   4.476  49.567  1.00  0.00     0.011 A 
HETATM   21  C17 UNL     1      25.897   4.333  49.581  1.00  0.00     0.002 A 
HETATM   22  C18 UNL     1      26.564   3.374  50.254  1.00  0.00     0.021 A 
HETATM   23  C19 UNL     1      25.806   2.446  51.000  1.00  0.00     0.041 A 
HETATM   24 BR1  UNL     1      26.962   1.196  51.909  1.00  0.00     0.105 Br
HETATM   25  C20 UNL     1      24.432   2.435  51.098  1.00  0.00     0.028 A 
HETATM   26  H1  UNL     1      24.996  -0.546  51.720  1.00  0.00     0.298 HD
HETATM   27  H2  UNL     1      24.941  -0.522  51.704  1.00  0.00     0.298 HD
ENDROOT
TORSDOF 0
ENDMDL
MODEL 2
REMARK VINA RESULT:      -8.8      1.931      4.928
REMARK  0 active torsions:
REMARK  status: ('A' for Active; 'I' for Inactive)
ROOT
HETATM    1  N1  UNL     1      22.687   0.352  53.919  1.00  0.00     0.008 N 
HETATM    2  C1  UNL     1      22.459   0.967  52.613  1.00  0.00     0.167 C 
HETATM    3  C2  UNL     1      23.366   1.597  51.944  1.00  0.00     0.007 C 
HETATM    4  C3  UNL     1      24.566   1.462  52.844  1.00  0.00     0.010 C 
HETATM    5  C4  UNL     1      25.868   1.687  53.087  1.00  0.00    -0.025 C 
HETATM    6  C5  UNL     1      26.487   2.416  51.901  1.00  0.00     0.032 C 
HETATM    7  C6  UNL     1      25.606   2.125  50.669  1.00  0.00     0.044 C 
HETATM    8  C7  UNL     1      24.238   2.321  51.076  1.00  0.00    -0.030 C 
HETATM    9  C8  UNL     1      23.976   3.563  50.471  1.00  0.00     0.101 C 
HETATM   10  N2  UNL     1      22.656   3.590  51.107  1.00  0.00    -0.331 N 
HETATM   11  C9  UNL     1      22.301   4.187  52.231  1.00  0.00     0.094 A 
HETATM   12  C10 UNL     1      21.042   3.568  52.384  1.00  0.00     0.028 A 
HETATM   13  C11 UNL     1      20.826   2.735  51.392  1.00  0.00     0.015 A 
HETATM   14  C12 UNL     1      20.635   1.923  50.408  1.00  0.00     0.161 A 
HETATM   15  N3  UNL     1      20.638   1.153  49.313  1.00  0.00    -0.258 NA
HETATM   16  C13 UNL     1      21.765   1.279  48.512  1.00  0.00     0.226 A 
HETATM   17  N4  UNL     1      22.183   2.115  49.367  1.00  0.00    -0.243 NA
HETATM   18  C14 UNL     1      21.842   2.683  50.474  1.00  0.00     0.196 A 
HETATM   19  C15 UNL     1      20.031   0.975  51.461  1.00  0.00    -0.005 A 
HETATM   20  C16 UNL     1      18.756   0.607  51.287  1.00  0.00     0.011 A 
HETATM   21  C17 UNL     1      18.399  -0.368  52.182  1.00  0.00     0.002 A 
HETATM   22  C18 UNL     1      19.217  -0.893  53.116  1.00  0.00     0.021 A 
HETATM   23  C19 UNL     1      20.539  -0.403  53.182  1.00  0.00     0.041 A 
HETATM   24 BR1  UNL     1      21.537  -1.318  54.558  1.00  0.00     0.105 Br
HETATM   25  C20 UNL     1      21.069   0.574  52.368  1.00  0.00     0.028 A 
HETATM   26  H1  UNL     1      22.948   0.890  54.810  1.00  0.00     0.298 HD
HETATM   27  H2  UNL     1      22.942   0.931  54.763  1.00  0.00     0.298 HD
ENDROOT
TORSDOF 0
ENDMDL
MODEL 3
REMARK VINA RESULT:      -8.6      1.496      4.825
REMARK  0 active torsions:
REMARK  status: ('A' for Active; 'I' for Inactive)
ROOT
HETATM    1  N1  UNL     1      25.558   3.423  51.286  1.00  0.00     0.008 N 
HETATM    2  C1  UNL     1      24.191   3.120  50.870  1.00  0.00     0.167 C 
HETATM    3  C2  UNL     1      23.538   3.798  49.987  1.00  0.00     0.007 C 
HETATM    4  C3  UNL     1      24.552   4.836  49.581  1.00  0.00     0.010 C 
HETATM    5  C4  UNL     1      24.898   5.888  48.819  1.00  0.00    -0.025 C 
HETATM    6  C5  UNL     1      23.753   6.229  47.875  1.00  0.00     0.032 C 
HETATM    7  C6  UNL     1      22.890   4.961  47.717  1.00  0.00     0.044 C 
HETATM    8  C7  UNL     1      22.678   4.431  49.039  1.00  0.00    -0.030 C 
HETATM    9  C8  UNL     1      21.345   4.826  49.252  1.00  0.00     0.101 C 
HETATM   10  N2  UNL     1      21.416   4.313  50.624  1.00  0.00    -0.331 N 
HETATM   11  C9  UNL     1      21.675   4.981  51.734  1.00  0.00     0.094 A 
HETATM   12  C10 UNL     1      21.879   3.870  52.579  1.00  0.00     0.028 A 
HETATM   13  C11 UNL     1      21.724   2.755  51.902  1.00  0.00     0.015 A 
HETATM   14  C12 UNL     1      21.566   1.672  51.217  1.00  0.00     0.161 A 
HETATM   15  N3  UNL     1      21.354   0.688  50.335  1.00  0.00    -0.258 NA
HETATM   16  C13 UNL     1      21.016   1.111  49.056  1.00  0.00     0.226 A 
HETATM   17  N4  UNL     1      21.128   2.292  49.502  1.00  0.00    -0.243 NA
HETATM   18  C14 UNL     1      21.400   2.941  50.584  1.00  0.00     0.196 A 
HETATM   19  C15 UNL     1      22.776   1.137  52.006  1.00  0.00    -0.005 A 
HETATM   20  C16 UNL     1      22.582   0.038  52.744  1.00  0.00     0.011 A 
HETATM   21  C17 UNL     1      23.767  -0.433  53.246  1.00  0.00     0.002 A 
HETATM   22  C18 UNL     1      24.973   0.129  53.030  1.00  0.00     0.021 A 
HETATM   23  C19 UNL     1      25.022   1.290  52.229  1.00  0.00     0.041 A 
HETATM   24 BR1  UNL     1      26.843   1.896  52.020  1.00  0.00     0.105 Br
HETATM   25  C20 UNL     1      23.936   1.903  51.646  1.00  0.00     0.028 A 
HETATM   26  H1  UNL     1      25.859   4.327  51.780  1.00  0.00     0.298 HD
HETATM   27  H2  UNL     1      25.798   4.330  51.770  1.00  0.00     0.298 HD
ENDROOT
TORSDOF 0
ENDMDL
MODEL 4
REMARK VINA RESULT:      -8.6      6.743     10.779
REMARK  0 active torsions:
REMARK  status: ('A' for Active; 'I' for Inactive)
ROOT
HETATM    1  N1  UNL     1      26.572   9.525  48.956  1.00  0.00     0.008 N 
HETATM    2  C1  UNL     1      27.928   9.045  48.698  1.00  0.00     0.167 C 
HETATM    3  C2  UNL     1      28.955   9.818  48.573  1.00  0.00     0.007 C 
HETATM    4  C3  UNL     1      28.348  11.180  48.784  1.00  0.00     0.010 C 
HETATM    5  C4  UNL     1      28.487  12.512  48.883  1.00  0.00    -0.025 C 
HETATM    6  C5  UNL     1      29.957  12.881  48.731  1.00  0.00     0.032 C 
HETATM    7  C6  UNL     1      30.787  11.633  49.095  1.00  0.00     0.044 C 
HETATM    8  C7  UNL     1      30.189  10.517  48.408  1.00  0.00    -0.030 C 
HETATM    9  C8  UNL     1      31.119  10.340  47.369  1.00  0.00     0.101 C 
HETATM   10  N2  UNL     1      30.264   9.303  46.784  1.00  0.00    -0.331 N 
HETATM   11  C9  UNL     1      29.373   9.427  45.816  1.00  0.00     0.094 A 
HETATM   12  C10 UNL     1      28.743   8.175  45.978  1.00  0.00     0.028 A 
HETATM   13  C11 UNL     1      29.308   7.510  46.960  1.00  0.00     0.015 A 
HETATM   14  C12 UNL     1      29.878   6.875  47.928  1.00  0.00     0.161 A 
HETATM   15  N3  UNL     1      30.606   6.397  48.944  1.00  0.00    -0.258 NA
HETATM   16  C13 UNL     1      31.624   7.235  49.381  1.00  0.00     0.226 A 
HETATM   17  N4  UNL     1      31.229   8.047  48.492  1.00  0.00    -0.243 NA
HETATM   18  C14 UNL     1      30.346   8.173  47.560  1.00  0.00     0.196 A 
HETATM   19  C15 UNL     1      28.455   6.437  48.322  1.00  0.00    -0.005 A 
HETATM   20  C16 UNL     1      28.209   5.122  48.343  1.00  0.00     0.011 A 
HETATM   21  C17 UNL     1      26.974   4.861  48.878  1.00  0.00     0.002 A 
HETATM   22  C18 UNL     1      26.116   5.799  49.327  1.00  0.00     0.021 A 
HETATM   23  C19 UNL     1      26.513   7.150  49.239  1.00  0.00     0.041 A 
HETATM   24 BR1  UNL     1      25.155   8.309  49.972  1.00  0.00     0.105 Br
HETATM   25  C20 UNL     1      27.713   7.596  48.729  1.00  0.00     0.028 A 
HETATM   26  H1  UNL     1      26.006  10.143  48.285  1.00  0.00     0.298 HD
HETATM   27  H2  UNL     1      26.061  10.131  48.259  1.00  0.00     0.298 HD
ENDROOT
TORSDOF 0
ENDMDL
MODEL 5
REMARK VINA RESULT:      -8.3      2.189      3.261
REMARK  0 active torsions:
REMARK  status: ('A' for Active; 'I' for Inactive)
ROOT
HETATM    1  N1  UNL     1      26.749   3.470  49.407  1.00  0.00     0.008 N 
HETATM    2  C1  UNL     1      25.447   3.688  50.035  1.00  0.00     0.167 C 
HETATM    3  C2  UNL     1      24.940   2.910  50.932  1.00  0.00     0.007 C 
HETATM    4  C3  UNL     1      26.021   1.873  51.093  1.00  0.00     0.010 C 
HETATM    5  C4  UNL     1      26.493   0.769  51.695  1.00  0.00    -0.025 C 
HETATM    6  C5  UNL     1      25.499   0.304  52.752  1.00  0.00     0.032 C 
HETATM    7  C6  UNL     1      24.641   1.523  53.148  1.00  0.00     0.044 C 
HETATM    8  C7  UNL     1      24.234   2.165  51.924  1.00  0.00    -0.030 C 
HETATM    9  C8  UNL     1      22.893   1.746  51.861  1.00  0.00     0.101 C 
HETATM   10  N2  UNL     1      22.760   2.384  50.548  1.00  0.00    -0.331 N 
HETATM   11  C9  UNL     1      22.874   1.829  49.354  1.00  0.00     0.094 A 
HETATM   12  C10 UNL     1      22.934   3.020  48.599  1.00  0.00     0.028 A 
HETATM   13  C11 UNL     1      22.853   4.062  49.394  1.00  0.00     0.015 A 
HETATM   14  C12 UNL     1      22.771   5.072  50.194  1.00  0.00     0.161 A 
HETATM   15  N3  UNL     1      22.665   5.963  51.186  1.00  0.00    -0.258 NA
HETATM   16  C13 UNL     1      22.519   5.413  52.454  1.00  0.00     0.226 A 
HETATM   17  N4  UNL     1      22.591   4.283  51.886  1.00  0.00    -0.243 NA
HETATM   18  C14 UNL     1      22.722   3.745  50.720  1.00  0.00     0.196 A 
HETATM   19  C15 UNL     1      23.846   5.717  49.300  1.00  0.00    -0.005 A 
HETATM   20  C16 UNL     1      23.527   6.872  48.704  1.00  0.00     0.011 A 
HETATM   21  C17 UNL     1      24.620   7.427  48.090  1.00  0.00     0.002 A 
HETATM   22  C18 UNL     1      25.856   6.888  48.083  1.00  0.00     0.021 A 
HETATM   23  C19 UNL     1      26.042   5.662  48.755  1.00  0.00     0.041 A 
HETATM   24 BR1  UNL     1      27.886   5.100  48.652  1.00  0.00     0.105 Br
HETATM   25  C20 UNL     1      25.061   4.961  49.422  1.00  0.00     0.028 A 
HETATM   26  H1  UNL     1      26.996   2.626  48.792  1.00  0.00     0.298 HD
HETATM   27  H2  UNL     1      26.936   2.620  48.810  1.00  0.00     0.298 HD
ENDROOT
TORSDOF 0
ENDMDL
MODEL 6
REMARK VINA RESULT:      -8.2      2.270      3.895
REMARK  0 active torsions:
REMARK  status: ('A' for Active; 'I' for Inactive)
ROOT
HETATM    1  N1  UNL     1      20.101  -0.416  52.695  1.00  0.00     0.008 N 
HETATM    2  C1  UNL     1      20.553   0.877  52.185  1.00  0.00     0.167 C 
HETATM    3  C2  UNL     1      19.766   1.768  51.680  1.00  0.00     0.007 C 
HETATM    4  C3  UNL     1      18.420   1.105  51.813  1.00  0.00     0.010 C 
HETATM    5  C4  UNL     1      17.086   1.140  51.654  1.00  0.00    -0.025 C 
HETATM    6  C5  UNL     1      16.679   2.490  51.078  1.00  0.00     0.032 C 
HETATM    7  C6  UNL     1      17.798   3.495  51.420  1.00  0.00     0.044 C 
HETATM    8  C7  UNL     1      19.048   2.855  51.097  1.00  0.00    -0.030 C 
HETATM    9  C8  UNL     1      19.364   3.521  49.900  1.00  0.00     0.101 C 
HETATM   10  N2  UNL     1      20.531   2.651  49.728  1.00  0.00    -0.331 N 
HETATM   11  C9  UNL     1      20.628   1.546  49.009  1.00  0.00     0.094 A 
HETATM   12  C10 UNL     1      21.860   1.093  49.527  1.00  0.00     0.028 A 
HETATM   13  C11 UNL     1      22.307   1.936  50.429  1.00  0.00     0.015 A 
HETATM   14  C12 UNL     1      22.727   2.779  51.312  1.00  0.00     0.161 A 
HETATM   15  N3  UNL     1      22.977   3.770  52.175  1.00  0.00    -0.258 NA
HETATM   16  C13 UNL     1      22.024   4.781  52.198  1.00  0.00     0.226 A 
HETATM   17  N4  UNL     1      21.407   4.110  51.318  1.00  0.00    -0.243 NA
HETATM   18  C14 UNL     1      21.496   3.021  50.631  1.00  0.00     0.196 A 
HETATM   19  C15 UNL     1      23.156   1.538  52.119  1.00  0.00    -0.005 A 
HETATM   20  C16 UNL     1      24.457   1.428  52.416  1.00  0.00     0.011 A 
HETATM   21  C17 UNL     1      24.677   0.387  53.280  1.00  0.00     0.002 A 
HETATM   22  C18 UNL     1      23.717  -0.422  53.772  1.00  0.00     0.021 A 
HETATM   23  C19 UNL     1      22.387  -0.184  53.367  1.00  0.00     0.041 A 
HETATM   24 BR1  UNL     1      21.182  -1.429  54.220  1.00  0.00     0.105 Br
HETATM   25  C20 UNL     1      21.981   0.811  52.505  1.00  0.00     0.028 A 
HETATM   26  H1  UNL     1      19.645  -1.181  52.097  1.00  0.00     0.298 HD
HETATM   27  H2  UNL     1      19.658  -1.133  52.060  1.00  0.00     0.298 HD
ENDROOT
TORSDOF 0
ENDMDL
MODEL 7
REMARK VINA RESULT:      -8.1      4.737      8.565
REMARK  0 active torsions:
REMARK  status: ('A' for Active; 'I' for Inactive)
ROOT
HETATM    1  N1  UNL     1      27.668   4.904  49.318  1.00  0.00     0.008 N 
HETATM    2  C1  UNL     1      27.177   6.069  48.586  1.00  0.00     0.167 C 
HETATM    3  C2  UNL     1      27.933   6.865  47.905  1.00  0.00     0.007 C 
HETATM    4  C3  UNL     1      29.290   6.236  48.087  1.00  0.00     0.010 C 
HETATM    5  C4  UNL     1      30.608   6.221  47.830  1.00  0.00    -0.025 C 
HETATM    6  C5  UNL     1      30.953   7.366  46.885  1.00  0.00     0.032 C 
HETATM    7  C6  UNL     1      29.663   7.747  46.131  1.00  0.00     0.044 C 
HETATM    8  C7  UNL     1      28.614   7.838  47.113  1.00  0.00    -0.030 C 
HETATM    9  C8  UNL     1      28.491   9.235  47.215  1.00  0.00     0.101 C 
HETATM   10  N2  UNL     1      27.519   9.067  48.299  1.00  0.00    -0.331 N 
HETATM   11  C9  UNL     1      27.733   9.102  49.603  1.00  0.00     0.094 A 
HETATM   12  C10 UNL     1      26.486   8.582  50.012  1.00  0.00     0.028 A 
HETATM   13  C11 UNL     1      25.740   8.322  48.963  1.00  0.00     0.015 A 
HETATM   14  C12 UNL     1      25.024   8.075  47.917  1.00  0.00     0.161 A 
HETATM   15  N3  UNL     1      24.458   7.902  46.717  1.00  0.00    -0.258 NA
HETATM   16  C13 UNL     1      25.239   8.296  45.639  1.00  0.00     0.226 A 
HETATM   17  N4  UNL     1      26.122   8.607  46.493  1.00  0.00    -0.243 NA
HETATM   18  C14 UNL     1      26.335   8.622  47.765  1.00  0.00     0.196 A 
HETATM   19  C15 UNL     1      24.592   6.798  48.661  1.00  0.00    -0.005 A 
HETATM   20  C16 UNL     1      23.284   6.652  48.907  1.00  0.00     0.011 A 
HETATM   21  C17 UNL     1      23.013   5.404  49.406  1.00  0.00     0.002 A 
HETATM   22  C18 UNL     1      23.936   4.445  49.624  1.00  0.00     0.021 A 
HETATM   23  C19 UNL     1      25.280   4.745  49.317  1.00  0.00     0.041 A 
HETATM   24 BR1  UNL     1      26.415   3.222  49.667  1.00  0.00     0.105 Br
HETATM   25  C20 UNL     1      25.735   5.943  48.812  1.00  0.00     0.028 A 
HETATM   26  H1  UNL     1      28.345   4.947  50.149  1.00  0.00     0.298 HD
HETATM   27  H2  UNL     1      28.334   5.005  50.130  1.00  0.00     0.298 HD
ENDROOT
TORSDOF 0
ENDMDL
MODEL 8
REMARK VINA RESULT:      -8.0      5.817      9.508
REMARK  0 active torsions:
REMARK  status: ('A' for Active; 'I' for Inactive)
ROOT
HETATM    1  N1  UNL     1      28.269   5.119  49.183  1.00  0.00     0.008 N 
HETATM    2  C1  UNL     1      28.210   6.290  48.310  1.00  0.00     0.167 C 
HETATM    3  C2  UNL     1      29.237   6.797  47.715  1.00  0.00     0.007 C 
HETATM    4  C3  UNL     1      30.341   5.871  48.154  1.00  0.00     0.010 C 
HETATM    5  C4  UNL     1      31.632   5.501  48.117  1.00  0.00    -0.025 C 
HETATM    6  C5  UNL     1      32.396   6.421  47.172  1.00  0.00     0.032 C 
HETATM    7  C6  UNL     1      31.372   7.034  46.195  1.00  0.00     0.044 C 
HETATM    8  C7  UNL     1      30.255   7.483  46.986  1.00  0.00    -0.030 C 
HETATM    9  C8  UNL     1      30.491   8.870  46.981  1.00  0.00     0.101 C 
HETATM   10  N2  UNL     1      29.365   9.061  47.900  1.00  0.00    -0.331 N 
HETATM   11  C9  UNL     1      29.394   9.174  49.216  1.00  0.00     0.094 A 
HETATM   12  C10 UNL     1      28.010   9.026  49.448  1.00  0.00     0.028 A 
HETATM   13  C11 UNL     1      27.377   8.856  48.309  1.00  0.00     0.015 A 
HETATM   14  C12 UNL     1      26.778   8.691  47.178  1.00  0.00     0.161 A 
HETATM   15  N3  UNL     1      26.362   8.544  45.915  1.00  0.00    -0.258 NA
HETATM   16  C13 UNL     1      27.363   8.619  44.956  1.00  0.00     0.226 A 
HETATM   17  N4  UNL     1      28.167   8.784  45.921  1.00  0.00    -0.243 NA
HETATM   18  C14 UNL     1      28.194   8.875  47.208  1.00  0.00     0.196 A 
HETATM   19  C15 UNL     1      25.924   7.645  47.918  1.00  0.00    -0.005 A 
HETATM   20  C16 UNL     1      24.602   7.857  47.956  1.00  0.00     0.011 A 
HETATM   21  C17 UNL     1      23.946   6.774  48.480  1.00  0.00     0.002 A 
HETATM   22  C18 UNL     1      24.543   5.642  48.904  1.00  0.00     0.021 A 
HETATM   23  C19 UNL     1      25.948   5.563  48.803  1.00  0.00     0.041 A 
HETATM   24 BR1  UNL     1      26.581   3.849  49.426  1.00  0.00     0.105 Br
HETATM   25  C20 UNL     1      26.769   6.552  48.306  1.00  0.00     0.028 A 
HETATM   26  H1  UNL     1      28.808   5.075  50.110  1.00  0.00     0.298 HD
HETATM   27  H2  UNL     1      28.816   5.132  50.086  1.00  0.00     0.298 HD
ENDROOT
TORSDOF 0
ENDMDL
MODEL 9
REMARK VINA RESULT:      -7.7      7.330     10.302
REMARK  0 active torsions:
REMARK  status: ('A' for Active; 'I' for Inactive)
ROOT
HETATM    1  N1  UNL     1      30.896   5.329  47.728  1.00  0.00     0.008 N 
HETATM    2  C1  UNL     1      30.495   6.734  47.765  1.00  0.00     0.167 C 
HETATM    3  C2  UNL     1      29.293   7.134  48.013  1.00  0.00     0.007 C 
HETATM    4  C3  UNL     1      28.572   5.832  48.244  1.00  0.00     0.010 C 
HETATM    5  C4  UNL     1      27.449   5.163  48.555  1.00  0.00    -0.025 C 
HETATM    6  C5  UNL     1      26.330   6.157  48.837  1.00  0.00     0.032 C 
HETATM    7  C6  UNL     1      26.988   7.496  49.229  1.00  0.00     0.044 C 
HETATM    8  C7  UNL     1      28.029   7.749  48.267  1.00  0.00    -0.030 C 
HETATM    9  C8  UNL     1      27.409   8.741  47.487  1.00  0.00     0.101 C 
HETATM   10  N2  UNL     1      28.551   8.727  46.568  1.00  0.00    -0.331 N 
HETATM   11  C9  UNL     1      28.676   8.067  45.429  1.00  0.00     0.094 A 
HETATM   12  C10 UNL     1      30.063   8.259  45.253  1.00  0.00     0.028 A 
HETATM   13  C11 UNL     1      30.551   8.964  46.248  1.00  0.00     0.015 A 
HETATM   14  C12 UNL     1      31.008   9.660  47.235  1.00  0.00     0.161 A 
HETATM   15  N3  UNL     1      31.267  10.384  48.329  1.00  0.00    -0.258 NA
HETATM   16  C13 UNL     1      30.161  10.664  49.122  1.00  0.00     0.226 A 
HETATM   17  N4  UNL     1      29.488   9.998  48.280  1.00  0.00    -0.243 NA
HETATM   18  C14 UNL     1      29.617   9.339  47.178  1.00  0.00     0.196 A 
HETATM   19  C15 UNL     1      32.220   8.711  47.187  1.00  0.00    -0.005 A 
HETATM   20  C16 UNL     1      33.418   9.267  46.966  1.00  0.00     0.011 A 
HETATM   21  C17 UNL     1      34.423   8.349  47.126  1.00  0.00     0.002 A 
HETATM   22  C18 UNL     1      34.240   7.056  47.461  1.00  0.00     0.021 A 
HETATM   23  C19 UNL     1      32.916   6.611  47.662  1.00  0.00     0.041 A 
HETATM   24 BR1  UNL     1      32.893   4.749  48.172  1.00  0.00     0.105 Br
HETATM   25  C20 UNL     1      31.786   7.390  47.543  1.00  0.00     0.028 A 
HETATM   26  H1  UNL     1      30.528   4.608  47.024  1.00  0.00     0.298 HD
HETATM   27  H2  UNL     1      30.501   4.663  47.012  1.00  0.00     0.298 HD
ENDROOT
TORSDOF 0
ENDMDL
