MODEL 1
REMARK VINA RESULT:      -8.0      0.000      0.000
REMARK  9 active torsions:
REMARK  status: ('A' for Active; 'I' for Inactive)
REMARK    1  A    between atoms: C5_8  and  O2_9 
REMARK    2  A    between atoms: O2_9  and  C6_10 
REMARK    3  A    between atoms: C6_10  and  C7_11 
REMARK    4  A    between atoms: C7_11  and  C8_12 
REMARK    5  A    between atoms: C8_12  and  N3_13 
REMARK    6  A    between atoms: N3_13  and  C9_14 
REMARK    7  A    between atoms: C9_14  and  C10_15 
REMARK    8  A    between atoms: C14_20  and  N4_21 
REMARK    9  A    between atoms: N4_21  and  C15_22 
ROOT
HETATM    1  C1  UNL     1      22.245  -0.762  53.156  1.00  0.00     0.071 C 
HETATM    2  C2  UNL     1      22.007   0.665  52.766  1.00  0.00     0.043 C 
HETATM    3  N1  UNL     1      20.808   0.809  52.558  1.00  0.00    -0.244 NA
HETATM    4  C3  UNL     1      19.729   1.533  52.224  1.00  0.00     0.262 C 
HETATM    5  N2  UNL     1      19.170   2.732  52.069  1.00  0.00    -0.127 NA
HETATM    6  O1  UNL     1      19.980   3.877  52.352  1.00  0.00    -0.249 OA
HETATM    7  C4  UNL     1      21.240   3.683  52.057  1.00  0.00     0.268 C 
HETATM    8  C5  UNL     1      22.632   3.866  52.130  1.00  0.00     0.073 C 
HETATM    9  C12 UNL     1      23.536   2.871  52.441  1.00  0.00     0.049 C 
HETATM   10  C13 UNL     1      23.213   1.474  52.735  1.00  0.00     0.006 C 
HETATM   11  C14 UNL     1      24.370   0.853  52.993  1.00  0.00     0.101 C 
ENDROOT
BRANCH  11  12
HETATM   12  N4  UNL     1      25.693   1.312  53.047  1.00  0.00    -0.365 N 
HETATM   13  H19 UNL     1      26.054   2.287  52.983  1.00  0.00     0.165 HD
BRANCH  12  14
HETATM   14  C15 UNL     1      26.910   0.611  53.202  1.00  0.00     0.033 A 
HETATM   15  C16 UNL     1      27.923   1.499  53.579  1.00  0.00     0.032 A 
HETATM   16  C17 UNL     1      29.228   1.044  53.796  1.00  0.00     0.046 A 
HETATM   17  C18 UNL     1      29.524  -0.294  53.637  1.00  0.00     0.138 A 
HETATM   18  F1  UNL     1      30.785  -0.762  53.844  1.00  0.00    -0.204 F 
HETATM   19  C19 UNL     1      28.518  -1.144  53.270  1.00  0.00     0.074 A 
HETATM   20 CL1  UNL     1      28.808  -2.851  53.050  1.00  0.00    -0.081 Cl
HETATM   21  C20 UNL     1      27.233  -0.712  53.053  1.00  0.00     0.056 A 
ENDBRANCH  12  14
ENDBRANCH  11  12
BRANCH   8  22
HETATM   22  O2  UNL     1      23.022   5.156  51.859  1.00  0.00    -0.353 OA
BRANCH  22  23
HETATM   23  C6  UNL     1      22.300   5.880  50.891  1.00  0.00     0.177 C 
BRANCH  23  24
HETATM   24  C7  UNL     1      23.222   6.617  49.937  1.00  0.00     0.056 C 
BRANCH  24  25
HETATM   25  C8  UNL     1      24.417   7.179  50.672  1.00  0.00     0.272 C 
BRANCH  25  26
HETATM   26  N3  UNL     1      25.428   6.180  50.843  1.00  0.00     0.089 N 
HETATM   27  H13 UNL     1      26.274   6.617  51.244  1.00  0.00     0.316 HD
BRANCH  26  28
HETATM   28  C9  UNL     1      25.757   5.499  49.630  1.00  0.00     0.336 C 
BRANCH  28  29
HETATM   29  C10 UNL     1      26.221   4.114  49.965  1.00  0.00     0.102 A 
HETATM   30  C11 UNL     1      26.194   2.803  49.674  1.00  0.00     0.176 A 
HETATM   31  O3  UNL     1      26.948   3.246  50.743  1.00  0.00    -0.321 OA
ENDBRANCH  28  29
ENDBRANCH  26  28
ENDBRANCH  25  26
ENDBRANCH  24  25
ENDBRANCH  23  24
ENDBRANCH  22  23
ENDBRANCH   8  22
TORSDOF 9
ENDMDL
MODEL 2
REMARK VINA RESULT:      -7.9      3.727      6.734
REMARK  9 active torsions:
REMARK  status: ('A' for Active; 'I' for Inactive)
REMARK    1  A    between atoms: C5_8  and  O2_9 
REMARK    2  A    between atoms: O2_9  and  C6_10 
REMARK    3  A    between atoms: C6_10  and  C7_11 
REMARK    4  A    between atoms: C7_11  and  C8_12 
REMARK    5  A    between atoms: C8_12  and  N3_13 
REMARK    6  A    between atoms: N3_13  and  C9_14 
REMARK    7  A    between atoms: C9_14  and  C10_15 
REMARK    8  A    between atoms: C14_20  and  N4_21 
REMARK    9  A    between atoms: N4_21  and  C15_22 
ROOT
HETATM    1  C1  UNL     1      24.962  -1.086  55.149  1.00  0.00     0.071 C 
HETATM    2  C2  UNL     1      25.805  -0.107  54.390  1.00  0.00     0.043 C 
HETATM    3  N1  UNL     1      26.930  -0.115  54.877  1.00  0.00    -0.244 NA
HETATM    4  C3  UNL     1      28.206   0.293  54.952  1.00  0.00     0.262 C 
HETATM    5  N2  UNL     1      29.241   0.894  54.368  1.00  0.00    -0.127 NA
HETATM    6  O1  UNL     1      29.051   1.386  53.037  1.00  0.00    -0.249 OA
HETATM    7  C4  UNL     1      27.830   1.807  52.830  1.00  0.00     0.268 C 
HETATM    8  C5  UNL     1      26.677   2.129  52.093  1.00  0.00     0.073 C 
HETATM    9  C12 UNL     1      25.432   1.571  52.303  1.00  0.00     0.049 C 
HETATM   10  C13 UNL     1      25.097   0.569  53.317  1.00  0.00     0.006 C 
HETATM   11  C14 UNL     1      23.796   0.292  53.175  1.00  0.00     0.101 C 
ENDROOT
BRANCH  11  12
HETATM   12  N4  UNL     1      22.830   0.751  52.271  1.00  0.00    -0.365 N 
HETATM   13  H19 UNL     1      22.934   1.418  51.478  1.00  0.00     0.165 HD
BRANCH  12  14
HETATM   14  C15 UNL     1      21.452   0.456  52.160  1.00  0.00     0.033 A 
HETATM   15  C16 UNL     1      21.013  -0.192  53.319  1.00  0.00     0.032 A 
HETATM   16  C17 UNL     1      19.678  -0.589  53.453  1.00  0.00     0.046 A 
HETATM   17  C18 UNL     1      18.782  -0.343  52.434  1.00  0.00     0.138 A 
HETATM   18  F1  UNL     1      17.479  -0.718  52.540  1.00  0.00    -0.204 F 
HETATM   19  C19 UNL     1      19.233   0.293  51.311  1.00  0.00     0.074 A 
HETATM   20 CL1  UNL     1      18.165   0.645  49.977  1.00  0.00    -0.081 Cl
HETATM   21  C20 UNL     1      20.540   0.688  51.165  1.00  0.00     0.056 A 
ENDBRANCH  12  14
ENDBRANCH  11  12
BRANCH   8  22
HETATM   22  O2  UNL     1      26.904   3.073  51.119  1.00  0.00    -0.353 OA
BRANCH  22  23
HETATM   23  C6  UNL     1      26.516   2.774  49.799  1.00  0.00     0.177 C 
BRANCH  23  24
HETATM   24  C7  UNL     1      25.459   3.740  49.293  1.00  0.00     0.056 C 
BRANCH  24  25
HETATM   25  C8  UNL     1      25.935   5.169  49.415  1.00  0.00     0.272 C 
BRANCH  25  26
HETATM   26  N3  UNL     1      25.481   5.756  50.639  1.00  0.00     0.089 N 
HETATM   27  H13 UNL     1      25.817   5.187  51.435  1.00  0.00     0.316 HD
BRANCH  26  28
HETATM   28  C9  UNL     1      24.060   5.895  50.703  1.00  0.00     0.336 C 
BRANCH  28  29
HETATM   29  C10 UNL     1      23.529   4.948  51.735  1.00  0.00     0.102 A 
HETATM   30  C11 UNL     1      23.477   4.584  53.028  1.00  0.00     0.176 A 
HETATM   31  O3  UNL     1      22.774   3.855  52.088  1.00  0.00    -0.321 OA
ENDBRANCH  28  29
ENDBRANCH  26  28
ENDBRANCH  25  26
ENDBRANCH  24  25
ENDBRANCH  23  24
ENDBRANCH  22  23
ENDBRANCH   8  22
TORSDOF 9
ENDMDL
MODEL 3
REMARK VINA RESULT:      -7.6      4.149      6.879
REMARK  9 active torsions:
REMARK  status: ('A' for Active; 'I' for Inactive)
REMARK    1  A    between atoms: C5_8  and  O2_9 
REMARK    2  A    between atoms: O2_9  and  C6_10 
REMARK    3  A    between atoms: C6_10  and  C7_11 
REMARK    4  A    between atoms: C7_11  and  C8_12 
REMARK    5  A    between atoms: C8_12  and  N3_13 
REMARK    6  A    between atoms: N3_13  and  C9_14 
REMARK    7  A    between atoms: C9_14  and  C10_15 
REMARK    8  A    between atoms: C14_20  and  N4_21 
REMARK    9  A    between atoms: N4_21  and  C15_22 
ROOT
HETATM    1  C1  UNL     1      24.971  -1.063  55.196  1.00  0.00     0.071 C 
HETATM    2  C2  UNL     1      25.839  -0.118  54.423  1.00  0.00     0.043 C 
HETATM    3  N1  UNL     1      26.956  -0.126  54.926  1.00  0.00    -0.244 NA
HETATM    4  C3  UNL     1      28.236   0.267  55.008  1.00  0.00     0.262 C 
HETATM    5  N2  UNL     1      29.288   0.837  54.422  1.00  0.00    -0.127 NA
HETATM    6  O1  UNL     1      29.124   1.294  53.076  1.00  0.00    -0.249 OA
HETATM    7  C4  UNL     1      27.912   1.724  52.839  1.00  0.00     0.268 C 
HETATM    8  C5  UNL     1      26.773   2.040  52.076  1.00  0.00     0.073 C 
HETATM    9  C12 UNL     1      25.519   1.504  52.284  1.00  0.00     0.049 C 
HETATM   10  C13 UNL     1      25.156   0.537  53.321  1.00  0.00     0.006 C 
HETATM   11  C14 UNL     1      23.854   0.273  53.168  1.00  0.00     0.101 C 
ENDROOT
BRANCH  11  12
HETATM   12  N4  UNL     1      22.906   0.718  52.236  1.00  0.00    -0.365 N 
HETATM   13  H19 UNL     1      23.034   1.350  51.418  1.00  0.00     0.165 HD
BRANCH  12  14
HETATM   14  C15 UNL     1      21.523   0.452  52.124  1.00  0.00     0.033 A 
HETATM   15  C16 UNL     1      21.070  -0.192  53.280  1.00  0.00     0.032 A 
HETATM   16  C17 UNL     1      19.727  -0.562  53.413  1.00  0.00     0.046 A 
HETATM   17  C18 UNL     1      18.837  -0.293  52.394  1.00  0.00     0.138 A 
HETATM   18  F1  UNL     1      17.526  -0.641  52.499  1.00  0.00    -0.204 F 
HETATM   19  C19 UNL     1      19.301   0.338  51.274  1.00  0.00     0.074 A 
HETATM   20 CL1  UNL     1      18.241   0.718  49.940  1.00  0.00    -0.081 Cl
HETATM   21  C20 UNL     1      20.616   0.707  51.129  1.00  0.00     0.056 A 
ENDBRANCH  12  14
ENDBRANCH  11  12
BRANCH   8  22
HETATM   22  O2  UNL     1      27.028   2.953  51.079  1.00  0.00    -0.353 OA
BRANCH  22  23
HETATM   23  C6  UNL     1      26.129   3.026  49.998  1.00  0.00     0.177 C 
BRANCH  23  24
HETATM   24  C7  UNL     1      25.407   4.361  49.957  1.00  0.00     0.056 C 
BRANCH  24  25
HETATM   25  C8  UNL     1      26.068   5.298  48.972  1.00  0.00     0.272 C 
BRANCH  25  26
HETATM   26  N3  UNL     1      26.765   6.346  49.653  1.00  0.00     0.089 N 
HETATM   27  H13 UNL     1      27.158   5.976  50.536  1.00  0.00     0.316 HD
BRANCH  26  28
HETATM   28  C9  UNL     1      25.945   7.485  49.923  1.00  0.00     0.336 C 
BRANCH  28  29
HETATM   29  C10 UNL     1      26.823   8.693  50.047  1.00  0.00     0.102 A 
HETATM   30  C11 UNL     1      27.983   9.295  49.735  1.00  0.00     0.176 A 
HETATM   31  O3  UNL     1      27.065   9.958  50.527  1.00  0.00    -0.321 OA
ENDBRANCH  28  29
ENDBRANCH  26  28
ENDBRANCH  25  26
ENDBRANCH  24  25
ENDBRANCH  23  24
ENDBRANCH  22  23
ENDBRANCH   8  22
TORSDOF 9
ENDMDL
MODEL 4
REMARK VINA RESULT:      -7.6      3.751      6.423
REMARK  9 active torsions:
REMARK  status: ('A' for Active; 'I' for Inactive)
REMARK    1  A    between atoms: C5_8  and  O2_9 
REMARK    2  A    between atoms: O2_9  and  C6_10 
REMARK    3  A    between atoms: C6_10  and  C7_11 
REMARK    4  A    between atoms: C7_11  and  C8_12 
REMARK    5  A    between atoms: C8_12  and  N3_13 
REMARK    6  A    between atoms: N3_13  and  C9_14 
REMARK    7  A    between atoms: C9_14  and  C10_15 
REMARK    8  A    between atoms: C14_20  and  N4_21 
REMARK    9  A    between atoms: N4_21  and  C15_22 
ROOT
HETATM    1  C1  UNL     1      19.206   0.731  50.902  1.00  0.00     0.071 C 
HETATM    2  C2  UNL     1      20.306   0.322  51.832  1.00  0.00     0.043 C 
HETATM    3  N1  UNL     1      19.816  -0.358  52.726  1.00  0.00    -0.244 NA
HETATM    4  C3  UNL     1      19.884  -1.088  53.851  1.00  0.00     0.262 C 
HETATM    5  N2  UNL     1      20.628  -1.779  54.712  1.00  0.00    -0.127 NA
HETATM    6  O1  UNL     1      22.031  -1.871  54.443  1.00  0.00    -0.249 OA
HETATM    7  C4  UNL     1      22.501  -0.795  53.866  1.00  0.00     0.268 C 
HETATM    8  C5  UNL     1      23.368  -0.020  53.076  1.00  0.00     0.073 C 
HETATM    9  C12 UNL     1      22.977   0.712  51.973  1.00  0.00     0.049 C 
HETATM   10  C13 UNL     1      21.616   0.818  51.447  1.00  0.00     0.006 C 
HETATM   11  C14 UNL     1      21.675   1.611  50.371  1.00  0.00     0.101 C 
ENDROOT
BRANCH  11  12
HETATM   12  N4  UNL     1      22.744   2.253  49.733  1.00  0.00    -0.365 N 
HETATM   13  H19 UNL     1      23.385   1.889  48.997  1.00  0.00     0.165 HD
BRANCH  12  14
HETATM   14  C15 UNL     1      23.266   3.557  49.888  1.00  0.00     0.033 A 
HETATM   15  C16 UNL     1      22.586   4.220  50.914  1.00  0.00     0.032 A 
HETATM   16  C17 UNL     1      22.921   5.533  51.262  1.00  0.00     0.046 A 
HETATM   17  C18 UNL     1      23.932   6.186  50.587  1.00  0.00     0.138 A 
HETATM   18  F1  UNL     1      24.278   7.462  50.906  1.00  0.00    -0.204 F 
HETATM   19  C19 UNL     1      24.584   5.518  49.588  1.00  0.00     0.074 A 
HETATM   20 CL1  UNL     1      25.875   6.270  48.687  1.00  0.00    -0.081 Cl
HETATM   21  C20 UNL     1      24.266   4.229  49.235  1.00  0.00     0.056 A 
ENDBRANCH  12  14
ENDBRANCH  11  12
BRANCH   8  22
HETATM   22  O2  UNL     1      24.672  -0.059  53.509  1.00  0.00    -0.353 OA
BRANCH  22  23
HETATM   23  C6  UNL     1      25.627   0.709  52.816  1.00  0.00     0.177 C 
BRANCH  23  24
HETATM   24  C7  UNL     1      26.599  -0.165  52.044  1.00  0.00     0.056 C 
BRANCH  24  25
HETATM   25  C8  UNL     1      27.240  -1.188  52.953  1.00  0.00     0.272 C 
BRANCH  25  26
HETATM   26  N3  UNL     1      27.605  -0.600  54.206  1.00  0.00     0.089 N 
HETATM   27  H13 UNL     1      27.025   0.241  54.369  1.00  0.00     0.316 HD
BRANCH  26  28
HETATM   28  C9  UNL     1      28.990  -0.261  54.286  1.00  0.00     0.336 C 
BRANCH  28  29
HETATM   29  C10 UNL     1      29.121   1.232  54.321  1.00  0.00     0.102 A 
HETATM   30  C11 UNL     1      28.811   2.415  53.765  1.00  0.00     0.176 A 
HETATM   31  O3  UNL     1      29.609   2.382  54.893  1.00  0.00    -0.321 OA
ENDBRANCH  28  29
ENDBRANCH  26  28
ENDBRANCH  25  26
ENDBRANCH  24  25
ENDBRANCH  23  24
ENDBRANCH  22  23
ENDBRANCH   8  22
TORSDOF 9
ENDMDL
MODEL 5
REMARK VINA RESULT:      -7.5      2.335      3.172
REMARK  9 active torsions:
REMARK  status: ('A' for Active; 'I' for Inactive)
REMARK    1  A    between atoms: C5_8  and  O2_9 
REMARK    2  A    between atoms: O2_9  and  C6_10 
REMARK    3  A    between atoms: C6_10  and  C7_11 
REMARK    4  A    between atoms: C7_11  and  C8_12 
REMARK    5  A    between atoms: C8_12  and  N3_13 
REMARK    6  A    between atoms: N3_13  and  C9_14 
REMARK    7  A    between atoms: C9_14  and  C10_15 
REMARK    8  A    between atoms: C14_20  and  N4_21 
REMARK    9  A    between atoms: N4_21  and  C15_22 
ROOT
HETATM    1  C1  UNL     1      22.010  -1.325  54.844  1.00  0.00     0.071 C 
HETATM    2  C2  UNL     1      21.369  -0.663  53.664  1.00  0.00     0.043 C 
HETATM    3  N1  UNL     1      20.170  -0.917  53.688  1.00  0.00    -0.244 NA
HETATM    4  C3  UNL     1      18.919  -0.843  53.207  1.00  0.00     0.262 C 
HETATM    5  N2  UNL     1      18.042  -0.227  52.417  1.00  0.00    -0.127 NA
HETATM    6  O1  UNL     1      18.510   0.899  51.668  1.00  0.00    -0.249 OA
HETATM    7  C4  UNL     1      19.761   0.775  51.308  1.00  0.00     0.268 C 
HETATM    8  C5  UNL     1      21.048   1.193  50.926  1.00  0.00     0.073 C 
HETATM    9  C12 UNL     1      22.206   0.886  51.612  1.00  0.00     0.049 C 
HETATM   10  C13 UNL     1      22.298   0.079  52.830  1.00  0.00     0.006 C 
HETATM   11  C14 UNL     1      23.591   0.035  53.170  1.00  0.00     0.101 C 
ENDROOT
BRANCH  11  12
HETATM   12  N4  UNL     1      24.734   0.617  52.605  1.00  0.00    -0.365 N 
HETATM   13  H19 UNL     1      24.808   1.270  51.797  1.00  0.00     0.165 HD
BRANCH  12  14
HETATM   14  C15 UNL     1      26.099   0.499  52.949  1.00  0.00     0.033 A 
HETATM   15  C16 UNL     1      26.519  -0.823  52.770  1.00  0.00     0.032 A 
HETATM   16  C17 UNL     1      27.839  -1.197  53.044  1.00  0.00     0.046 A 
HETATM   17  C18 UNL     1      28.740  -0.256  53.498  1.00  0.00     0.138 A 
HETATM   18  F1  UNL     1      30.029  -0.593  53.772  1.00  0.00    -0.204 F 
HETATM   19  C19 UNL     1      28.307   1.031  53.666  1.00  0.00     0.074 A 
HETATM   20 CL1  UNL     1      29.382   2.283  54.234  1.00  0.00    -0.081 Cl
HETATM   21  C20 UNL     1      27.015   1.412  53.400  1.00  0.00     0.056 A 
ENDBRANCH  12  14
ENDBRANCH  11  12
BRANCH   8  22
HETATM   22  O2  UNL     1      21.051   1.954  49.781  1.00  0.00    -0.353 OA
BRANCH  22  23
HETATM   23  C6  UNL     1      21.341   1.317  48.559  1.00  0.00     0.177 C 
BRANCH  23  24
HETATM   24  C7  UNL     1      22.452   2.027  47.806  1.00  0.00     0.056 C 
BRANCH  24  25
HETATM   25  C8  UNL     1      22.811   3.330  48.482  1.00  0.00     0.272 C 
BRANCH  25  26
HETATM   26  N3  UNL     1      23.929   3.158  49.360  1.00  0.00     0.089 N 
HETATM   27  H13 UNL     1      23.735   2.377  50.010  1.00  0.00     0.316 HD
BRANCH  26  28
HETATM   28  C9  UNL     1      24.253   4.338  50.097  1.00  0.00     0.336 C 
BRANCH  28  29
HETATM   29  C10 UNL     1      23.552   4.288  51.420  1.00  0.00     0.102 A 
HETATM   30  C11 UNL     1      23.643   4.133  52.752  1.00  0.00     0.176 A 
HETATM   31  O3  UNL     1      22.407   4.357  52.177  1.00  0.00    -0.321 OA
ENDBRANCH  28  29
ENDBRANCH  26  28
ENDBRANCH  25  26
ENDBRANCH  24  25
ENDBRANCH  23  24
ENDBRANCH  22  23
ENDBRANCH   8  22
TORSDOF 9
ENDMDL
MODEL 6
REMARK VINA RESULT:      -7.4      2.186      5.036
REMARK  9 active torsions:
REMARK  status: ('A' for Active; 'I' for Inactive)
REMARK    1  A    between atoms: C5_8  and  O2_9 
REMARK    2  A    between atoms: O2_9  and  C6_10 
REMARK    3  A    between atoms: C6_10  and  C7_11 
REMARK    4  A    between atoms: C7_11  and  C8_12 
REMARK    5  A    between atoms: C8_12  and  N3_13 
REMARK    6  A    between atoms: N3_13  and  C9_14 
REMARK    7  A    between atoms: C9_14  and  C10_15 
REMARK    8  A    between atoms: C14_20  and  N4_21 
REMARK    9  A    between atoms: N4_21  and  C15_22 
ROOT
HETATM    1  C1  UNL     1      25.305   4.752  49.564  1.00  0.00     0.071 C 
HETATM    2  C2  UNL     1      23.985   4.474  50.215  1.00  0.00     0.043 C 
HETATM    3  N1  UNL     1      23.218   5.385  49.927  1.00  0.00    -0.244 NA
HETATM    4  C3  UNL     1      22.031   6.010  49.967  1.00  0.00     0.262 C 
HETATM    5  N2  UNL     1      20.723   5.948  50.214  1.00  0.00    -0.127 NA
HETATM    6  O1  UNL     1      20.195   4.691  50.648  1.00  0.00    -0.249 OA
HETATM    7  C4  UNL     1      21.046   4.017  51.378  1.00  0.00     0.268 C 
HETATM    8  C5  UNL     1      21.645   2.885  51.959  1.00  0.00     0.073 C 
HETATM    9  C12 UNL     1      22.966   2.523  51.785  1.00  0.00     0.049 C 
HETATM   10  C13 UNL     1      23.959   3.245  50.988  1.00  0.00     0.006 C 
HETATM   11  C14 UNL     1      25.103   2.556  51.076  1.00  0.00     0.101 C 
ENDROOT
BRANCH  11  12
HETATM   12  N4  UNL     1      25.433   1.358  51.724  1.00  0.00    -0.365 N 
HETATM   13  H19 UNL     1      24.874   0.485  51.816  1.00  0.00     0.165 HD
BRANCH  12  14
HETATM   14  C15 UNL     1      26.596   0.979  52.432  1.00  0.00     0.033 A 
HETATM   15  C16 UNL     1      26.784  -0.402  52.327  1.00  0.00     0.032 A 
HETATM   16  C17 UNL     1      27.874  -1.024  52.945  1.00  0.00     0.046 A 
HETATM   17  C18 UNL     1      28.776  -0.271  53.668  1.00  0.00     0.138 A 
HETATM   18  F1  UNL     1      29.844  -0.850  54.278  1.00  0.00    -0.204 F 
HETATM   19  C19 UNL     1      28.572   1.079  53.756  1.00  0.00     0.074 A 
HETATM   20 CL1  UNL     1      29.666   2.104  54.649  1.00  0.00    -0.081 Cl
HETATM   21  C20 UNL     1      27.507   1.703  53.155  1.00  0.00     0.056 A 
ENDBRANCH  12  14
ENDBRANCH  11  12
BRANCH   8  22
HETATM   22  O2  UNL     1      20.777   2.152  52.733  1.00  0.00    -0.353 OA
BRANCH  22  23
HETATM   23  C6  UNL     1      19.625   1.622  52.122  1.00  0.00     0.177 C 
BRANCH  23  24
HETATM   24  C7  UNL     1      19.699   0.111  52.000  1.00  0.00     0.056 C 
BRANCH  24  25
HETATM   25  C8  UNL     1      19.199  -0.555  53.261  1.00  0.00     0.272 C 
BRANCH  25  26
HETATM   26  N3  UNL     1      20.167  -0.454  54.310  1.00  0.00     0.089 N 
HETATM   27  H13 UNL     1      20.675   0.443  54.220  1.00  0.00     0.316 HD
BRANCH  26  28
HETATM   28  C9  UNL     1      21.094  -1.540  54.328  1.00  0.00     0.336 C 
BRANCH  28  29
HETATM   29  C10 UNL     1      22.440  -1.034  53.905  1.00  0.00     0.102 A 
HETATM   30  C11 UNL     1      23.663  -0.613  54.267  1.00  0.00     0.176 A 
HETATM   31  O3  UNL     1      23.330  -0.662  52.927  1.00  0.00    -0.321 OA
ENDBRANCH  28  29
ENDBRANCH  26  28
ENDBRANCH  25  26
ENDBRANCH  24  25
ENDBRANCH  23  24
ENDBRANCH  22  23
ENDBRANCH   8  22
TORSDOF 9
ENDMDL
MODEL 7
REMARK VINA RESULT:      -7.4      2.472      5.002
REMARK  9 active torsions:
REMARK  status: ('A' for Active; 'I' for Inactive)
REMARK    1  A    between atoms: C5_8  and  O2_9 
REMARK    2  A    between atoms: O2_9  and  C6_10 
REMARK    3  A    between atoms: C6_10  and  C7_11 
REMARK    4  A    between atoms: C7_11  and  C8_12 
REMARK    5  A    between atoms: C8_12  and  N3_13 
REMARK    6  A    between atoms: N3_13  and  C9_14 
REMARK    7  A    between atoms: C9_14  and  C10_15 
REMARK    8  A    between atoms: C14_20  and  N4_21 
REMARK    9  A    between atoms: N4_21  and  C15_22 
ROOT
HETATM    1  C1  UNL     1      25.963   4.447  49.689  1.00  0.00     0.071 C 
HETATM    2  C2  UNL     1      24.670   3.691  49.708  1.00  0.00     0.043 C 
HETATM    3  N1  UNL     1      23.955   4.137  48.819  1.00  0.00    -0.244 NA
HETATM    4  C3  UNL     1      22.822   4.179  48.101  1.00  0.00     0.262 C 
HETATM    5  N2  UNL     1      21.695   3.578  47.722  1.00  0.00    -0.127 NA
HETATM    6  O1  UNL     1      21.438   2.272  48.248  1.00  0.00    -0.249 OA
HETATM    7  C4  UNL     1      21.899   2.122  49.463  1.00  0.00     0.268 C 
HETATM    8  C5  UNL     1      22.392   1.438  50.588  1.00  0.00     0.073 C 
HETATM    9  C12 UNL     1      23.620   1.675  51.171  1.00  0.00     0.049 C 
HETATM   10  C13 UNL     1      24.605   2.667  50.736  1.00  0.00     0.006 C 
HETATM   11  C14 UNL     1      25.653   2.563  51.561  1.00  0.00     0.101 C 
ENDROOT
BRANCH  11  12
HETATM   12  N4  UNL     1      25.920   1.709  52.639  1.00  0.00    -0.365 N 
HETATM   13  H19 UNL     1      25.342   1.513  53.482  1.00  0.00     0.165 HD
BRANCH  12  14
HETATM   14  C15 UNL     1      27.029   0.874  52.904  1.00  0.00     0.033 A 
HETATM   15  C16 UNL     1      28.108   1.646  53.347  1.00  0.00     0.032 A 
HETATM   16  C17 UNL     1      29.328   1.047  53.677  1.00  0.00     0.046 A 
HETATM   17  C18 UNL     1      29.475  -0.320  53.565  1.00  0.00     0.138 A 
HETATM   18  F1  UNL     1      30.650  -0.927  53.881  1.00  0.00    -0.204 F 
HETATM   19  C19 UNL     1      28.407  -1.055  53.132  1.00  0.00     0.074 A 
HETATM   20 CL1  UNL     1      28.507  -2.790  52.965  1.00  0.00    -0.081 Cl
HETATM   21  C20 UNL     1      27.203  -0.481  52.804  1.00  0.00     0.056 A 
ENDBRANCH  12  14
ENDBRANCH  11  12
BRANCH   8  22
HETATM   22  O2  UNL     1      21.521   0.488  51.066  1.00  0.00    -0.353 OA
BRANCH  22  23
HETATM   23  C6  UNL     1      20.238   0.904  51.468  1.00  0.00     0.177 C 
BRANCH  23  24
HETATM   24  C7  UNL     1      19.671   0.009  52.555  1.00  0.00     0.056 C 
BRANCH  24  25
HETATM   25  C8  UNL     1      20.266   0.355  53.900  1.00  0.00     0.272 C 
BRANCH  25  26
HETATM   26  N3  UNL     1      20.627  -0.829  54.619  1.00  0.00     0.089 N 
HETATM   27  H13 UNL     1      20.956  -0.566  55.564  1.00  0.00     0.316 HD
BRANCH  26  28
HETATM   28  C9  UNL     1      21.623  -1.609  53.955  1.00  0.00     0.336 C 
BRANCH  28  29
HETATM   29  C10 UNL     1      22.965  -0.990  54.201  1.00  0.00     0.102 A 
HETATM   30  C11 UNL     1      24.091  -0.966  54.933  1.00  0.00     0.176 A 
HETATM   31  O3  UNL     1      23.941  -0.075  53.888  1.00  0.00    -0.321 OA
ENDBRANCH  28  29
ENDBRANCH  26  28
ENDBRANCH  25  26
ENDBRANCH  24  25
ENDBRANCH  23  24
ENDBRANCH  22  23
ENDBRANCH   8  22
TORSDOF 9
ENDMDL
MODEL 8
REMARK VINA RESULT:      -7.2      3.592      6.085
REMARK  9 active torsions:
REMARK  status: ('A' for Active; 'I' for Inactive)
REMARK    1  A    between atoms: C5_8  and  O2_9 
REMARK    2  A    between atoms: O2_9  and  C6_10 
REMARK    3  A    between atoms: C6_10  and  C7_11 
REMARK    4  A    between atoms: C7_11  and  C8_12 
REMARK    5  A    between atoms: C8_12  and  N3_13 
REMARK    6  A    between atoms: N3_13  and  C9_14 
REMARK    7  A    between atoms: C9_14  and  C10_15 
REMARK    8  A    between atoms: C14_20  and  N4_21 
REMARK    9  A    between atoms: N4_21  and  C15_22 
ROOT
HETATM    1  C1  UNL     1      26.300   0.428  53.201  1.00  0.00     0.071 C 
HETATM    2  C2  UNL     1      24.827   0.246  53.403  1.00  0.00     0.043 C 
HETATM    3  N1  UNL     1      24.663  -0.608  54.266  1.00  0.00    -0.244 NA
HETATM    4  C3  UNL     1      23.903  -1.382  55.057  1.00  0.00     0.262 C 
HETATM    5  N2  UNL     1      22.716  -1.617  55.613  1.00  0.00    -0.127 NA
HETATM    6  O1  UNL     1      21.659  -0.697  55.320  1.00  0.00    -0.249 OA
HETATM    7  C4  UNL     1      21.746  -0.206  54.111  1.00  0.00     0.268 C 
HETATM    8  C5  UNL     1      21.555   0.721  53.070  1.00  0.00     0.073 C 
HETATM    9  C12 UNL     1      22.576   1.321  52.361  1.00  0.00     0.049 C 
HETATM   10  C13 UNL     1      24.009   1.097  52.557  1.00  0.00     0.006 C 
HETATM   11  C14 UNL     1      24.648   1.877  51.677  1.00  0.00     0.101 C 
ENDROOT
BRANCH  11  12
HETATM   12  N4  UNL     1      24.187   2.799  50.728  1.00  0.00    -0.365 N 
HETATM   13  H19 UNL     1      23.227   2.925  50.345  1.00  0.00     0.165 HD
BRANCH  12  14
HETATM   14  C15 UNL     1      24.867   3.814  50.019  1.00  0.00     0.033 A 
HETATM   15  C16 UNL     1      23.980   4.850  49.708  1.00  0.00     0.032 A 
HETATM   16  C17 UNL     1      24.416   5.978  49.005  1.00  0.00     0.046 A 
HETATM   17  C18 UNL     1      25.734   6.074  48.610  1.00  0.00     0.138 A 
HETATM   18  F1  UNL     1      26.184   7.161  47.926  1.00  0.00    -0.204 F 
HETATM   19  C19 UNL     1      26.584   5.050  48.925  1.00  0.00     0.074 A 
HETATM   20 CL1  UNL     1      28.267   5.094  48.465  1.00  0.00    -0.081 Cl
HETATM   21  C20 UNL     1      26.171   3.937  49.615  1.00  0.00     0.056 A 
ENDBRANCH  12  14
ENDBRANCH  11  12
BRANCH   8  22
HETATM   22  O2  UNL     1      20.230   0.984  52.817  1.00  0.00    -0.353 OA
BRANCH  22  23
HETATM   23  C6  UNL     1      19.572   0.208  51.844  1.00  0.00     0.177 C 
BRANCH  23  24
HETATM   24  C7  UNL     1      18.466   0.989  51.157  1.00  0.00     0.056 C 
BRANCH  24  25
HETATM   25  C8  UNL     1      18.608   2.469  51.425  1.00  0.00     0.272 C 
BRANCH  25  26
HETATM   26  N3  UNL     1      19.741   3.006  50.734  1.00  0.00     0.089 N 
HETATM   27  H13 UNL     1      19.815   4.018  50.937  1.00  0.00     0.316 HD
BRANCH  26  28
HETATM   28  C9  UNL     1      19.693   2.793  49.322  1.00  0.00     0.336 C 
BRANCH  28  29
HETATM   29  C10 UNL     1      20.954   2.104  48.895  1.00  0.00     0.102 A 
HETATM   30  C11 UNL     1      21.635   0.953  48.766  1.00  0.00     0.176 A 
HETATM   31  O3  UNL     1      22.223   2.139  48.370  1.00  0.00    -0.321 OA
ENDBRANCH  28  29
ENDBRANCH  26  28
ENDBRANCH  25  26
ENDBRANCH  24  25
ENDBRANCH  23  24
ENDBRANCH  22  23
ENDBRANCH   8  22
TORSDOF 9
ENDMDL
MODEL 9
REMARK VINA RESULT:      -7.1      2.161      2.619
REMARK  9 active torsions:
REMARK  status: ('A' for Active; 'I' for Inactive)
REMARK    1  A    between atoms: C5_8  and  O2_9 
REMARK    2  A    between atoms: O2_9  and  C6_10 
REMARK    3  A    between atoms: C6_10  and  C7_11 
REMARK    4  A    between atoms: C7_11  and  C8_12 
REMARK    5  A    between atoms: C8_12  and  N3_13 
REMARK    6  A    between atoms: N3_13  and  C9_14 
REMARK    7  A    between atoms: C9_14  and  C10_15 
REMARK    8  A    between atoms: C14_20  and  N4_21 
REMARK    9  A    between atoms: N4_21  and  C15_22 
ROOT
HETATM    1  C1  UNL     1      20.949   0.232  54.162  1.00  0.00     0.071 C 
HETATM    2  C2  UNL     1      21.456   1.152  53.094  1.00  0.00     0.043 C 
HETATM    3  N1  UNL     1      20.599   2.001  52.882  1.00  0.00    -0.244 NA
HETATM    4  C3  UNL     1      20.115   3.085  52.256  1.00  0.00     0.262 C 
HETATM    5  N2  UNL     1      20.349   4.168  51.518  1.00  0.00    -0.127 NA
HETATM    6  O1  UNL     1      21.705   4.423  51.136  1.00  0.00    -0.249 OA
HETATM    7  C4  UNL     1      22.385   3.323  50.943  1.00  0.00     0.268 C 
HETATM    8  C5  UNL     1      23.520   2.496  50.864  1.00  0.00     0.073 C 
HETATM    9  C12 UNL     1      23.711   1.356  51.617  1.00  0.00     0.049 C 
HETATM   10  C13 UNL     1      22.781   0.810  52.606  1.00  0.00     0.006 C 
HETATM   11  C14 UNL     1      23.351  -0.290  53.111  1.00  0.00     0.101 C 
ENDROOT
BRANCH  11  12
HETATM   12  N4  UNL     1      24.589  -0.902  52.873  1.00  0.00    -0.365 N 
HETATM   13  H19 UNL     1      24.811  -1.729  52.282  1.00  0.00     0.165 HD
BRANCH  12  14
HETATM   14  C15 UNL     1      25.882  -0.590  53.352  1.00  0.00     0.033 A 
HETATM   15  C16 UNL     1      25.796   0.402  54.334  1.00  0.00     0.032 A 
HETATM   16  C17 UNL     1      26.948   0.883  54.965  1.00  0.00     0.046 A 
HETATM   17  C18 UNL     1      28.184   0.379  54.619  1.00  0.00     0.138 A 
HETATM   18  F1  UNL     1      29.319   0.829  55.219  1.00  0.00    -0.204 F 
HETATM   19  C19 UNL     1      28.244  -0.592  53.657  1.00  0.00     0.074 A 
HETATM   20 CL1  UNL     1      29.766  -1.286  53.163  1.00  0.00    -0.081 Cl
HETATM   21  C20 UNL     1      27.122  -1.074  53.029  1.00  0.00     0.056 A 
ENDBRANCH  12  14
ENDBRANCH  11  12
BRANCH   8  22
HETATM   22  O2  UNL     1      24.445   2.937  49.947  1.00  0.00    -0.353 OA
BRANCH  22  23
HETATM   23  C6  UNL     1      25.587   3.608  50.424  1.00  0.00     0.177 C 
BRANCH  23  24
HETATM   24  C7  UNL     1      26.391   4.223  49.293  1.00  0.00     0.056 C 
BRANCH  24  25
HETATM   25  C8  UNL     1      26.192   5.720  49.245  1.00  0.00     0.272 C 
BRANCH  25  26
HETATM   26  N3  UNL     1      27.449   6.404  49.283  1.00  0.00     0.089 N 
HETATM   27  H13 UNL     1      27.296   7.383  49.580  1.00  0.00     0.316 HD
BRANCH  26  28
HETATM   28  C9  UNL     1      28.143   6.375  48.034  1.00  0.00     0.336 C 
BRANCH  28  29
HETATM   29  C10 UNL     1      29.520   5.829  48.259  1.00  0.00     0.102 A 
HETATM   30  C11 UNL     1      30.723   5.524  47.744  1.00  0.00     0.176 A 
HETATM   31  O3  UNL     1      30.478   5.287  49.083  1.00  0.00    -0.321 OA
ENDBRANCH  28  29
ENDBRANCH  26  28
ENDBRANCH  25  26
ENDBRANCH  24  25
ENDBRANCH  23  24
ENDBRANCH  22  23
ENDBRANCH   8  22
TORSDOF 9
ENDMDL
