MODEL 1
REMARK VINA RESULT:      -9.3      0.000      0.000
REMARK  6 active torsions:
REMARK  status: ('A' for Active; 'I' for Inactive)
REMARK    1  A    between atoms: C3_6  and  C4_7 
REMARK    2  A    between atoms: C7_10  and  O1_11 
REMARK    3  A    between atoms: C11_15  and  C12_16 
REMARK    4  A    between atoms: C12_16  and  N4_17 
REMARK    5  A    between atoms: N4_17  and  C13_18 
REMARK    6  A    between atoms: C13_18  and  C14_19 
ROOT
HETATM    1  N1  UNL     1      30.117   0.123  53.470  1.00  0.00    -0.170 NA
HETATM    2  C1  UNL     1      29.059  -0.286  53.702  1.00  0.00     0.208 C 
HETATM    3  N2  UNL     1      27.790  -0.794  53.966  1.00  0.00    -0.155 NA
HETATM    4  C2  UNL     1      26.686  -0.270  53.602  1.00  0.00     0.151 A 
HETATM    5  N3  UNL     1      25.402  -0.845  53.905  1.00  0.00    -0.339 N 
HETATM    6  C3  UNL     1      24.398   0.002  53.351  1.00  0.00     0.045 A 
HETATM    7  C10 UNL     1      24.895   1.064  52.720  1.00  0.00     0.047 A 
HETATM    8  C11 UNL     1      26.335   0.924  52.859  1.00  0.00     0.028 A 
HETATM    9  H1  UNL     1      25.217  -1.724  54.437  1.00  0.00     0.167 HD
ENDROOT
BRANCH   8  10
HETATM   10  C12 UNL     1      27.206   1.779  52.369  1.00  0.00     0.098 C 
BRANCH  10  11
HETATM   11  N4  UNL     1      26.900   2.925  51.594  1.00  0.00    -0.394 N 
HETATM   12  H9  UNL     1      27.028   3.828  52.115  1.00  0.00     0.159 HD
BRANCH  11  13
HETATM   13  C13 UNL     1      26.452   2.792  50.199  1.00  0.00     0.160 C 
BRANCH  13  14
HETATM   14  C14 UNL     1      26.483   4.187  49.659  1.00  0.00    -0.002 A 
HETATM   15  C15 UNL     1      27.522   4.580  48.841  1.00  0.00     0.012 A 
HETATM   16  C16 UNL     1      27.545   5.868  48.346  1.00  0.00     0.001 A 
HETATM   17  C17 UNL     1      26.522   6.733  48.685  1.00  0.00     0.003 A 
HETATM   18  C18 UNL     1      25.478   6.321  49.514  1.00  0.00     0.043 A 
HETATM   19  C19 UNL     1      25.442   5.037  50.016  1.00  0.00     0.124 A 
HETATM   20  F1  UNL     1      24.409   4.685  50.815  1.00  0.00    -0.205 F 
ENDBRANCH  13  14
ENDBRANCH  11  13
ENDBRANCH  10  11
ENDBRANCH   8  10
BRANCH   6  21
HETATM   21  C4  UNL     1      22.969  -0.261  53.461  1.00  0.00    -0.009 A 
HETATM   22  C5  UNL     1      22.462  -1.118  54.416  1.00  0.00     0.016 A 
HETATM   23  C6  UNL     1      21.106  -1.346  54.495  1.00  0.00     0.037 A 
HETATM   24  C7  UNL     1      20.195  -0.762  53.663  1.00  0.00     0.065 A 
HETATM   25  C8  UNL     1      20.681   0.102  52.696  1.00  0.00     0.037 A 
HETATM   26  C9  UNL     1      22.048   0.329  52.620  1.00  0.00     0.016 A 
BRANCH  24  27
HETATM   27  O1  UNL     1      18.824  -0.964  53.707  1.00  0.00    -0.361 OA
HETATM   28  H4  UNL     1      18.408  -1.844  53.903  1.00  0.00     0.217 HD
ENDBRANCH  24  27
ENDBRANCH   6  21
TORSDOF 6
ENDMDL
MODEL 2
REMARK VINA RESULT:      -9.0      3.572      5.319
REMARK  6 active torsions:
REMARK  status: ('A' for Active; 'I' for Inactive)
REMARK    1  A    between atoms: C3_6  and  C4_7 
REMARK    2  A    between atoms: C7_10  and  O1_11 
REMARK    3  A    between atoms: C11_15  and  C12_16 
REMARK    4  A    between atoms: C12_16  and  N4_17 
REMARK    5  A    between atoms: N4_17  and  C13_18 
REMARK    6  A    between atoms: C13_18  and  C14_19 
ROOT
HETATM    1  N1  UNL     1      25.480  -0.960  55.936  1.00  0.00    -0.170 NA
HETATM    2  C1  UNL     1      24.368  -1.237  55.767  1.00  0.00     0.208 C 
HETATM    3  N2  UNL     1      23.039  -1.588  55.555  1.00  0.00    -0.155 NA
HETATM    4  C2  UNL     1      22.265  -1.085  54.674  1.00  0.00     0.151 A 
HETATM    5  N3  UNL     1      20.895  -1.491  54.503  1.00  0.00    -0.339 N 
HETATM    6  C3  UNL     1      20.337  -0.723  53.440  1.00  0.00     0.045 A 
HETATM    7  C10 UNL     1      21.200   0.139  52.905  1.00  0.00     0.047 A 
HETATM    8  C11 UNL     1      22.425  -0.063  53.660  1.00  0.00     0.028 A 
HETATM    9  H1  UNL     1      20.382  -2.218  55.049  1.00  0.00     0.167 HD
ENDROOT
BRANCH   8  10
HETATM   10  C12 UNL     1      23.539   0.604  53.443  1.00  0.00     0.098 C 
BRANCH  10  11
HETATM   11  N4  UNL     1      24.754   0.057  52.962  1.00  0.00    -0.394 N 
HETATM   12  H9  UNL     1      24.792  -0.992  53.019  1.00  0.00     0.159 HD
BRANCH  11  13
HETATM   13  C13 UNL     1      25.819   0.930  52.444  1.00  0.00     0.160 C 
BRANCH  13  14
HETATM   14  C14 UNL     1      27.090   0.271  52.878  1.00  0.00    -0.002 A 
HETATM   15  C15 UNL     1      27.238  -1.093  52.729  1.00  0.00     0.012 A 
HETATM   16  C16 UNL     1      28.413  -1.694  53.132  1.00  0.00     0.001 A 
HETATM   17  C17 UNL     1      29.413  -0.912  53.674  1.00  0.00     0.003 A 
HETATM   18  C18 UNL     1      29.249   0.466  53.818  1.00  0.00     0.043 A 
HETATM   19  C19 UNL     1      28.081   1.082  53.421  1.00  0.00     0.124 A 
HETATM   20  F1  UNL     1      27.969   2.421  53.581  1.00  0.00    -0.205 F 
ENDBRANCH  13  14
ENDBRANCH  11  13
ENDBRANCH  10  11
ENDBRANCH   8  10
BRANCH   6  21
HETATM   21  C4  UNL     1      18.961  -0.859  52.981  1.00  0.00    -0.009 A 
HETATM   22  C5  UNL     1      18.126  -1.840  53.475  1.00  0.00     0.016 A 
HETATM   23  C6  UNL     1      16.831  -1.944  53.022  1.00  0.00     0.037 A 
HETATM   24  C7  UNL     1      16.294  -1.112  52.081  1.00  0.00     0.065 A 
HETATM   25  C8  UNL     1      17.113  -0.118  51.570  1.00  0.00     0.037 A 
HETATM   26  C9  UNL     1      18.418  -0.018  52.031  1.00  0.00     0.016 A 
BRANCH  24  27
HETATM   27  O1  UNL     1      14.997  -1.180  51.596  1.00  0.00    -0.361 OA
HETATM   28  H4  UNL     1      14.772  -1.502  50.683  1.00  0.00     0.217 HD
ENDBRANCH  24  27
ENDBRANCH   6  21
TORSDOF 6
ENDMDL
MODEL 3
REMARK VINA RESULT:      -8.9      3.273      5.247
REMARK  6 active torsions:
REMARK  status: ('A' for Active; 'I' for Inactive)
REMARK    1  A    between atoms: C3_6  and  C4_7 
REMARK    2  A    between atoms: C7_10  and  O1_11 
REMARK    3  A    between atoms: C11_15  and  C12_16 
REMARK    4  A    between atoms: C12_16  and  N4_17 
REMARK    5  A    between atoms: N4_17  and  C13_18 
REMARK    6  A    between atoms: C13_18  and  C14_19 
ROOT
HETATM    1  N1  UNL     1      20.168   3.627  52.341  1.00  0.00    -0.170 NA
HETATM    2  C1  UNL     1      20.868   2.716  52.487  1.00  0.00     0.208 C 
HETATM    3  N2  UNL     1      21.704   1.621  52.683  1.00  0.00    -0.155 NA
HETATM    4  C2  UNL     1      22.980   1.645  52.675  1.00  0.00     0.151 A 
HETATM    5  N3  UNL     1      23.792   0.476  52.887  1.00  0.00    -0.339 N 
HETATM    6  C3  UNL     1      25.159   0.870  52.807  1.00  0.00     0.045 A 
HETATM    7  C10 UNL     1      25.320   2.170  52.567  1.00  0.00     0.047 A 
HETATM    8  C11 UNL     1      23.965   2.689  52.478  1.00  0.00     0.028 A 
HETATM    9  H1  UNL     1      23.459  -0.496  53.067  1.00  0.00     0.167 HD
ENDROOT
BRANCH   8  10
HETATM   10  C12 UNL     1      23.677   3.952  52.247  1.00  0.00     0.098 C 
BRANCH  10  11
HETATM   11  N4  UNL     1      24.294   4.781  51.278  1.00  0.00    -0.394 N 
HETATM   12  H9  UNL     1      24.741   5.640  51.687  1.00  0.00     0.159 HD
BRANCH  11  13
HETATM   13  C13 UNL     1      24.274   4.417  49.853  1.00  0.00     0.160 C 
BRANCH  13  14
HETATM   14  C14 UNL     1      25.522   5.022  49.293  1.00  0.00    -0.002 A 
HETATM   15  C15 UNL     1      25.522   6.342  48.891  1.00  0.00     0.012 A 
HETATM   16  C16 UNL     1      26.676   6.893  48.374  1.00  0.00     0.001 A 
HETATM   17  C17 UNL     1      27.806   6.106  48.272  1.00  0.00     0.003 A 
HETATM   18  C18 UNL     1      27.792   4.772  48.682  1.00  0.00     0.043 A 
HETATM   19  C19 UNL     1      26.646   4.207  49.201  1.00  0.00     0.124 A 
HETATM   20  F1  UNL     1      26.681   2.910  49.585  1.00  0.00    -0.205 F 
ENDBRANCH  13  14
ENDBRANCH  11  13
ENDBRANCH  10  11
ENDBRANCH   8  10
BRANCH   6  21
HETATM   21  C4  UNL     1      26.276  -0.052  52.969  1.00  0.00    -0.009 A 
HETATM   22  C5  UNL     1      27.433   0.320  53.624  1.00  0.00     0.016 A 
HETATM   23  C6  UNL     1      28.471  -0.574  53.762  1.00  0.00     0.037 A 
HETATM   24  C7  UNL     1      28.435  -1.850  53.277  1.00  0.00     0.065 A 
HETATM   25  C8  UNL     1      27.284  -2.246  52.616  1.00  0.00     0.037 A 
HETATM   26  C9  UNL     1      26.240  -1.341  52.480  1.00  0.00     0.016 A 
BRANCH  24  27
HETATM   27  O1  UNL     1      29.456  -2.781  53.392  1.00  0.00    -0.361 OA
HETATM   28  H4  UNL     1      30.414  -2.532  53.478  1.00  0.00     0.217 HD
ENDBRANCH  24  27
ENDBRANCH   6  21
TORSDOF 6
ENDMDL
MODEL 4
REMARK VINA RESULT:      -8.7      3.744      7.584
REMARK  6 active torsions:
REMARK  status: ('A' for Active; 'I' for Inactive)
REMARK    1  A    between atoms: C3_6  and  C4_7 
REMARK    2  A    between atoms: C7_10  and  O1_11 
REMARK    3  A    between atoms: C11_15  and  C12_16 
REMARK    4  A    between atoms: C12_16  and  N4_17 
REMARK    5  A    between atoms: N4_17  and  C13_18 
REMARK    6  A    between atoms: C13_18  and  C14_19 
ROOT
HETATM    1  N1  UNL     1      20.781   0.433  53.750  1.00  0.00    -0.170 NA
HETATM    2  C1  UNL     1      21.207   1.262  53.063  1.00  0.00     0.208 C 
HETATM    3  N2  UNL     1      21.711   2.248  52.220  1.00  0.00    -0.155 NA
HETATM    4  C2  UNL     1      22.939   2.414  51.916  1.00  0.00     0.151 A 
HETATM    5  N3  UNL     1      23.400   3.454  51.036  1.00  0.00    -0.339 N 
HETATM    6  C3  UNL     1      24.817   3.344  50.927  1.00  0.00     0.045 A 
HETATM    7  C10 UNL     1      25.323   2.342  51.643  1.00  0.00     0.047 A 
HETATM    8  C11 UNL     1      24.166   1.735  52.280  1.00  0.00     0.028 A 
HETATM    9  H1  UNL     1      22.817   4.173  50.553  1.00  0.00     0.167 HD
ENDROOT
BRANCH   8  10
HETATM   10  C12 UNL     1      24.233   0.697  53.086  1.00  0.00     0.098 C 
BRANCH  10  11
HETATM   11  N4  UNL     1      25.421   0.094  53.569  1.00  0.00    -0.394 N 
HETATM   12  H9  UNL     1      25.735   0.475  54.497  1.00  0.00     0.159 HD
BRANCH  11  13
HETATM   13  C13 UNL     1      26.099  -0.958  52.796  1.00  0.00     0.160 C 
BRANCH  13  14
HETATM   14  C14 UNL     1      27.551  -0.778  53.108  1.00  0.00    -0.002 A 
HETATM   15  C15 UNL     1      28.030   0.475  53.431  1.00  0.00     0.012 A 
HETATM   16  C16 UNL     1      29.370   0.635  53.717  1.00  0.00     0.001 A 
HETATM   17  C17 UNL     1      30.200  -0.469  53.673  1.00  0.00     0.003 A 
HETATM   18  C18 UNL     1      29.701  -1.729  53.343  1.00  0.00     0.043 A 
HETATM   19  C19 UNL     1      28.364  -1.904  53.055  1.00  0.00     0.124 A 
HETATM   20  F1  UNL     1      27.928  -3.146  52.741  1.00  0.00    -0.205 F 
ENDBRANCH  13  14
ENDBRANCH  11  13
ENDBRANCH  10  11
ENDBRANCH   8  10
BRANCH   6  21
HETATM   21  C4  UNL     1      25.637   4.235  50.116  1.00  0.00    -0.009 A 
HETATM   22  C5  UNL     1      26.761   3.783  49.455  1.00  0.00     0.016 A 
HETATM   23  C6  UNL     1      27.515   4.650  48.696  1.00  0.00     0.037 A 
HETATM   24  C7  UNL     1      27.217   5.974  48.547  1.00  0.00     0.065 A 
HETATM   25  C8  UNL     1      26.094   6.450  49.201  1.00  0.00     0.037 A 
HETATM   26  C9  UNL     1      25.336   5.573  49.965  1.00  0.00     0.016 A 
BRANCH  24  27
HETATM   27  O1  UNL     1      27.949   6.881  47.794  1.00  0.00    -0.361 OA
HETATM   28  H4  UNL     1      27.611   7.291  46.955  1.00  0.00     0.217 HD
ENDBRANCH  24  27
ENDBRANCH   6  21
TORSDOF 6
ENDMDL
MODEL 5
REMARK VINA RESULT:      -8.7      4.033      7.763
REMARK  6 active torsions:
REMARK  status: ('A' for Active; 'I' for Inactive)
REMARK    1  A    between atoms: C3_6  and  C4_7 
REMARK    2  A    between atoms: C7_10  and  O1_11 
REMARK    3  A    between atoms: C11_15  and  C12_16 
REMARK    4  A    between atoms: C12_16  and  N4_17 
REMARK    5  A    between atoms: N4_17  and  C13_18 
REMARK    6  A    between atoms: C13_18  and  C14_19 
ROOT
HETATM    1  N1  UNL     1      20.042   3.027  52.680  1.00  0.00    -0.170 NA
HETATM    2  C1  UNL     1      20.898   3.728  52.340  1.00  0.00     0.208 C 
HETATM    3  N2  UNL     1      21.915   4.580  51.918  1.00  0.00    -0.155 NA
HETATM    4  C2  UNL     1      22.890   4.261  51.161  1.00  0.00     0.151 A 
HETATM    5  N3  UNL     1      23.912   5.191  50.758  1.00  0.00    -0.339 N 
HETATM    6  C3  UNL     1      24.836   4.495  49.924  1.00  0.00     0.045 A 
HETATM    7  C10 UNL     1      24.520   3.214  49.744  1.00  0.00     0.047 A 
HETATM    8  C11 UNL     1      23.299   3.033  50.510  1.00  0.00     0.028 A 
HETATM    9  H1  UNL     1      23.983   6.199  51.019  1.00  0.00     0.167 HD
ENDROOT
BRANCH   8  10
HETATM   10  C12 UNL     1      22.650   1.892  50.598  1.00  0.00     0.098 C 
BRANCH  10  11
HETATM   11  N4  UNL     1      22.932   0.843  51.507  1.00  0.00    -0.394 N 
HETATM   12  H9  UNL     1      22.841  -0.114  51.082  1.00  0.00     0.159 HD
BRANCH  11  13
HETATM   13  C13 UNL     1      23.312   1.134  52.898  1.00  0.00     0.160 C 
BRANCH  13  14
HETATM   14  C14 UNL     1      24.807   1.098  52.896  1.00  0.00    -0.002 A 
HETATM   15  C15 UNL     1      25.463  -0.024  52.433  1.00  0.00     0.012 A 
HETATM   16  C16 UNL     1      26.843  -0.051  52.435  1.00  0.00     0.001 A 
HETATM   17  C17 UNL     1      27.533   1.051  52.901  1.00  0.00     0.003 A 
HETATM   18  C18 UNL     1      26.856   2.178  53.366  1.00  0.00     0.043 A 
HETATM   19  C19 UNL     1      25.477   2.220  53.371  1.00  0.00     0.124 A 
HETATM   20  F1  UNL     1      24.866   3.336  53.832  1.00  0.00    -0.205 F 
ENDBRANCH  13  14
ENDBRANCH  11  13
ENDBRANCH  10  11
ENDBRANCH   8  10
BRANCH   6  21
HETATM   21  C4  UNL     1      26.011   5.117  49.326  1.00  0.00    -0.009 A 
HETATM   22  C5  UNL     1      27.143   4.387  49.029  1.00  0.00     0.016 A 
HETATM   23  C6  UNL     1      28.238   5.002  48.464  1.00  0.00     0.037 A 
HETATM   24  C7  UNL     1      28.282   6.334  48.167  1.00  0.00     0.065 A 
HETATM   25  C8  UNL     1      27.157   7.087  48.456  1.00  0.00     0.037 A 
HETATM   26  C9  UNL     1      26.056   6.463  49.026  1.00  0.00     0.016 A 
BRANCH  24  27
HETATM   27  O1  UNL     1      29.362   6.994  47.599  1.00  0.00    -0.361 OA
HETATM   28  H4  UNL     1      29.305   7.914  47.229  1.00  0.00     0.217 HD
ENDBRANCH  24  27
ENDBRANCH   6  21
TORSDOF 6
ENDMDL
MODEL 6
REMARK VINA RESULT:      -8.6      3.980      7.520
REMARK  6 active torsions:
REMARK  status: ('A' for Active; 'I' for Inactive)
REMARK    1  A    between atoms: C3_6  and  C4_7 
REMARK    2  A    between atoms: C7_10  and  O1_11 
REMARK    3  A    between atoms: C11_15  and  C12_16 
REMARK    4  A    between atoms: C12_16  and  N4_17 
REMARK    5  A    between atoms: N4_17  and  C13_18 
REMARK    6  A    between atoms: C13_18  and  C14_19 
ROOT
HETATM    1  N1  UNL     1      21.410   5.736  51.193  1.00  0.00    -0.170 NA
HETATM    2  C1  UNL     1      22.405   5.334  51.630  1.00  0.00     0.208 C 
HETATM    3  N2  UNL     1      23.611   4.862  52.139  1.00  0.00    -0.155 NA
HETATM    4  C2  UNL     1      24.047   3.668  52.039  1.00  0.00     0.151 A 
HETATM    5  N3  UNL     1      25.307   3.239  52.588  1.00  0.00    -0.339 N 
HETATM    6  C3  UNL     1      25.467   1.854  52.292  1.00  0.00     0.045 A 
HETATM    7  C10 UNL     1      24.446   1.340  51.610  1.00  0.00     0.047 A 
HETATM    8  C11 UNL     1      23.533   2.456  51.433  1.00  0.00     0.028 A 
HETATM    9  H1  UNL     1      25.994   3.823  53.113  1.00  0.00     0.167 HD
ENDROOT
BRANCH   8  10
HETATM   10  C12 UNL     1      22.382   2.370  50.800  1.00  0.00     0.098 C 
BRANCH  10  11
HETATM   11  N4  UNL     1      21.214   1.731  51.283  1.00  0.00    -0.394 N 
HETATM   12  H9  UNL     1      20.742   1.125  50.566  1.00  0.00     0.159 HD
BRANCH  11  13
HETATM   13  C13 UNL     1      20.760   1.938  52.667  1.00  0.00     0.160 C 
BRANCH  13  14
HETATM   14  C14 UNL     1      20.944   0.609  53.328  1.00  0.00    -0.002 A 
HETATM   15  C15 UNL     1      22.105   0.349  54.027  1.00  0.00     0.012 A 
HETATM   16  C16 UNL     1      22.269  -0.880  54.633  1.00  0.00     0.001 A 
HETATM   17  C17 UNL     1      21.263  -1.819  54.524  1.00  0.00     0.003 A 
HETATM   18  C18 UNL     1      20.095  -1.542  53.814  1.00  0.00     0.043 A 
HETATM   19  C19 UNL     1      19.917  -0.319  53.202  1.00  0.00     0.124 A 
HETATM   20  F1  UNL     1      18.766  -0.097  52.524  1.00  0.00    -0.205 F 
ENDBRANCH  13  14
ENDBRANCH  11  13
ENDBRANCH  10  11
ENDBRANCH   8  10
BRANCH   6  21
HETATM   21  C4  UNL     1      26.629   1.072  52.695  1.00  0.00    -0.009 A 
HETATM   22  C5  UNL     1      27.761   1.670  53.211  1.00  0.00     0.016 A 
HETATM   23  C6  UNL     1      28.843   0.904  53.583  1.00  0.00     0.037 A 
HETATM   24  C7  UNL     1      28.875  -0.457  53.471  1.00  0.00     0.065 A 
HETATM   25  C8  UNL     1      27.751  -1.079  52.955  1.00  0.00     0.037 A 
HETATM   26  C9  UNL     1      26.663  -0.303  52.582  1.00  0.00     0.016 A 
BRANCH  24  27
HETATM   27  O1  UNL     1      29.943  -1.266  53.832  1.00  0.00    -0.361 OA
HETATM   28  H4  UNL     1      30.891  -1.029  53.653  1.00  0.00     0.217 HD
ENDBRANCH  24  27
ENDBRANCH   6  21
TORSDOF 6
ENDMDL
MODEL 7
REMARK VINA RESULT:      -8.5      3.999      5.733
REMARK  6 active torsions:
REMARK  status: ('A' for Active; 'I' for Inactive)
REMARK    1  A    between atoms: C3_6  and  C4_7 
REMARK    2  A    between atoms: C7_10  and  O1_11 
REMARK    3  A    between atoms: C11_15  and  C12_16 
REMARK    4  A    between atoms: C12_16  and  N4_17 
REMARK    5  A    between atoms: N4_17  and  C13_18 
REMARK    6  A    between atoms: C13_18  and  C14_19 
ROOT
HETATM    1  N1  UNL     1      21.631   5.708  51.360  1.00  0.00    -0.170 NA
HETATM    2  C1  UNL     1      22.384   5.076  51.972  1.00  0.00     0.208 C 
HETATM    3  N2  UNL     1      23.300   4.335  52.713  1.00  0.00    -0.155 NA
HETATM    4  C2  UNL     1      24.213   3.583  52.235  1.00  0.00     0.151 A 
HETATM    5  N3  UNL     1      25.133   2.840  53.055  1.00  0.00    -0.339 N 
HETATM    6  C3  UNL     1      26.003   2.113  52.192  1.00  0.00     0.045 A 
HETATM    7  C10 UNL     1      25.746   2.306  50.899  1.00  0.00     0.047 A 
HETATM    8  C11 UNL     1      24.622   3.228  50.891  1.00  0.00     0.028 A 
HETATM    9  H1  UNL     1      25.172   2.822  54.098  1.00  0.00     0.167 HD
ENDROOT
BRANCH   8  10
HETATM   10  C12 UNL     1      24.052   3.680  49.795  1.00  0.00     0.098 C 
BRANCH  10  11
HETATM   11  N4  UNL     1      24.611   4.619  48.894  1.00  0.00    -0.394 N 
HETATM   12  H9  UNL     1      24.665   4.269  47.904  1.00  0.00     0.159 HD
BRANCH  11  13
HETATM   13  C13 UNL     1      25.054   5.941  49.363  1.00  0.00     0.160 C 
BRANCH  13  14
HETATM   14  C14 UNL     1      26.415   6.116  48.768  1.00  0.00    -0.002 A 
HETATM   15  C15 UNL     1      27.334   5.090  48.849  1.00  0.00     0.012 A 
HETATM   16  C16 UNL     1      28.588   5.258  48.298  1.00  0.00     0.001 A 
HETATM   17  C17 UNL     1      28.890   6.455  47.677  1.00  0.00     0.003 A 
HETATM   18  C18 UNL     1      27.951   7.483  47.603  1.00  0.00     0.043 A 
HETATM   19  C19 UNL     1      26.694   7.330  48.150  1.00  0.00     0.124 A 
HETATM   20  F1  UNL     1      25.818   8.356  48.052  1.00  0.00    -0.205 F 
ENDBRANCH  13  14
ENDBRANCH  11  13
ENDBRANCH  10  11
ENDBRANCH   8  10
BRANCH   6  21
HETATM   21  C4  UNL     1      27.071   1.242  52.668  1.00  0.00    -0.009 A 
HETATM   22  C5  UNL     1      28.236   1.751  53.203  1.00  0.00     0.016 A 
HETATM   23  C6  UNL     1      29.226   0.903  53.645  1.00  0.00     0.037 A 
HETATM   24  C7  UNL     1      29.132  -0.458  53.587  1.00  0.00     0.065 A 
HETATM   25  C8  UNL     1      27.971  -0.993  53.054  1.00  0.00     0.037 A 
HETATM   26  C9  UNL     1      26.976  -0.133  52.610  1.00  0.00     0.016 A 
BRANCH  24  27
HETATM   27  O1  UNL     1      30.103  -1.349  54.019  1.00  0.00    -0.361 OA
HETATM   28  H4  UNL     1      30.058  -1.826  54.889  1.00  0.00     0.217 HD
ENDBRANCH  24  27
ENDBRANCH   6  21
TORSDOF 6
ENDMDL
MODEL 8
REMARK VINA RESULT:      -8.2      1.948      2.878
REMARK  6 active torsions:
REMARK  status: ('A' for Active; 'I' for Inactive)
REMARK    1  A    between atoms: C3_6  and  C4_7 
REMARK    2  A    between atoms: C7_10  and  O1_11 
REMARK    3  A    between atoms: C11_15  and  C12_16 
REMARK    4  A    between atoms: C12_16  and  N4_17 
REMARK    5  A    between atoms: N4_17  and  C13_18 
REMARK    6  A    between atoms: C13_18  and  C14_19 
ROOT
HETATM    1  N1  UNL     1      28.616   0.308  54.303  1.00  0.00    -0.170 NA
HETATM    2  C1  UNL     1      27.527  -0.046  54.477  1.00  0.00     0.208 C 
HETATM    3  N2  UNL     1      26.224  -0.491  54.679  1.00  0.00    -0.155 NA
HETATM    4  C2  UNL     1      25.208  -0.168  53.978  1.00  0.00     0.151 A 
HETATM    5  N3  UNL     1      23.882  -0.663  54.237  1.00  0.00    -0.339 N 
HETATM    6  C3  UNL     1      23.003  -0.096  53.269  1.00  0.00     0.045 A 
HETATM    7  C10 UNL     1      23.619   0.714  52.410  1.00  0.00     0.047 A 
HETATM    8  C11 UNL     1      25.011   0.692  52.829  1.00  0.00     0.028 A 
HETATM    9  H1  UNL     1      23.593  -1.321  54.995  1.00  0.00     0.167 HD
ENDROOT
BRANCH   8  10
HETATM   10  C12 UNL     1      25.967   1.371  52.233  1.00  0.00     0.098 C 
BRANCH  10  11
HETATM   11  N4  UNL     1      26.018   2.778  52.084  1.00  0.00    -0.394 N 
HETATM   12  H9  UNL     1      26.336   3.280  52.951  1.00  0.00     0.159 HD
BRANCH  11  13
HETATM   13  C13 UNL     1      25.649   3.414  50.809  1.00  0.00     0.160 C 
BRANCH  13  14
HETATM   14  C14 UNL     1      24.197   3.740  50.958  1.00  0.00    -0.002 A 
HETATM   15  C15 UNL     1      23.754   4.385  52.095  1.00  0.00     0.012 A 
HETATM   16  C16 UNL     1      22.413   4.683  52.226  1.00  0.00     0.001 A 
HETATM   17  C17 UNL     1      21.546   4.326  51.212  1.00  0.00     0.003 A 
HETATM   18  C18 UNL     1      22.008   3.673  50.069  1.00  0.00     0.043 A 
HETATM   19  C19 UNL     1      23.345   3.368  49.923  1.00  0.00     0.124 A 
HETATM   20  F1  UNL     1      23.745   2.735  48.796  1.00  0.00    -0.205 F 
ENDBRANCH  13  14
ENDBRANCH  11  13
ENDBRANCH  10  11
ENDBRANCH   8  10
BRANCH   6  21
HETATM   21  C4  UNL     1      21.572  -0.369  53.218  1.00  0.00    -0.009 A 
HETATM   22  C5  UNL     1      20.734   0.320  52.365  1.00  0.00     0.016 A 
HETATM   23  C6  UNL     1      19.387   0.039  52.340  1.00  0.00     0.037 A 
HETATM   24  C7  UNL     1      18.800  -0.908  53.130  1.00  0.00     0.065 A 
HETATM   25  C8  UNL     1      19.622  -1.612  53.994  1.00  0.00     0.037 A 
HETATM   26  C9  UNL     1      20.979  -1.326  54.016  1.00  0.00     0.016 A 
BRANCH  24  27
HETATM   27  O1  UNL     1      17.449  -1.222  53.137  1.00  0.00    -0.361 OA
HETATM   28  H4  UNL     1      17.055  -1.922  53.722  1.00  0.00     0.217 HD
ENDBRANCH  24  27
ENDBRANCH   6  21
TORSDOF 6
ENDMDL
MODEL 9
REMARK VINA RESULT:      -8.2      2.724      5.266
REMARK  6 active torsions:
REMARK  status: ('A' for Active; 'I' for Inactive)
REMARK    1  A    between atoms: C3_6  and  C4_7 
REMARK    2  A    between atoms: C7_10  and  O1_11 
REMARK    3  A    between atoms: C11_15  and  C12_16 
REMARK    4  A    between atoms: C12_16  and  N4_17 
REMARK    5  A    between atoms: N4_17  and  C13_18 
REMARK    6  A    between atoms: C13_18  and  C14_19 
ROOT
HETATM    1  N1  UNL     1      24.770   5.340  49.045  1.00  0.00    -0.170 NA
HETATM    2  C1  UNL     1      23.922   4.570  49.213  1.00  0.00     0.208 C 
HETATM    3  N2  UNL     1      22.888   3.660  49.414  1.00  0.00    -0.155 NA
HETATM    4  C2  UNL     1      22.674   2.999  50.484  1.00  0.00     0.151 A 
HETATM    5  N3  UNL     1      21.585   2.070  50.633  1.00  0.00    -0.339 N 
HETATM    6  C3  UNL     1      21.654   1.517  51.944  1.00  0.00     0.045 A 
HETATM    7  C10 UNL     1      22.673   1.987  52.661  1.00  0.00     0.047 A 
HETATM    8  C11 UNL     1      23.337   2.924  51.771  1.00  0.00     0.028 A 
HETATM    9  H1  UNL     1      20.861   1.831  49.920  1.00  0.00     0.167 HD
ENDROOT
BRANCH   8  10
HETATM   10  C12 UNL     1      24.408   3.615  52.098  1.00  0.00     0.098 C 
BRANCH  10  11
HETATM   11  N4  UNL     1      25.657   3.076  52.492  1.00  0.00    -0.394 N 
HETATM   12  H9  UNL     1      25.856   3.189  53.518  1.00  0.00     0.159 HD
BRANCH  11  13
HETATM   13  C13 UNL     1      26.542   2.432  51.509  1.00  0.00     0.160 C 
BRANCH  13  14
HETATM   14  C14 UNL     1      27.152   1.283  52.247  1.00  0.00    -0.002 A 
HETATM   15  C15 UNL     1      26.678   0.005  52.035  1.00  0.00     0.012 A 
HETATM   16  C16 UNL     1      27.245  -1.051  52.720  1.00  0.00     0.001 A 
HETATM   17  C17 UNL     1      28.276  -0.799  53.602  1.00  0.00     0.003 A 
HETATM   18  C18 UNL     1      28.745   0.499  53.807  1.00  0.00     0.043 A 
HETATM   19  C19 UNL     1      28.189   1.564  53.131  1.00  0.00     0.124 A 
HETATM   20  F1  UNL     1      28.678   2.804  53.363  1.00  0.00    -0.205 F 
ENDBRANCH  13  14
ENDBRANCH  11  13
ENDBRANCH  10  11
ENDBRANCH   8  10
BRANCH   6  21
HETATM   21  C4  UNL     1      20.710   0.532  52.456  1.00  0.00    -0.009 A 
HETATM   22  C5  UNL     1      19.432   0.421  51.947  1.00  0.00     0.016 A 
HETATM   23  C6  UNL     1      18.562  -0.519  52.452  1.00  0.00     0.037 A 
HETATM   24  C7  UNL     1      18.888  -1.382  53.459  1.00  0.00     0.065 A 
HETATM   25  C8  UNL     1      20.165  -1.290  53.986  1.00  0.00     0.037 A 
HETATM   26  C9  UNL     1      21.038  -0.340  53.474  1.00  0.00     0.016 A 
BRANCH  24  27
HETATM   27  O1  UNL     1      18.044  -2.342  53.997  1.00  0.00    -0.361 OA
HETATM   28  H4  UNL     1      17.135  -2.139  54.341  1.00  0.00     0.217 HD
ENDBRANCH  24  27
ENDBRANCH   6  21
TORSDOF 6
ENDMDL
