MODEL 1
REMARK VINA RESULT:      -8.3      0.000      0.000
REMARK  4 active torsions:
REMARK  status: ('A' for Active; 'I' for Inactive)
REMARK    1  A    between atoms: C2_2  and  C3_3 
REMARK    2  A    between atoms: C9_9  and  N1_10 
REMARK    3  A    between atoms: N1_10  and  C10_11 
REMARK    4  A    between atoms: C15_16  and  O1_17 
ROOT
HETATM    1  C3  UNL     1      21.752   1.693  51.344  1.00  0.00     0.065 C 
HETATM    2  C4  UNL     1      20.963   1.689  52.693  1.00  0.00     0.009 C 
HETATM    3  C5  UNL     1      21.301   0.383  52.720  1.00  0.00    -0.001 C 
HETATM    4  C6  UNL     1      22.499  -0.264  52.232  1.00  0.00     0.030 C 
HETATM    5  C7  UNL     1      22.894   0.946  51.905  1.00  0.00    -0.042 C 
HETATM    6  C8  UNL     1      24.299   0.988  52.365  1.00  0.00     0.058 C 
HETATM    7  C9  UNL     1      24.547   0.274  53.465  1.00  0.00     0.127 C 
HETATM    8  N2  UNL     1      23.824  -0.555  54.285  1.00  0.00    -0.246 NA
HETATM    9  C17 UNL     1      22.685  -0.955  54.472  1.00  0.00     0.115 C 
HETATM   10  C18 UNL     1      21.260  -1.228  54.436  1.00  0.00     0.277 C 
HETATM   11  N3  UNL     1      20.496  -0.566  53.537  1.00  0.00    -0.300 NA
ENDROOT
BRANCH   7  12
HETATM   12  N1  UNL     1      25.905   0.364  53.850  1.00  0.00    -0.339 N 
HETATM   13  H8  UNL     1      26.277   1.130  54.446  1.00  0.00     0.167 HD
BRANCH  12  14
HETATM   14  C10 UNL     1      27.089  -0.386  53.639  1.00  0.00     0.067 A 
HETATM   15  C11 UNL     1      26.850  -1.603  53.030  1.00  0.00     0.032 A 
HETATM   16  C12 UNL     1      27.892  -2.466  52.748  1.00  0.00     0.002 A 
HETATM   17  C13 UNL     1      29.159  -2.050  53.104  1.00  0.00     0.003 A 
HETATM   18  C14 UNL     1      29.385  -0.837  53.711  1.00  0.00     0.039 A 
HETATM   19  C15 UNL     1      28.347   0.038  53.998  1.00  0.00     0.094 A 
BRANCH  19  20
HETATM   20  O1  UNL     1      28.490   1.269  54.602  1.00  0.00    -0.354 OA
HETATM   21  C16 UNL     1      28.799   2.432  53.828  1.00  0.00     0.210 C 
ENDBRANCH  19  20
ENDBRANCH  12  14
ENDBRANCH   7  12
BRANCH   1  22
HETATM   22  C2  UNL     1      21.014   1.008  50.301  1.00  0.00    -0.024 C 
HETATM   23  C1  UNL     1      21.259   1.111  49.004  1.00  0.00     0.008 C 
ENDBRANCH   1  22
TORSDOF 4
ENDMDL
MODEL 2
REMARK VINA RESULT:      -8.0      1.617      2.525
REMARK  4 active torsions:
REMARK  status: ('A' for Active; 'I' for Inactive)
REMARK    1  A    between atoms: C2_2  and  C3_3 
REMARK    2  A    between atoms: C9_9  and  N1_10 
REMARK    3  A    between atoms: N1_10  and  C10_11 
REMARK    4  A    between atoms: C15_16  and  O1_17 
ROOT
HETATM    1  C3  UNL     1      21.456   0.231  51.419  1.00  0.00     0.065 C 
HETATM    2  C4  UNL     1      22.143   1.147  50.355  1.00  0.00     0.009 C 
HETATM    3  C5  UNL     1      22.273   2.005  51.389  1.00  0.00    -0.001 C 
HETATM    4  C6  UNL     1      22.488   1.723  52.791  1.00  0.00     0.030 C 
HETATM    5  C7  UNL     1      22.507   0.461  52.428  1.00  0.00    -0.042 C 
HETATM    6  C8  UNL     1      23.667  -0.093  53.159  1.00  0.00     0.058 C 
HETATM    7  C9  UNL     1      24.676   0.763  53.335  1.00  0.00     0.127 C 
HETATM    8  N2  UNL     1      24.909   2.083  53.043  1.00  0.00    -0.246 NA
HETATM    9  C17 UNL     1      24.413   3.033  52.456  1.00  0.00     0.115 C 
HETATM   10  C18 UNL     1      23.581   3.940  51.687  1.00  0.00     0.277 C 
HETATM   11  N3  UNL     1      22.452   3.457  51.118  1.00  0.00    -0.300 NA
ENDROOT
BRANCH   7  12
HETATM   12  N1  UNL     1      25.750   0.167  54.035  1.00  0.00    -0.339 N 
HETATM   13  H8  UNL     1      25.800   0.123  55.072  1.00  0.00     0.167 HD
BRANCH  12  14
HETATM   14  C10 UNL     1      26.963  -0.486  53.700  1.00  0.00     0.067 A 
HETATM   15  C11 UNL     1      26.762  -1.718  53.108  1.00  0.00     0.032 A 
HETATM   16  C12 UNL     1      27.835  -2.495  52.716  1.00  0.00     0.002 A 
HETATM   17  C13 UNL     1      29.094  -1.980  52.946  1.00  0.00     0.003 A 
HETATM   18  C14 UNL     1      29.284  -0.752  53.537  1.00  0.00     0.039 A 
HETATM   19  C15 UNL     1      28.214   0.037  53.934  1.00  0.00     0.094 A 
BRANCH  19  20
HETATM   20  O1  UNL     1      28.318   1.276  54.531  1.00  0.00    -0.354 OA
HETATM   21  C16 UNL     1      28.534   2.451  53.743  1.00  0.00     0.210 C 
ENDBRANCH  19  20
ENDBRANCH  12  14
ENDBRANCH   7  12
BRANCH   1  22
HETATM   22  C2  UNL     1      20.139   0.728  51.769  1.00  0.00    -0.024 C 
HETATM   23  C1  UNL     1      19.182   0.009  52.333  1.00  0.00     0.008 C 
ENDBRANCH   1  22
TORSDOF 4
ENDMDL
MODEL 3
REMARK VINA RESULT:      -7.8      1.484      2.437
REMARK  4 active torsions:
REMARK  status: ('A' for Active; 'I' for Inactive)
REMARK    1  A    between atoms: C2_2  and  C3_3 
REMARK    2  A    between atoms: C9_9  and  N1_10 
REMARK    3  A    between atoms: N1_10  and  C10_11 
REMARK    4  A    between atoms: C15_16  and  O1_17 
ROOT
HETATM    1  C3  UNL     1      20.856   0.952  52.369  1.00  0.00     0.065 C 
HETATM    2  C4  UNL     1      20.888   1.023  53.930  1.00  0.00     0.009 C 
HETATM    3  C5  UNL     1      21.447  -0.201  53.830  1.00  0.00    -0.001 C 
HETATM    4  C6  UNL     1      22.328  -0.726  52.810  1.00  0.00     0.030 C 
HETATM    5  C7  UNL     1      22.247   0.470  52.272  1.00  0.00    -0.042 C 
HETATM    6  C8  UNL     1      23.647   0.785  51.916  1.00  0.00     0.058 C 
HETATM    7  C9  UNL     1      24.562   0.279  52.747  1.00  0.00     0.127 C 
HETATM    8  N2  UNL     1      24.543  -0.523  53.860  1.00  0.00    -0.246 NA
HETATM    9  C17 UNL     1      23.769  -1.057  54.639  1.00  0.00     0.115 C 
HETATM   10  C18 UNL     1      22.615  -1.541  55.375  1.00  0.00     0.277 C 
HETATM   11  N3  UNL     1      21.384  -1.133  54.989  1.00  0.00    -0.300 NA
ENDROOT
BRANCH   7  12
HETATM   12  N1  UNL     1      25.875   0.623  52.351  1.00  0.00    -0.339 N 
HETATM   13  H8  UNL     1      26.135   0.837  51.368  1.00  0.00     0.167 HD
BRANCH  12  14
HETATM   14  C10 UNL     1      27.132   0.790  52.983  1.00  0.00     0.067 A 
HETATM   15  C11 UNL     1      27.471   2.118  53.158  1.00  0.00     0.032 A 
HETATM   16  C12 UNL     1      28.666   2.467  53.758  1.00  0.00     0.002 A 
HETATM   17  C13 UNL     1      29.484   1.433  54.165  1.00  0.00     0.003 A 
HETATM   18  C14 UNL     1      29.137   0.114  53.985  1.00  0.00     0.039 A 
HETATM   19  C15 UNL     1      27.940  -0.248  53.385  1.00  0.00     0.094 A 
BRANCH  19  20
HETATM   20  O1  UNL     1      27.519  -1.544  53.169  1.00  0.00    -0.354 OA
HETATM   21  C16 UNL     1      28.468  -2.597  52.976  1.00  0.00     0.210 C 
ENDBRANCH  19  20
ENDBRANCH  12  14
ENDBRANCH   7  12
BRANCH   1  22
HETATM   22  C2  UNL     1      19.843   0.024  51.906  1.00  0.00    -0.024 C 
HETATM   23  C1  UNL     1      18.677   0.371  51.384  1.00  0.00     0.008 C 
ENDBRANCH   1  22
TORSDOF 4
ENDMDL
MODEL 4
REMARK VINA RESULT:      -7.8      4.328      6.562
REMARK  4 active torsions:
REMARK  status: ('A' for Active; 'I' for Inactive)
REMARK    1  A    between atoms: C2_2  and  C3_3 
REMARK    2  A    between atoms: C9_9  and  N1_10 
REMARK    3  A    between atoms: N1_10  and  C10_11 
REMARK    4  A    between atoms: C15_16  and  O1_17 
ROOT
HETATM    1  C3  UNL     1      27.330   0.246  52.894  1.00  0.00     0.065 C 
HETATM    2  C4  UNL     1      26.113  -0.672  52.546  1.00  0.00     0.009 C 
HETATM    3  C5  UNL     1      25.383   0.376  52.984  1.00  0.00    -0.001 C 
HETATM    4  C6  UNL     1      25.661   1.792  52.883  1.00  0.00     0.030 C 
HETATM    5  C7  UNL     1      26.744   1.428  52.234  1.00  0.00    -0.042 C 
HETATM    6  C8  UNL     1      26.781   2.349  51.078  1.00  0.00     0.058 C 
HETATM    7  C9  UNL     1      25.583   2.709  50.612  1.00  0.00     0.127 C 
HETATM    8  N2  UNL     1      24.278   2.474  50.966  1.00  0.00    -0.246 NA
HETATM    9  C17 UNL     1      23.604   1.816  51.743  1.00  0.00     0.115 C 
HETATM   10  C18 UNL     1      23.102   0.918  52.768  1.00  0.00     0.277 C 
HETATM   11  N3  UNL     1      23.987   0.154  53.449  1.00  0.00    -0.300 NA
ENDROOT
BRANCH   7  12
HETATM   12  N1  UNL     1      25.693   3.583  49.507  1.00  0.00    -0.339 N 
HETATM   13  H8  UNL     1      25.299   3.368  48.569  1.00  0.00     0.167 HD
BRANCH  12  14
HETATM   14  C10 UNL     1      26.264   4.855  49.250  1.00  0.00     0.067 A 
HETATM   15  C11 UNL     1      27.502   4.773  48.643  1.00  0.00     0.032 A 
HETATM   16  C12 UNL     1      28.206   5.917  48.320  1.00  0.00     0.002 A 
HETATM   17  C13 UNL     1      27.612   7.123  48.635  1.00  0.00     0.003 A 
HETATM   18  C14 UNL     1      26.379   7.194  49.241  1.00  0.00     0.039 A 
HETATM   19  C15 UNL     1      25.664   6.051  49.568  1.00  0.00     0.094 A 
BRANCH  19  20
HETATM   20  O1  UNL     1      24.425   6.036  50.175  1.00  0.00    -0.354 OA
HETATM   21  C16 UNL     1      24.106   6.973  51.208  1.00  0.00     0.210 C 
ENDBRANCH  19  20
ENDBRANCH  12  14
ENDBRANCH   7  12
BRANCH   1  22
HETATM   22  C2  UNL     1      27.509   0.360  54.328  1.00  0.00    -0.024 C 
HETATM   23  C1  UNL     1      28.662   0.223  54.962  1.00  0.00     0.008 C 
ENDBRANCH   1  22
TORSDOF 4
ENDMDL
MODEL 5
REMARK VINA RESULT:      -7.4      2.128      3.381
REMARK  4 active torsions:
REMARK  status: ('A' for Active; 'I' for Inactive)
REMARK    1  A    between atoms: C2_2  and  C3_3 
REMARK    2  A    between atoms: C9_9  and  N1_10 
REMARK    3  A    between atoms: N1_10  and  C10_11 
REMARK    4  A    between atoms: C15_16  and  O1_17 
ROOT
HETATM    1  C3  UNL     1      22.070   2.347  50.942  1.00  0.00     0.065 C 
HETATM    2  C4  UNL     1      22.877   2.252  49.607  1.00  0.00     0.009 C 
HETATM    3  C5  UNL     1      23.746   3.065  50.243  1.00  0.00    -0.001 C 
HETATM    4  C6  UNL     1      24.091   3.118  51.647  1.00  0.00     0.030 C 
HETATM    5  C7  UNL     1      23.259   2.111  51.783  1.00  0.00    -0.042 C 
HETATM    6  C8  UNL     1      23.992   1.172  52.659  1.00  0.00     0.058 C 
HETATM    7  C9  UNL     1      25.317   1.173  52.493  1.00  0.00     0.127 C 
HETATM    8  N2  UNL     1      26.212   1.875  51.726  1.00  0.00    -0.246 NA
HETATM    9  C17 UNL     1      26.257   2.704  50.830  1.00  0.00     0.115 C 
HETATM   10  C18 UNL     1      25.975   3.671  49.785  1.00  0.00     0.277 C 
HETATM   11  N3  UNL     1      24.685   3.902  49.447  1.00  0.00    -0.300 NA
ENDROOT
BRANCH   7  12
HETATM   12  N1  UNL     1      25.952   0.251  53.356  1.00  0.00    -0.339 N 
HETATM   13  H8  UNL     1      25.516  -0.104  54.230  1.00  0.00     0.167 HD
BRANCH  12  14
HETATM   14  C10 UNL     1      27.189  -0.441  53.396  1.00  0.00     0.067 A 
HETATM   15  C11 UNL     1      27.122  -1.692  52.814  1.00  0.00     0.032 A 
HETATM   16  C12 UNL     1      28.236  -2.507  52.765  1.00  0.00     0.002 A 
HETATM   17  C13 UNL     1      29.398  -2.008  53.320  1.00  0.00     0.003 A 
HETATM   18  C14 UNL     1      29.454  -0.761  53.897  1.00  0.00     0.039 A 
HETATM   19  C15 UNL     1      28.341   0.066  53.951  1.00  0.00     0.094 A 
BRANCH  19  20
HETATM   20  O1  UNL     1      28.314   1.326  54.510  1.00  0.00    -0.354 OA
HETATM   21  C16 UNL     1      28.765   2.464  53.769  1.00  0.00     0.210 C 
ENDBRANCH  19  20
ENDBRANCH  12  14
ENDBRANCH   7  12
BRANCH   1  22
HETATM   22  C2  UNL     1      21.452   3.650  51.092  1.00  0.00    -0.024 C 
HETATM   23  C1  UNL     1      20.611   4.194  50.227  1.00  0.00     0.008 C 
ENDBRANCH   1  22
TORSDOF 4
ENDMDL
MODEL 6
REMARK VINA RESULT:      -7.4      2.633      6.956
REMARK  4 active torsions:
REMARK  status: ('A' for Active; 'I' for Inactive)
REMARK    1  A    between atoms: C2_2  and  C3_3 
REMARK    2  A    between atoms: C9_9  and  N1_10 
REMARK    3  A    between atoms: N1_10  and  C10_11 
REMARK    4  A    between atoms: C15_16  and  O1_17 
ROOT
HETATM    1  C3  UNL     1      26.791   0.424  53.751  1.00  0.00     0.065 C 
HETATM    2  C4  UNL     1      27.238   1.913  53.584  1.00  0.00     0.009 C 
HETATM    3  C5  UNL     1      26.766   1.762  52.329  1.00  0.00    -0.001 C 
HETATM    4  C6  UNL     1      25.653   0.967  51.858  1.00  0.00     0.030 C 
HETATM    5  C7  UNL     1      25.477   0.653  53.121  1.00  0.00    -0.042 C 
HETATM    6  C8  UNL     1      24.016   0.784  53.311  1.00  0.00     0.058 C 
HETATM    7  C9  UNL     1      23.442   1.741  52.577  1.00  0.00     0.127 C 
HETATM    8  N2  UNL     1      23.861   2.637  51.627  1.00  0.00    -0.246 NA
HETATM    9  C17 UNL     1      24.875   3.047  51.083  1.00  0.00     0.115 C 
HETATM   10  C18 UNL     1      26.231   3.314  50.640  1.00  0.00     0.277 C 
HETATM   11  N3  UNL     1      27.251   2.665  51.250  1.00  0.00    -0.300 NA
ENDROOT
BRANCH   7  12
HETATM   12  N1  UNL     1      22.050   1.814  52.812  1.00  0.00    -0.339 N 
HETATM   13  H8  UNL     1      21.617   2.506  53.457  1.00  0.00     0.167 HD
BRANCH  12  14
HETATM   14  C10 UNL     1      20.892   1.128  52.369  1.00  0.00     0.067 A 
HETATM   15  C11 UNL     1      20.495   1.510  51.102  1.00  0.00     0.032 A 
HETATM   16  C12 UNL     1      19.383   0.943  50.511  1.00  0.00     0.002 A 
HETATM   17  C13 UNL     1      18.703  -0.007  51.246  1.00  0.00     0.003 A 
HETATM   18  C14 UNL     1      19.106  -0.380  52.508  1.00  0.00     0.039 A 
HETATM   19  C15 UNL     1      20.222   0.182  53.110  1.00  0.00     0.094 A 
BRANCH  19  20
HETATM   20  O1  UNL     1      20.691  -0.136  54.368  1.00  0.00    -0.354 OA
HETATM   21  C16 UNL     1      21.318  -1.397  54.616  1.00  0.00     0.210 C 
ENDBRANCH  19  20
ENDBRANCH  12  14
ENDBRANCH   7  12
BRANCH   1  22
HETATM   22  C2  UNL     1      27.676  -0.474  53.034  1.00  0.00    -0.024 C 
HETATM   23  C1  UNL     1      28.868  -0.862  53.458  1.00  0.00     0.008 C 
ENDBRANCH   1  22
TORSDOF 4
ENDMDL
MODEL 7
REMARK VINA RESULT:      -7.2      4.019      5.017
REMARK  4 active torsions:
REMARK  status: ('A' for Active; 'I' for Inactive)
REMARK    1  A    between atoms: C2_2  and  C3_3 
REMARK    2  A    between atoms: C9_9  and  N1_10 
REMARK    3  A    between atoms: N1_10  and  C10_11 
REMARK    4  A    between atoms: C15_16  and  O1_17 
ROOT
HETATM    1  C3  UNL     1      25.418   6.153  49.219  1.00  0.00     0.065 C 
HETATM    2  C4  UNL     1      24.983   6.723  50.608  1.00  0.00     0.009 C 
HETATM    3  C5  UNL     1      24.109   5.695  50.594  1.00  0.00    -0.001 C 
HETATM    4  C6  UNL     1      24.260   4.371  50.030  1.00  0.00     0.030 C 
HETATM    5  C7  UNL     1      25.471   4.761  49.705  1.00  0.00    -0.042 C 
HETATM    6  C8  UNL     1      26.320   3.613  50.089  1.00  0.00     0.058 C 
HETATM    7  C9  UNL     1      25.895   2.940  51.162  1.00  0.00     0.127 C 
HETATM    8  N2  UNL     1      24.814   3.011  52.004  1.00  0.00    -0.246 NA
HETATM    9  C17 UNL     1      23.836   3.701  52.245  1.00  0.00     0.115 C 
HETATM   10  C18 UNL     1      22.794   4.710  52.280  1.00  0.00     0.277 C 
HETATM   11  N3  UNL     1      22.883   5.763  51.435  1.00  0.00    -0.300 NA
ENDROOT
BRANCH   7  12
HETATM   12  N1  UNL     1      26.755   1.862  51.475  1.00  0.00    -0.339 N 
HETATM   13  H8  UNL     1      27.157   1.227  50.757  1.00  0.00     0.167 HD
BRANCH  12  14
HETATM   14  C10 UNL     1      27.318   1.300  52.648  1.00  0.00     0.067 A 
HETATM   15  C11 UNL     1      28.414   2.005  53.107  1.00  0.00     0.032 A 
HETATM   16  C12 UNL     1      29.090   1.598  54.241  1.00  0.00     0.002 A 
HETATM   17  C13 UNL     1      28.616   0.468  54.877  1.00  0.00     0.003 A 
HETATM   18  C14 UNL     1      27.523  -0.227  54.411  1.00  0.00     0.039 A 
HETATM   19  C15 UNL     1      26.837   0.173  53.274  1.00  0.00     0.094 A 
BRANCH  19  20
HETATM   20  O1  UNL     1      25.737  -0.467  52.744  1.00  0.00    -0.354 OA
HETATM   21  C16 UNL     1      24.470  -0.414  53.408  1.00  0.00     0.210 C 
ENDBRANCH  19  20
ENDBRANCH  12  14
ENDBRANCH   7  12
BRANCH   1  22
HETATM   22  C2  UNL     1      24.417   6.420  48.205  1.00  0.00    -0.024 C 
HETATM   23  C1  UNL     1      24.423   7.460  47.388  1.00  0.00     0.008 C 
ENDBRANCH   1  22
TORSDOF 4
ENDMDL
MODEL 8
REMARK VINA RESULT:      -7.2      2.688      6.881
REMARK  4 active torsions:
REMARK  status: ('A' for Active; 'I' for Inactive)
REMARK    1  A    between atoms: C2_2  and  C3_3 
REMARK    2  A    between atoms: C9_9  and  N1_10 
REMARK    3  A    between atoms: N1_10  and  C10_11 
REMARK    4  A    between atoms: C15_16  and  O1_17 
ROOT
HETATM    1  C3  UNL     1      26.734  -0.291  53.724  1.00  0.00     0.065 C 
HETATM    2  C4  UNL     1      27.212   1.197  53.737  1.00  0.00     0.009 C 
HETATM    3  C5  UNL     1      26.647   1.238  52.512  1.00  0.00    -0.001 C 
HETATM    4  C6  UNL     1      25.480   0.541  52.018  1.00  0.00     0.030 C 
HETATM    5  C7  UNL     1      25.386   0.051  53.233  1.00  0.00    -0.042 C 
HETATM    6  C8  UNL     1      23.947   0.181  53.549  1.00  0.00     0.058 C 
HETATM    7  C9  UNL     1      23.351   1.245  53.004  1.00  0.00     0.127 C 
HETATM    8  N2  UNL     1      23.727   2.261  52.162  1.00  0.00    -0.246 NA
HETATM    9  C17 UNL     1      24.711   2.725  51.607  1.00  0.00     0.115 C 
HETATM   10  C18 UNL     1      26.039   3.027  51.107  1.00  0.00     0.277 C 
HETATM   11  N3  UNL     1      27.080   2.278  51.539  1.00  0.00    -0.300 NA
ENDROOT
BRANCH   7  12
HETATM   12  N1  UNL     1      21.982   1.310  53.351  1.00  0.00    -0.339 N 
HETATM   13  H8  UNL     1      21.630   1.821  54.184  1.00  0.00     0.167 HD
BRANCH  12  14
HETATM   14  C10 UNL     1      20.761   0.815  52.828  1.00  0.00     0.067 A 
HETATM   15  C11 UNL     1      20.283  -0.277  53.525  1.00  0.00     0.032 A 
HETATM   16  C12 UNL     1      19.102  -0.890  53.153  1.00  0.00     0.002 A 
HETATM   17  C13 UNL     1      18.440  -0.358  52.065  1.00  0.00     0.003 A 
HETATM   18  C14 UNL     1      18.925   0.730  51.377  1.00  0.00     0.039 A 
HETATM   19  C15 UNL     1      20.109   1.353  51.742  1.00  0.00     0.094 A 
BRANCH  19  20
HETATM   20  O1  UNL     1      20.661   2.446  51.107  1.00  0.00    -0.354 OA
HETATM   21  C16 UNL     1      20.202   3.770  51.397  1.00  0.00     0.210 C 
ENDBRANCH  19  20
ENDBRANCH  12  14
ENDBRANCH   7  12
BRANCH   1  22
HETATM   22  C2  UNL     1      27.539  -1.093  52.822  1.00  0.00    -0.024 C 
HETATM   23  C1  UNL     1      27.443  -2.406  52.684  1.00  0.00     0.008 C 
ENDBRANCH   1  22
TORSDOF 4
ENDMDL
MODEL 9
REMARK VINA RESULT:      -7.1      5.729      7.132
REMARK  4 active torsions:
REMARK  status: ('A' for Active; 'I' for Inactive)
REMARK    1  A    between atoms: C2_2  and  C3_3 
REMARK    2  A    between atoms: C9_9  and  N1_10 
REMARK    3  A    between atoms: N1_10  and  C10_11 
REMARK    4  A    between atoms: C15_16  and  O1_17 
ROOT
HETATM    1  C3  UNL     1      27.568   7.354  48.110  1.00  0.00     0.065 C 
HETATM    2  C4  UNL     1      27.309   8.103  49.458  1.00  0.00     0.009 C 
HETATM    3  C5  UNL     1      26.032   7.709  49.263  1.00  0.00    -0.001 C 
HETATM    4  C6  UNL     1      25.530   6.500  48.650  1.00  0.00     0.030 C 
HETATM    5  C7  UNL     1      26.793   6.166  48.516  1.00  0.00    -0.042 C 
HETATM    6  C8  UNL     1      26.826   4.752  48.946  1.00  0.00     0.058 C 
HETATM    7  C9  UNL     1      25.954   4.441  49.909  1.00  0.00     0.127 C 
HETATM    8  N2  UNL     1      24.970   5.104  50.597  1.00  0.00    -0.246 NA
HETATM    9  C17 UNL     1      24.493   6.219  50.742  1.00  0.00     0.115 C 
HETATM   10  C18 UNL     1      24.163   7.632  50.693  1.00  0.00     0.277 C 
HETATM   11  N3  UNL     1      24.927   8.449  49.932  1.00  0.00    -0.300 NA
ENDROOT
BRANCH   7  12
HETATM   12  N1  UNL     1      26.043   3.078  50.274  1.00  0.00    -0.339 N 
HETATM   13  H8  UNL     1      26.463   2.351  49.661  1.00  0.00     0.167 HD
BRANCH  12  14
HETATM   14  C10 UNL     1      25.679   2.283  51.390  1.00  0.00     0.067 A 
HETATM   15  C11 UNL     1      24.376   1.830  51.322  1.00  0.00     0.032 A 
HETATM   16  C12 UNL     1      23.851   1.041  52.327  1.00  0.00     0.002 A 
HETATM   17  C13 UNL     1      24.688   0.738  53.382  1.00  0.00     0.003 A 
HETATM   18  C14 UNL     1      25.984   1.195  53.440  1.00  0.00     0.039 A 
HETATM   19  C15 UNL     1      26.521   1.987  52.436  1.00  0.00     0.094 A 
BRANCH  19  20
HETATM   20  O1  UNL     1      27.808   2.484  52.419  1.00  0.00    -0.354 OA
HETATM   21  C16 UNL     1      28.641   2.395  53.579  1.00  0.00     0.210 C 
ENDBRANCH  19  20
ENDBRANCH  12  14
ENDBRANCH   7  12
BRANCH   1  22
HETATM   22  C2  UNL     1      27.028   8.093  46.986  1.00  0.00    -0.024 C 
HETATM   23  C1  UNL     1      27.716   8.454  45.914  1.00  0.00     0.008 C 
ENDBRANCH   1  22
TORSDOF 4
ENDMDL
