MODEL 1
REMARK VINA RESULT:      -8.2      0.000      0.000
REMARK  8 active torsions:
REMARK  status: ('A' for Active; 'I' for Inactive)
REMARK    1  A    between atoms: O1_2  and  C2_3 
REMARK    2  A    between atoms: C6_8  and  N2_9 
REMARK    3  A    between atoms: N2_9  and  C7_10 
REMARK    4  A    between atoms: C14_19  and  O2_20 
REMARK    5  A    between atoms: O2_20  and  C15_21 
REMARK    6  A    between atoms: C15_21  and  C16_22 
REMARK    7  A    between atoms: C16_22  and  C17_23 
REMARK    8  A    between atoms: C17_23  and  N3_24 
ROOT
HETATM    1  C2  UNL     1      22.350   0.173  52.506  1.00  0.00     0.103 C 
HETATM    2  C3  UNL     1      21.057   0.244  52.108  1.00  0.00     0.066 C 
HETATM    3  C4  UNL     1      20.873   1.384  51.221  1.00  0.00     0.035 C 
HETATM    4  N1  UNL     1      20.290   2.489  50.923  1.00  0.00    -0.291 NA
HETATM    5  C5  UNL     1      21.138   3.724  50.783  1.00  0.00     0.178 C 
HETATM    6  C6  UNL     1      22.635   3.477  51.122  1.00  0.00     0.134 C 
HETATM    7  C13 UNL     1      22.858   2.028  51.256  1.00  0.00    -0.014 C 
HETATM    8  C14 UNL     1      23.401   1.147  52.068  1.00  0.00     0.106 C 
HETATM    9  C22 UNL     1      21.986   1.412  50.125  1.00  0.00     0.098 C 
ENDROOT
BRANCH   6  10
HETATM   10  N2  UNL     1      23.541   4.115  50.254  1.00  0.00    -0.380 N 
HETATM   11  H8  UNL     1      22.886   4.731  49.671  1.00  0.00     0.160 HD
BRANCH  10  12
HETATM   12  C7  UNL     1      24.809   4.432  49.707  1.00  0.00     0.030 A 
HETATM   13  C8  UNL     1      25.957   3.629  49.686  1.00  0.00     0.032 A 
HETATM   14  C9  UNL     1      27.104   4.114  49.130  1.00  0.00     0.046 A 
HETATM   15  C10 UNL     1      27.148   5.375  48.590  1.00  0.00     0.138 A 
HETATM   16  F1  UNL     1      28.376   5.651  48.094  1.00  0.00    -0.204 F 
HETATM   17  C11 UNL     1      26.042   6.198  48.590  1.00  0.00     0.074 A 
HETATM   18 CL1  UNL     1      26.361   7.746  47.846  1.00  0.00    -0.081 Cl
HETATM   19  C12 UNL     1      24.891   5.693  49.157  1.00  0.00     0.056 A 
ENDBRANCH  10  12
ENDBRANCH   6  10
BRANCH   8  20
HETATM   20  O2  UNL     1      24.703   1.432  52.227  1.00  0.00    -0.348 OA
BRANCH  20  21
HETATM   21  C15 UNL     1      25.169   2.260  53.254  1.00  0.00     0.177 C 
BRANCH  21  22
HETATM   22  C16 UNL     1      26.471   1.702  53.808  1.00  0.00     0.057 C 
BRANCH  22  23
HETATM   23  C17 UNL     1      26.161   0.380  54.505  1.00  0.00     0.274 C 
BRANCH  23  24
HETATM   24  N3  UNL     1      27.188  -0.574  54.187  1.00  0.00     0.092 N 
HETATM   25  C18 UNL     1      26.987  -1.128  52.877  1.00  0.00     0.298 C 
HETATM   26  C19 UNL     1      27.798  -2.401  52.759  1.00  0.00     0.198 C 
HETATM   27  O3  UNL     1      28.979  -2.239  53.473  1.00  0.00    -0.388 OA
HETATM   28  C20 UNL     1      29.448  -0.936  53.470  1.00  0.00     0.198 C 
HETATM   29  C21 UNL     1      28.520  -0.046  54.290  1.00  0.00     0.298 C 
ENDBRANCH  23  24
ENDBRANCH  22  23
ENDBRANCH  21  22
ENDBRANCH  20  21
ENDBRANCH   8  20
BRANCH   1  30
HETATM   30  O1  UNL     1      22.764  -0.824  53.355  1.00  0.00    -0.353 OA
HETATM   31  C1  UNL     1      22.289  -0.893  54.685  1.00  0.00     0.210 C 
ENDBRANCH   1  30
TORSDOF 8
ENDMDL
MODEL 2
REMARK VINA RESULT:      -7.8      3.366      6.220
REMARK  8 active torsions:
REMARK  status: ('A' for Active; 'I' for Inactive)
REMARK    1  A    between atoms: O1_2  and  C2_3 
REMARK    2  A    between atoms: C6_8  and  N2_9 
REMARK    3  A    between atoms: N2_9  and  C7_10 
REMARK    4  A    between atoms: C14_19  and  O2_20 
REMARK    5  A    between atoms: O2_20  and  C15_21 
REMARK    6  A    between atoms: C15_21  and  C16_22 
REMARK    7  A    between atoms: C16_22  and  C17_23 
REMARK    8  A    between atoms: C17_23  and  N3_24 
ROOT
HETATM    1  C2  UNL     1      19.729  -0.117  52.125  1.00  0.00     0.103 C 
HETATM    2  C3  UNL     1      19.432  -0.548  53.375  1.00  0.00     0.066 C 
HETATM    3  C4  UNL     1      20.639  -0.573  54.190  1.00  0.00     0.035 C 
HETATM    4  N1  UNL     1      21.477  -1.202  54.932  1.00  0.00    -0.291 NA
HETATM    5  C5  UNL     1      22.914  -1.257  54.492  1.00  0.00     0.178 C 
HETATM    6  C6  UNL     1      23.153  -0.593  53.107  1.00  0.00     0.134 C 
HETATM    7  C13 UNL     1      21.933   0.130  52.711  1.00  0.00    -0.014 C 
HETATM    8  C14 UNL     1      21.111   0.270  51.694  1.00  0.00     0.106 C 
HETATM    9  C22 UNL     1      21.430   0.765  54.039  1.00  0.00     0.098 C 
ENDROOT
BRANCH   6  10
HETATM   10  N2  UNL     1      24.325   0.183  53.028  1.00  0.00    -0.380 N 
HETATM   11  H8  UNL     1      24.004   0.999  52.412  1.00  0.00     0.160 HD
BRANCH  10  12
HETATM   12  C7  UNL     1      25.674   0.526  53.295  1.00  0.00     0.030 A 
HETATM   13  C8  UNL     1      26.186   1.785  53.632  1.00  0.00     0.032 A 
HETATM   14  C9  UNL     1      27.526   1.932  53.835  1.00  0.00     0.046 A 
HETATM   15  C10 UNL     1      28.379   0.863  53.714  1.00  0.00     0.138 A 
HETATM   16  F1  UNL     1      29.658   1.229  53.958  1.00  0.00    -0.204 F 
HETATM   17  C11 UNL     1      27.917  -0.393  53.384  1.00  0.00     0.074 A 
HETATM   18 CL1  UNL     1      29.201  -1.575  53.294  1.00  0.00    -0.081 Cl
HETATM   19  C12 UNL     1      26.560  -0.524  53.182  1.00  0.00     0.056 A 
ENDBRANCH  10  12
ENDBRANCH   6  10
BRANCH   8  20
HETATM   20  O2  UNL     1      21.796   0.702  50.624  1.00  0.00    -0.348 OA
BRANCH  20  21
HETATM   21  C15 UNL     1      21.630   1.987  50.096  1.00  0.00     0.177 C 
BRANCH  21  22
HETATM   22  C16 UNL     1      22.965   2.503  49.581  1.00  0.00     0.057 C 
BRANCH  22  23
HETATM   23  C17 UNL     1      23.878   2.737  50.781  1.00  0.00     0.274 C 
BRANCH  23  24
HETATM   24  N3  UNL     1      24.489   4.033  50.665  1.00  0.00     0.092 N 
HETATM   25  C18 UNL     1      24.594   4.430  49.289  1.00  0.00     0.298 C 
HETATM   26  C19 UNL     1      25.603   5.555  49.185  1.00  0.00     0.198 C 
HETATM   27  O3  UNL     1      25.501   6.345  50.322  1.00  0.00    -0.388 OA
HETATM   28  C20 UNL     1      24.216   6.410  50.833  1.00  0.00     0.198 C 
HETATM   29  C21 UNL     1      23.818   5.058  51.415  1.00  0.00     0.298 C 
ENDBRANCH  23  24
ENDBRANCH  22  23
ENDBRANCH  21  22
ENDBRANCH  20  21
ENDBRANCH   8  20
BRANCH   1  30
HETATM   30  O1  UNL     1      18.745  -0.015  51.172  1.00  0.00    -0.353 OA
HETATM   31  C1  UNL     1      17.758   0.994  51.248  1.00  0.00     0.210 C 
ENDBRANCH   1  30
TORSDOF 8
ENDMDL
MODEL 3
REMARK VINA RESULT:      -7.7      3.595      5.845
REMARK  8 active torsions:
REMARK  status: ('A' for Active; 'I' for Inactive)
REMARK    1  A    between atoms: O1_2  and  C2_3 
REMARK    2  A    between atoms: C6_8  and  N2_9 
REMARK    3  A    between atoms: N2_9  and  C7_10 
REMARK    4  A    between atoms: C14_19  and  O2_20 
REMARK    5  A    between atoms: O2_20  and  C15_21 
REMARK    6  A    between atoms: C15_21  and  C16_22 
REMARK    7  A    between atoms: C16_22  and  C17_23 
REMARK    8  A    between atoms: C17_23  and  N3_24 
ROOT
HETATM    1  C2  UNL     1      23.520   5.635  49.997  1.00  0.00     0.103 C 
HETATM    2  C3  UNL     1      22.416   6.357  50.304  1.00  0.00     0.066 C 
HETATM    3  C4  UNL     1      21.392   5.483  50.860  1.00  0.00     0.035 C 
HETATM    4  N1  UNL     1      20.205   4.992  50.837  1.00  0.00    -0.291 NA
HETATM    5  C5  UNL     1      20.054   3.503  50.693  1.00  0.00     0.178 C 
HETATM    6  C6  UNL     1      21.411   2.769  50.497  1.00  0.00     0.134 C 
HETATM    7  C13 UNL     1      22.505   3.721  50.750  1.00  0.00    -0.014 C 
HETATM    8  C14 UNL     1      23.626   4.156  50.217  1.00  0.00     0.106 C 
HETATM    9  C22 UNL     1      21.999   4.556  51.961  1.00  0.00     0.098 C 
ENDROOT
BRANCH   6  10
HETATM   10  N2  UNL     1      21.529   1.562  51.212  1.00  0.00    -0.380 N 
HETATM   11  H8  UNL     1      21.428   0.836  50.430  1.00  0.00     0.160 HD
BRANCH  10  12
HETATM   12  C7  UNL     1      21.717   0.744  52.354  1.00  0.00     0.030 A 
HETATM   13  C8  UNL     1      20.737   0.253  53.225  1.00  0.00     0.032 A 
HETATM   14  C9  UNL     1      21.110  -0.509  54.293  1.00  0.00     0.046 A 
HETATM   15  C10 UNL     1      22.431  -0.802  54.523  1.00  0.00     0.138 A 
HETATM   16  F1  UNL     1      22.577  -1.568  55.628  1.00  0.00    -0.204 F 
HETATM   17  C11 UNL     1      23.427  -0.339  53.690  1.00  0.00     0.074 A 
HETATM   18 CL1  UNL     1      25.018  -0.850  54.202  1.00  0.00    -0.081 Cl
HETATM   19  C12 UNL     1      23.033   0.431  52.616  1.00  0.00     0.056 A 
ENDBRANCH  10  12
ENDBRANCH   6  10
BRANCH   8  20
HETATM   20  O2  UNL     1      24.469   3.126  50.049  1.00  0.00    -0.348 OA
BRANCH  20  21
HETATM   21  C15 UNL     1      25.779   3.141  50.543  1.00  0.00     0.177 C 
BRANCH  21  22
HETATM   22  C16 UNL     1      25.813   2.479  51.912  1.00  0.00     0.057 C 
BRANCH  22  23
HETATM   23  C17 UNL     1      26.833   1.345  51.865  1.00  0.00     0.274 C 
BRANCH  23  24
HETATM   24  N3  UNL     1      27.542   1.293  53.115  1.00  0.00     0.092 N 
HETATM   25  C18 UNL     1      28.328   0.095  53.211  1.00  0.00     0.298 C 
HETATM   26  C19 UNL     1      28.694  -0.129  54.663  1.00  0.00     0.198 C 
HETATM   27  O3  UNL     1      28.900   1.107  55.262  1.00  0.00    -0.388 OA
HETATM   28  C20 UNL     1      29.420   2.056  54.397  1.00  0.00     0.198 C 
HETATM   29  C21 UNL     1      28.375   2.439  53.355  1.00  0.00     0.298 C 
ENDBRANCH  23  24
ENDBRANCH  22  23
ENDBRANCH  21  22
ENDBRANCH  20  21
ENDBRANCH   8  20
BRANCH   1  30
HETATM   30  O1  UNL     1      24.623   6.247  49.452  1.00  0.00    -0.353 OA
HETATM   31  C1  UNL     1      25.508   7.003  50.254  1.00  0.00     0.210 C 
ENDBRANCH   1  30
TORSDOF 8
ENDMDL
MODEL 4
REMARK VINA RESULT:      -7.5      3.731      7.284
REMARK  8 active torsions:
REMARK  status: ('A' for Active; 'I' for Inactive)
REMARK    1  A    between atoms: O1_2  and  C2_3 
REMARK    2  A    between atoms: C6_8  and  N2_9 
REMARK    3  A    between atoms: N2_9  and  C7_10 
REMARK    4  A    between atoms: C14_19  and  O2_20 
REMARK    5  A    between atoms: O2_20  and  C15_21 
REMARK    6  A    between atoms: C15_21  and  C16_22 
REMARK    7  A    between atoms: C16_22  and  C17_23 
REMARK    8  A    between atoms: C17_23  and  N3_24 
ROOT
HETATM    1  C2  UNL     1      26.659   1.482  54.059  1.00  0.00     0.103 C 
HETATM    2  C3  UNL     1      26.818   0.378  54.828  1.00  0.00     0.066 C 
HETATM    3  C4  UNL     1      25.693  -0.526  54.634  1.00  0.00     0.035 C 
HETATM    4  N1  UNL     1      24.706  -1.203  55.101  1.00  0.00    -0.291 NA
HETATM    5  C5  UNL     1      23.327  -0.899  54.582  1.00  0.00     0.178 C 
HETATM    6  C6  UNL     1      23.300   0.296  53.588  1.00  0.00     0.134 C 
HETATM    7  C13 UNL     1      24.685   0.652  53.238  1.00  0.00    -0.014 C 
HETATM    8  C14 UNL     1      25.484   1.694  53.154  1.00  0.00     0.106 C 
HETATM    9  C22 UNL     1      25.402  -0.722  53.112  1.00  0.00     0.098 C 
ENDROOT
BRANCH   6  10
HETATM   10  N2  UNL     1      22.461   0.107  52.473  1.00  0.00    -0.380 N 
HETATM   11  H8  UNL     1      22.846  -0.807  52.066  1.00  0.00     0.160 HD
BRANCH  10  12
HETATM   12  C7  UNL     1      21.401   0.405  51.582  1.00  0.00     0.030 A 
HETATM   13  C8  UNL     1      21.491   0.959  50.299  1.00  0.00     0.032 A 
HETATM   14  C9  UNL     1      20.351   1.197  49.590  1.00  0.00     0.046 A 
HETATM   15  C10 UNL     1      19.118   0.901  50.115  1.00  0.00     0.138 A 
HETATM   16  F1  UNL     1      18.129   1.214  49.248  1.00  0.00    -0.204 F 
HETATM   17  C11 UNL     1      18.985   0.355  51.374  1.00  0.00     0.074 A 
HETATM   18 CL1  UNL     1      17.315   0.073  51.807  1.00  0.00    -0.081 Cl
HETATM   19  C12 UNL     1      20.146   0.121  52.078  1.00  0.00     0.056 A 
ENDBRANCH  10  12
ENDBRANCH   6  10
BRANCH   8  20
HETATM   20  O2  UNL     1      24.965   2.586  52.297  1.00  0.00    -0.348 OA
BRANCH  20  21
HETATM   21  C15 UNL     1      25.496   2.795  51.019  1.00  0.00     0.177 C 
BRANCH  21  22
HETATM   22  C16 UNL     1      24.426   3.383  50.112  1.00  0.00     0.057 C 
BRANCH  22  23
HETATM   23  C17 UNL     1      23.908   4.664  50.759  1.00  0.00     0.274 C 
BRANCH  23  24
HETATM   24  N3  UNL     1      24.832   5.734  50.496  1.00  0.00     0.092 N 
HETATM   25  C18 UNL     1      25.133   5.821  49.095  1.00  0.00     0.298 C 
HETATM   26  C19 UNL     1      26.396   6.637  48.919  1.00  0.00     0.198 C 
HETATM   27  O3  UNL     1      26.414   7.634  49.885  1.00  0.00    -0.388 OA
HETATM   28  C20 UNL     1      25.152   8.096  50.223  1.00  0.00     0.198 C 
HETATM   29  C21 UNL     1      24.387   7.013  50.976  1.00  0.00     0.298 C 
ENDBRANCH  23  24
ENDBRANCH  22  23
ENDBRANCH  21  22
ENDBRANCH  20  21
ENDBRANCH   8  20
BRANCH   1  30
HETATM   30  O1  UNL     1      27.599   2.484  54.078  1.00  0.00    -0.353 OA
HETATM   31  C1  UNL     1      28.936   2.238  53.689  1.00  0.00     0.210 C 
ENDBRANCH   1  30
TORSDOF 8
ENDMDL
MODEL 5
REMARK VINA RESULT:      -7.5      3.793      6.098
REMARK  8 active torsions:
REMARK  status: ('A' for Active; 'I' for Inactive)
REMARK    1  A    between atoms: O1_2  and  C2_3 
REMARK    2  A    between atoms: C6_8  and  N2_9 
REMARK    3  A    between atoms: N2_9  and  C7_10 
REMARK    4  A    between atoms: C14_19  and  O2_20 
REMARK    5  A    between atoms: O2_20  and  C15_21 
REMARK    6  A    between atoms: C15_21  and  C16_22 
REMARK    7  A    between atoms: C16_22  and  C17_23 
REMARK    8  A    between atoms: C17_23  and  N3_24 
ROOT
HETATM    1  C2  UNL     1      24.534   5.212  49.557  1.00  0.00     0.103 C 
HETATM    2  C3  UNL     1      23.841   5.830  48.570  1.00  0.00     0.066 C 
HETATM    3  C4  UNL     1      22.731   4.990  48.143  1.00  0.00     0.035 C 
HETATM    4  N1  UNL     1      22.096   4.352  47.227  1.00  0.00    -0.291 NA
HETATM    5  C5  UNL     1      21.919   2.867  47.388  1.00  0.00     0.178 C 
HETATM    6  C6  UNL     1      22.637   2.300  48.644  1.00  0.00     0.134 C 
HETATM    7  C13 UNL     1      23.099   3.425  49.474  1.00  0.00    -0.014 C 
HETATM    8  C14 UNL     1      24.170   3.864  50.099  1.00  0.00     0.106 C 
HETATM    9  C22 UNL     1      21.939   4.457  49.380  1.00  0.00     0.098 C 
ENDROOT
BRANCH   6  10
HETATM   10  N2  UNL     1      21.896   1.336  49.353  1.00  0.00    -0.380 N 
HETATM   11  H8  UNL     1      22.285   0.423  48.949  1.00  0.00     0.160 HD
BRANCH  10  12
HETATM   12  C7  UNL     1      20.949   0.864  50.296  1.00  0.00     0.030 A 
HETATM   13  C8  UNL     1      19.555   0.838  50.170  1.00  0.00     0.032 A 
HETATM   14  C9  UNL     1      18.797   0.362  51.198  1.00  0.00     0.046 A 
HETATM   15  C10 UNL     1      19.382  -0.094  52.353  1.00  0.00     0.138 A 
HETATM   16  F1  UNL     1      18.450  -0.520  53.237  1.00  0.00    -0.204 F 
HETATM   17  C11 UNL     1      20.750  -0.087  52.519  1.00  0.00     0.074 A 
HETATM   18 CL1  UNL     1      21.238  -0.716  54.074  1.00  0.00    -0.081 Cl
HETATM   19  C12 UNL     1      21.501   0.399  51.470  1.00  0.00     0.056 A 
ENDBRANCH  10  12
ENDBRANCH   6  10
BRANCH   8  20
HETATM   20  O2  UNL     1      24.569   2.949  50.996  1.00  0.00    -0.348 OA
BRANCH  20  21
HETATM   21  C15 UNL     1      24.192   3.006  52.342  1.00  0.00     0.177 C 
BRANCH  21  22
HETATM   22  C16 UNL     1      24.465   1.664  53.005  1.00  0.00     0.057 C 
BRANCH  22  23
HETATM   23  C17 UNL     1      25.753   1.097  52.415  1.00  0.00     0.274 C 
BRANCH  23  24
HETATM   24  N3  UNL     1      26.812   1.226  53.379  1.00  0.00     0.092 N 
HETATM   25  C18 UNL     1      27.545  -0.002  53.505  1.00  0.00     0.298 C 
HETATM   26  C19 UNL     1      28.335   0.034  54.796  1.00  0.00     0.198 C 
HETATM   27  O3  UNL     1      28.760   1.338  55.016  1.00  0.00    -0.388 OA
HETATM   28  C20 UNL     1      29.021   2.036  53.848  1.00  0.00     0.198 C 
HETATM   29  C21 UNL     1      27.719   2.305  53.102  1.00  0.00     0.298 C 
ENDBRANCH  23  24
ENDBRANCH  22  23
ENDBRANCH  21  22
ENDBRANCH  20  21
ENDBRANCH   8  20
BRANCH   1  30
HETATM   30  O1  UNL     1      25.634   5.815  50.117  1.00  0.00    -0.353 OA
HETATM   31  C1  UNL     1      25.705   7.220  50.255  1.00  0.00     0.210 C 
ENDBRANCH   1  30
TORSDOF 8
ENDMDL
MODEL 6
REMARK VINA RESULT:      -7.4      3.951      7.502
REMARK  8 active torsions:
REMARK  status: ('A' for Active; 'I' for Inactive)
REMARK    1  A    between atoms: O1_2  and  C2_3 
REMARK    2  A    between atoms: C6_8  and  N2_9 
REMARK    3  A    between atoms: N2_9  and  C7_10 
REMARK    4  A    between atoms: C14_19  and  O2_20 
REMARK    5  A    between atoms: O2_20  and  C15_21 
REMARK    6  A    between atoms: C15_21  and  C16_22 
REMARK    7  A    between atoms: C16_22  and  C17_23 
REMARK    8  A    between atoms: C17_23  and  N3_24 
ROOT
HETATM    1  C2  UNL     1      26.800   1.465  54.114  1.00  0.00     0.103 C 
HETATM    2  C3  UNL     1      26.880   0.303  54.806  1.00  0.00     0.066 C 
HETATM    3  C4  UNL     1      25.711  -0.520  54.528  1.00  0.00     0.035 C 
HETATM    4  N1  UNL     1      24.678  -1.171  54.927  1.00  0.00    -0.291 NA
HETATM    5  C5  UNL     1      23.330  -0.753  54.407  1.00  0.00     0.178 C 
HETATM    6  C6  UNL     1      23.391   0.508  53.500  1.00  0.00     0.134 C 
HETATM    7  C13 UNL     1      24.801   0.809  53.201  1.00  0.00    -0.014 C 
HETATM    8  C14 UNL     1      25.658   1.807  53.206  1.00  0.00     0.106 C 
HETATM    9  C22 UNL     1      25.444  -0.593  52.991  1.00  0.00     0.098 C 
ENDROOT
BRANCH   6  10
HETATM   10  N2  UNL     1      22.568   0.445  52.359  1.00  0.00    -0.380 N 
HETATM   11  H8  UNL     1      23.291   0.329  51.576  1.00  0.00     0.160 HD
BRANCH  10  12
HETATM   12  C7  UNL     1      21.348   0.430  51.640  1.00  0.00     0.030 A 
HETATM   13  C8  UNL     1      21.136   0.796  50.305  1.00  0.00     0.032 A 
HETATM   14  C9  UNL     1      19.878   0.735  49.784  1.00  0.00     0.046 A 
HETATM   15  C10 UNL     1      18.817   0.320  50.549  1.00  0.00     0.138 A 
HETATM   16  F1  UNL     1      17.666   0.334  49.838  1.00  0.00    -0.204 F 
HETATM   17  C11 UNL     1      18.980  -0.049  51.867  1.00  0.00     0.074 A 
HETATM   18 CL1  UNL     1      17.478  -0.536  52.616  1.00  0.00    -0.081 Cl
HETATM   19  C12 UNL     1      20.259   0.018  52.378  1.00  0.00     0.056 A 
ENDBRANCH  10  12
ENDBRANCH   6  10
BRANCH   8  20
HETATM   20  O2  UNL     1      25.208   2.785  52.404  1.00  0.00    -0.348 OA
BRANCH  20  21
HETATM   21  C15 UNL     1      25.433   2.785  51.023  1.00  0.00     0.177 C 
BRANCH  21  22
HETATM   22  C16 UNL     1      24.373   3.631  50.335  1.00  0.00     0.057 C 
BRANCH  22  23
HETATM   23  C17 UNL     1      23.789   4.591  51.367  1.00  0.00     0.274 C 
BRANCH  23  24
HETATM   24  N3  UNL     1      22.383   4.759  51.115  1.00  0.00     0.092 N 
HETATM   25  C18 UNL     1      22.020   4.206  49.840  1.00  0.00     0.298 C 
HETATM   26  C19 UNL     1      20.676   4.772  49.431  1.00  0.00     0.198 C 
HETATM   27  O3  UNL     1      19.901   4.935  50.572  1.00  0.00    -0.388 OA
HETATM   28  C20 UNL     1      20.154   3.986  51.549  1.00  0.00     0.198 C 
HETATM   29  C21 UNL     1      21.542   4.206  52.140  1.00  0.00     0.298 C 
ENDBRANCH  23  24
ENDBRANCH  22  23
ENDBRANCH  21  22
ENDBRANCH  20  21
ENDBRANCH   8  20
BRANCH   1  30
HETATM   30  O1  UNL     1      27.793   2.409  54.221  1.00  0.00    -0.353 OA
HETATM   31  C1  UNL     1      29.127   2.106  53.866  1.00  0.00     0.210 C 
ENDBRANCH   1  30
TORSDOF 8
ENDMDL
MODEL 7
REMARK VINA RESULT:      -7.4      2.948      6.635
REMARK  8 active torsions:
REMARK  status: ('A' for Active; 'I' for Inactive)
REMARK    1  A    between atoms: O1_2  and  C2_3 
REMARK    2  A    between atoms: C6_8  and  N2_9 
REMARK    3  A    between atoms: N2_9  and  C7_10 
REMARK    4  A    between atoms: C14_19  and  O2_20 
REMARK    5  A    between atoms: O2_20  and  C15_21 
REMARK    6  A    between atoms: C15_21  and  C16_22 
REMARK    7  A    between atoms: C16_22  and  C17_23 
REMARK    8  A    between atoms: C17_23  and  N3_24 
ROOT
HETATM    1  C2  UNL     1      26.890   1.340  54.055  1.00  0.00     0.103 C 
HETATM    2  C3  UNL     1      26.742   0.240  54.833  1.00  0.00     0.066 C 
HETATM    3  C4  UNL     1      25.522  -0.465  54.467  1.00  0.00     0.035 C 
HETATM    4  N1  UNL     1      24.376  -0.956  54.775  1.00  0.00    -0.291 NA
HETATM    5  C5  UNL     1      23.162  -0.434  54.057  1.00  0.00     0.178 C 
HETATM    6  C6  UNL     1      23.487   0.729  53.077  1.00  0.00     0.134 C 
HETATM    7  C13 UNL     1      24.948   0.839  52.941  1.00  0.00    -0.014 C 
HETATM    8  C14 UNL     1      25.916   1.730  52.985  1.00  0.00     0.106 C 
HETATM    9  C22 UNL     1      25.432  -0.639  52.917  1.00  0.00     0.098 C 
ENDROOT
BRANCH   6  10
HETATM   10  N2  UNL     1      22.804   0.662  51.847  1.00  0.00    -0.380 N 
HETATM   11  H8  UNL     1      23.187  -0.252  51.437  1.00  0.00     0.160 HD
BRANCH  10  12
HETATM   12  C7  UNL     1      21.899   1.083  50.842  1.00  0.00     0.030 A 
HETATM   13  C8  UNL     1      20.538   0.773  50.730  1.00  0.00     0.032 A 
HETATM   14  C9  UNL     1      19.825   1.257  49.674  1.00  0.00     0.046 A 
HETATM   15  C10 UNL     1      20.421   2.043  48.720  1.00  0.00     0.138 A 
HETATM   16  F1  UNL     1      19.535   2.413  47.767  1.00  0.00    -0.204 F 
HETATM   17  C11 UNL     1      21.758   2.373  48.792  1.00  0.00     0.074 A 
HETATM   18 CL1  UNL     1      22.270   3.381  47.460  1.00  0.00    -0.081 Cl
HETATM   19  C12 UNL     1      22.465   1.875  49.866  1.00  0.00     0.056 A 
ENDBRANCH  10  12
ENDBRANCH   6  10
BRANCH   8  20
HETATM   20  O2  UNL     1      25.690   2.680  52.065  1.00  0.00    -0.348 OA
BRANCH  20  21
HETATM   21  C15 UNL     1      26.400   2.741  50.860  1.00  0.00     0.177 C 
BRANCH  21  22
HETATM   22  C16 UNL     1      25.578   3.490  49.822  1.00  0.00     0.057 C 
BRANCH  22  23
HETATM   23  C17 UNL     1      26.084   4.929  49.766  1.00  0.00     0.274 C 
BRANCH  23  24
HETATM   24  N3  UNL     1      24.961   5.826  49.796  1.00  0.00     0.092 N 
HETATM   25  C18 UNL     1      23.855   5.243  50.503  1.00  0.00     0.298 C 
HETATM   26  C19 UNL     1      22.596   6.003  50.145  1.00  0.00     0.198 C 
HETATM   27  O3  UNL     1      22.922   7.342  49.976  1.00  0.00    -0.388 OA
HETATM   28  C20 UNL     1      23.958   7.763  50.794  1.00  0.00     0.198 C 
HETATM   29  C21 UNL     1      25.266   7.115  50.353  1.00  0.00     0.298 C 
ENDBRANCH  23  24
ENDBRANCH  22  23
ENDBRANCH  21  22
ENDBRANCH  20  21
ENDBRANCH   8  20
BRANCH   1  30
HETATM   30  O1  UNL     1      27.972   2.170  54.221  1.00  0.00    -0.353 OA
HETATM   31  C1  UNL     1      29.288   1.655  54.248  1.00  0.00     0.210 C 
ENDBRANCH   1  30
TORSDOF 8
ENDMDL
MODEL 8
REMARK VINA RESULT:      -7.1      2.775      6.089
REMARK  8 active torsions:
REMARK  status: ('A' for Active; 'I' for Inactive)
REMARK    1  A    between atoms: O1_2  and  C2_3 
REMARK    2  A    between atoms: C6_8  and  N2_9 
REMARK    3  A    between atoms: N2_9  and  C7_10 
REMARK    4  A    between atoms: C14_19  and  O2_20 
REMARK    5  A    between atoms: O2_20  and  C15_21 
REMARK    6  A    between atoms: C15_21  and  C16_22 
REMARK    7  A    between atoms: C16_22  and  C17_23 
REMARK    8  A    between atoms: C17_23  and  N3_24 
ROOT
HETATM    1  C2  UNL     1      22.871   0.167  52.768  1.00  0.00     0.103 C 
HETATM    2  C3  UNL     1      23.934  -0.139  53.550  1.00  0.00     0.066 C 
HETATM    3  C4  UNL     1      25.059   0.723  53.217  1.00  0.00     0.035 C 
HETATM    4  N1  UNL     1      26.277   0.880  52.839  1.00  0.00    -0.291 NA
HETATM    5  C5  UNL     1      26.534   1.651  51.573  1.00  0.00     0.178 C 
HETATM    6  C6  UNL     1      25.229   2.077  50.844  1.00  0.00     0.134 C 
HETATM    7  C13 UNL     1      24.083   1.814  51.730  1.00  0.00    -0.014 C 
HETATM    8  C14 UNL     1      22.897   1.245  51.728  1.00  0.00     0.106 C 
HETATM    9  C22 UNL     1      24.604   2.215  53.140  1.00  0.00     0.098 C 
ENDROOT
BRANCH   6  10
HETATM   10  N2  UNL     1      25.255   3.384  50.320  1.00  0.00    -0.380 N 
HETATM   11  H8  UNL     1      24.291   3.752  50.608  1.00  0.00     0.160 HD
BRANCH  10  12
HETATM   12  C7  UNL     1      25.812   4.502  49.650  1.00  0.00     0.030 A 
HETATM   13  C8  UNL     1      25.189   5.722  49.359  1.00  0.00     0.032 A 
HETATM   14  C9  UNL     1      25.881   6.683  48.683  1.00  0.00     0.046 A 
HETATM   15  C10 UNL     1      27.177   6.471  48.285  1.00  0.00     0.138 A 
HETATM   16  F1  UNL     1      27.671   7.550  47.634  1.00  0.00    -0.204 F 
HETATM   17  C11 UNL     1      27.828   5.285  48.551  1.00  0.00     0.074 A 
HETATM   18 CL1  UNL     1      29.465   5.269  47.941  1.00  0.00    -0.081 Cl
HETATM   19  C12 UNL     1      27.114   4.324  49.235  1.00  0.00     0.056 A 
ENDBRANCH  10  12
ENDBRANCH   6  10
BRANCH   8  20
HETATM   20  O2  UNL     1      22.128   1.821  50.791  1.00  0.00    -0.348 OA
BRANCH  20  21
HETATM   21  C15 UNL     1      21.689   1.132  49.654  1.00  0.00     0.177 C 
BRANCH  21  22
HETATM   22  C16 UNL     1      22.186   1.843  48.404  1.00  0.00     0.057 C 
BRANCH  22  23
HETATM   23  C17 UNL     1      22.091   3.347  48.645  1.00  0.00     0.274 C 
BRANCH  23  24
HETATM   24  N3  UNL     1      22.173   4.034  47.385  1.00  0.00     0.092 N 
HETATM   25  C18 UNL     1      21.201   3.526  46.458  1.00  0.00     0.298 C 
HETATM   26  C19 UNL     1      21.597   3.949  45.059  1.00  0.00     0.198 C 
HETATM   27  O3  UNL     1      22.172   5.211  45.126  1.00  0.00    -0.388 OA
HETATM   28  C20 UNL     1      21.638   6.006  46.128  1.00  0.00     0.198 C 
HETATM   29  C21 UNL     1      22.039   5.460  47.494  1.00  0.00     0.298 C 
ENDBRANCH  23  24
ENDBRANCH  22  23
ENDBRANCH  21  22
ENDBRANCH  20  21
ENDBRANCH   8  20
BRANCH   1  30
HETATM   30  O1  UNL     1      21.689  -0.521  52.899  1.00  0.00    -0.353 OA
HETATM   31  C1  UNL     1      21.182  -0.863  54.173  1.00  0.00     0.210 C 
ENDBRANCH   1  30
TORSDOF 8
ENDMDL
MODEL 9
REMARK VINA RESULT:      -7.1      2.266      6.064
REMARK  8 active torsions:
REMARK  status: ('A' for Active; 'I' for Inactive)
REMARK    1  A    between atoms: O1_2  and  C2_3 
REMARK    2  A    between atoms: C6_8  and  N2_9 
REMARK    3  A    between atoms: N2_9  and  C7_10 
REMARK    4  A    between atoms: C14_19  and  O2_20 
REMARK    5  A    between atoms: O2_20  and  C15_21 
REMARK    6  A    between atoms: C15_21  and  C16_22 
REMARK    7  A    between atoms: C16_22  and  C17_23 
REMARK    8  A    between atoms: C17_23  and  N3_24 
ROOT
HETATM    1  C2  UNL     1      23.082  -0.463  53.778  1.00  0.00     0.103 C 
HETATM    2  C3  UNL     1      24.027  -1.008  54.581  1.00  0.00     0.066 C 
HETATM    3  C4  UNL     1      25.339  -0.485  54.229  1.00  0.00     0.035 C 
HETATM    4  N1  UNL     1      26.555  -0.667  53.858  1.00  0.00    -0.291 NA
HETATM    5  C5  UNL     1      27.006  -0.038  52.568  1.00  0.00     0.178 C 
HETATM    6  C6  UNL     1      25.860   0.689  51.811  1.00  0.00     0.134 C 
HETATM    7  C13 UNL     1      24.685   0.769  52.694  1.00  0.00    -0.014 C 
HETATM    8  C14 UNL     1      23.391   0.532  52.700  1.00  0.00     0.106 C 
HETATM    9  C22 UNL     1      25.292   1.071  54.094  1.00  0.00     0.098 C 
ENDROOT
BRANCH   6  10
HETATM   10  N2  UNL     1      26.229   1.923  51.242  1.00  0.00    -0.380 N 
HETATM   11  H8  UNL     1      27.273   1.968  51.479  1.00  0.00     0.160 HD
BRANCH  10  12
HETATM   12  C7  UNL     1      26.035   3.132  50.528  1.00  0.00     0.030 A 
HETATM   13  C8  UNL     1      26.850   3.674  49.527  1.00  0.00     0.032 A 
HETATM   14  C9  UNL     1      26.513   4.869  48.962  1.00  0.00     0.046 A 
HETATM   15  C10 UNL     1      25.387   5.545  49.360  1.00  0.00     0.138 A 
HETATM   16  F1  UNL     1      25.242   6.701  48.672  1.00  0.00    -0.204 F 
HETATM   17  C11 UNL     1      24.558   5.047  50.342  1.00  0.00     0.074 A 
HETATM   18 CL1  UNL     1      23.198   6.096  50.663  1.00  0.00    -0.081 Cl
HETATM   19  C12 UNL     1      24.913   3.839  50.903  1.00  0.00     0.056 A 
ENDBRANCH  10  12
ENDBRANCH   6  10
BRANCH   8  20
HETATM   20  O2  UNL     1      22.800   1.254  51.736  1.00  0.00    -0.348 OA
BRANCH  20  21
HETATM   21  C15 UNL     1      21.958   0.679  50.778  1.00  0.00     0.177 C 
BRANCH  21  22
HETATM   22  C16 UNL     1      22.080   1.442  49.468  1.00  0.00     0.057 C 
BRANCH  22  23
HETATM   23  C17 UNL     1      20.674   1.786  48.986  1.00  0.00     0.274 C 
BRANCH  23  24
HETATM   24  N3  UNL     1      19.912   2.314  50.085  1.00  0.00     0.092 N 
HETATM   25  C18 UNL     1      20.013   3.745  50.140  1.00  0.00     0.298 C 
HETATM   26  C19 UNL     1      19.580   4.210  51.514  1.00  0.00     0.198 C 
HETATM   27  O3  UNL     1      18.555   3.384  51.956  1.00  0.00    -0.388 OA
HETATM   28  C20 UNL     1      17.750   2.912  50.933  1.00  0.00     0.198 C 
HETATM   29  C21 UNL     1      18.529   1.926  50.069  1.00  0.00     0.298 C 
ENDBRANCH  23  24
ENDBRANCH  22  23
ENDBRANCH  21  22
ENDBRANCH  20  21
ENDBRANCH   8  20
BRANCH   1  30
HETATM   30  O1  UNL     1      21.761  -0.811  53.921  1.00  0.00    -0.353 OA
HETATM   31  C1  UNL     1      20.801   0.132  54.354  1.00  0.00     0.210 C 
ENDBRANCH   1  30
TORSDOF 8
ENDMDL
