MODEL 1
REMARK VINA RESULT:      -8.0      0.000      0.000
REMARK  3 active torsions:
REMARK  status: ('A' for Active; 'I' for Inactive)
REMARK    1  A    between atoms: C3_3  and  N1_4 
REMARK    2  A    between atoms: N1_4  and  C4_5 
REMARK    3  A    between atoms: C22_29  and  O2_30 
ROOT
HETATM    1  C1  UNL     1      23.179   7.499  45.834  1.00  0.00     0.014 C 
HETATM    2  C2  UNL     1      23.213   8.223  46.777  1.00  0.00    -0.098 C 
HETATM    3  C3  UNL     1      23.267   9.096  47.923  1.00  0.00     0.215 C 
ENDROOT
BRANCH   3   4
HETATM    4  N1  UNL     1      22.643   8.464  49.109  1.00  0.00    -0.364 N 
HETATM    5  H4  UNL     1      21.698   8.532  49.637  1.00  0.00     0.162 HD
BRANCH   4   6
HETATM    6  C4  UNL     1      23.572   7.531  49.714  1.00  0.00     0.132 C 
HETATM    7  N2  UNL     1      24.891   7.550  49.651  1.00  0.00    -0.242 NA
HETATM    8  C5  UNL     1      25.772   6.390  49.695  1.00  0.00     0.140 C 
HETATM    9  C6  UNL     1      25.410   5.167  50.172  1.00  0.00     0.073 C 
HETATM   10  C7  UNL     1      26.252   4.107  49.667  1.00  0.00     0.099 C 
HETATM   11  C8  UNL     1      24.393   4.697  51.060  1.00  0.00     0.123 C 
HETATM   12  N3  UNL     1      26.929   3.237  49.257  1.00  0.00    -0.192 NA
HETATM   13  N4  UNL     1      24.936   3.796  52.105  1.00  0.00    -0.397 N 
HETATM   14  C17 UNL     1      23.289   3.797  50.469  1.00  0.00     0.186 C 
HETATM   15  C22 UNL     1      23.529   5.812  51.695  1.00  0.00     0.190 C 
HETATM   16  C9  UNL     1      24.513   2.737  52.983  1.00  0.00     0.135 C 
HETATM   17  H6  UNL     1      25.952   3.924  52.319  1.00  0.00     0.155 HD
HETATM   18  C10 UNL     1      23.559   1.780  53.058  1.00  0.00     0.021 C 
HETATM   19  C11 UNL     1      22.382   0.981  52.647  1.00  0.00    -0.019 C 
HETATM   20  C12 UNL     1      21.541   0.982  51.591  1.00  0.00    -0.052 C 
HETATM   21  C13 UNL     1      20.510  -0.115  51.782  1.00  0.00     0.046 C 
HETATM   22  C14 UNL     1      21.316   1.707  50.302  1.00  0.00     0.234 C 
HETATM   23  F1  UNL     1      22.232   1.352  49.328  1.00  0.00    -0.242 F 
HETATM   24  C15 UNL     1      20.787   3.069  50.321  1.00  0.00     0.284 C 
HETATM   25  C16 UNL     1      21.201   3.653  51.657  1.00  0.00     0.207 C 
HETATM   26  N5  UNL     1      21.220   4.051  49.398  1.00  0.00     0.104 N 
HETATM   27  O1  UNL     1      22.480   3.779  51.558  1.00  0.00    -0.379 OA
HETATM   28  C18 UNL     1      22.679   4.089  49.184  1.00  0.00     0.308 C 
HETATM   29  C19 UNL     1      20.722   5.374  49.659  1.00  0.00     0.301 C 
HETATM   30  C20 UNL     1      21.854   6.388  49.603  1.00  0.00     0.016 C 
HETATM   31  C21 UNL     1      22.896   6.433  50.477  1.00  0.00     0.017 C 
BRANCH  15  32
HETATM   32  O2  UNL     1      24.421   6.669  52.300  1.00  0.00    -0.388 OA
HETATM   33  H24 UNL     1      25.083   6.247  52.871  1.00  0.00     0.210 HD
ENDBRANCH  15  32
ENDBRANCH   4   6
ENDBRANCH   3   4
TORSDOF 3
ENDMDL
MODEL 2
REMARK VINA RESULT:      -7.7      5.711      9.467
REMARK  3 active torsions:
REMARK  status: ('A' for Active; 'I' for Inactive)
REMARK    1  A    between atoms: C3_3  and  N1_4 
REMARK    2  A    between atoms: N1_4  and  C4_5 
REMARK    3  A    between atoms: C22_29  and  O2_30 
ROOT
HETATM    1  C1  UNL     1      23.358   4.300  48.690  1.00  0.00     0.014 C 
HETATM    2  C2  UNL     1      24.104   4.971  49.329  1.00  0.00    -0.098 C 
HETATM    3  C3  UNL     1      25.000   5.796  50.100  1.00  0.00     0.215 C 
ENDROOT
BRANCH   3   4
HETATM    4  N1  UNL     1      26.193   6.177  49.309  1.00  0.00    -0.364 N 
HETATM    5  H4  UNL     1      26.956   5.667  48.730  1.00  0.00     0.162 HD
BRANCH   4   6
HETATM    6  C4  UNL     1      26.377   7.613  49.358  1.00  0.00     0.132 C 
HETATM    7  N2  UNL     1      25.448   8.540  49.517  1.00  0.00    -0.242 NA
HETATM    8  C5  UNL     1      25.485   9.896  48.982  1.00  0.00     0.140 C 
HETATM    9  C6  UNL     1      26.617  10.527  48.564  1.00  0.00     0.073 C 
HETATM   10  C7  UNL     1      26.337  11.613  47.655  1.00  0.00     0.099 C 
HETATM   11  C8  UNL     1      28.013  10.362  48.825  1.00  0.00     0.123 C 
HETATM   12  N3  UNL     1      26.121  12.497  46.909  1.00  0.00    -0.192 NA
HETATM   13  N4  UNL     1      28.671  11.643  49.181  1.00  0.00    -0.397 N 
HETATM   14  C17 UNL     1      28.909   9.910  47.655  1.00  0.00     0.186 C 
HETATM   15  C22 UNL     1      28.347   9.268  49.866  1.00  0.00     0.190 C 
HETATM   16  C9  UNL     1      29.970  12.261  49.166  1.00  0.00     0.135 C 
HETATM   17  H6  UNL     1      28.036  12.373  49.577  1.00  0.00     0.155 HD
HETATM   18  C10 UNL     1      31.148  12.170  48.506  1.00  0.00     0.021 C 
HETATM   19  C11 UNL     1      32.135  11.662  47.527  1.00  0.00    -0.019 C 
HETATM   20  C12 UNL     1      32.140  10.705  46.575  1.00  0.00    -0.052 C 
HETATM   21  C13 UNL     1      33.504  10.681  45.909  1.00  0.00     0.046 C 
HETATM   22  C14 UNL     1      31.233   9.683  45.969  1.00  0.00     0.234 C 
HETATM   23  F1  UNL     1      30.288  10.245  45.128  1.00  0.00    -0.242 F 
HETATM   24  C15 UNL     1      30.888   8.482  46.727  1.00  0.00     0.284 C 
HETATM   25  C16 UNL     1      31.012   8.868  48.187  1.00  0.00     0.207 C 
HETATM   26  N5  UNL     1      29.598   7.903  46.661  1.00  0.00     0.104 N 
HETATM   27  O1  UNL     1      30.037   9.688  48.376  1.00  0.00    -0.379 OA
HETATM   28  C18 UNL     1      28.488   8.870  46.733  1.00  0.00     0.308 C 
HETATM   29  C19 UNL     1      29.382   6.826  47.589  1.00  0.00     0.301 C 
HETATM   30  C20 UNL     1      28.064   7.019  48.326  1.00  0.00     0.016 C 
HETATM   31  C21 UNL     1      27.804   8.035  49.193  1.00  0.00     0.017 C 
BRANCH  15  32
HETATM   32  O2  UNL     1      27.623   9.596  50.991  1.00  0.00    -0.388 OA
HETATM   33  H24 UNL     1      26.905  10.235  50.852  1.00  0.00     0.210 HD
ENDBRANCH  15  32
ENDBRANCH   4   6
ENDBRANCH   3   4
TORSDOF 3
ENDMDL
MODEL 3
REMARK VINA RESULT:      -7.6      6.838      9.678
REMARK  3 active torsions:
REMARK  status: ('A' for Active; 'I' for Inactive)
REMARK    1  A    between atoms: C3_3  and  N1_4 
REMARK    2  A    between atoms: N1_4  and  C4_5 
REMARK    3  A    between atoms: C22_29  and  O2_30 
ROOT
HETATM    1  C1  UNL     1      24.215   8.334  50.169  1.00  0.00     0.014 C 
HETATM    2  C2  UNL     1      25.337   8.693  50.003  1.00  0.00    -0.098 C 
HETATM    3  C3  UNL     1      26.692   9.140  49.795  1.00  0.00     0.215 C 
ENDROOT
BRANCH   3   4
HETATM    4  N1  UNL     1      27.324   8.427  48.660  1.00  0.00    -0.364 N 
HETATM    5  H4  UNL     1      27.057   7.623  47.981  1.00  0.00     0.162 HD
BRANCH   4   6
HETATM    6  C4  UNL     1      28.657   8.948  48.435  1.00  0.00     0.132 C 
HETATM    7  N2  UNL     1      28.991  10.149  47.997  1.00  0.00    -0.242 NA
HETATM    8  C5  UNL     1      30.174  10.482  47.214  1.00  0.00     0.140 C 
HETATM    9  C6  UNL     1      31.286   9.701  47.131  1.00  0.00     0.073 C 
HETATM   10  C7  UNL     1      32.074   9.988  45.955  1.00  0.00     0.099 C 
HETATM   11  C8  UNL     1      31.850   8.668  47.943  1.00  0.00     0.123 C 
HETATM   12  N3  UNL     1      32.720  10.211  44.998  1.00  0.00    -0.192 NA
HETATM   13  N4  UNL     1      33.291   8.893  48.212  1.00  0.00    -0.397 N 
HETATM   14  C17 UNL     1      31.900   7.244  47.354  1.00  0.00     0.186 C 
HETATM   15  C22 UNL     1      31.085   8.395  49.259  1.00  0.00     0.190 C 
HETATM   16  C9  UNL     1      34.481   8.159  48.555  1.00  0.00     0.135 C 
HETATM   17  H6  UNL     1      33.606   9.887  48.146  1.00  0.00     0.155 HD
HETATM   18  C10 UNL     1      34.989   6.910  48.444  1.00  0.00     0.021 C 
HETATM   19  C11 UNL     1      35.039   5.477  48.074  1.00  0.00    -0.019 C 
HETATM   20  C12 UNL     1      34.206   4.615  47.454  1.00  0.00    -0.052 C 
HETATM   21  C13 UNL     1      34.866   3.249  47.395  1.00  0.00     0.046 C 
HETATM   22  C14 UNL     1      32.860   4.585  46.805  1.00  0.00     0.234 C 
HETATM   23  F1  UNL     1      32.860   5.183  45.557  1.00  0.00    -0.242 F 
HETATM   24  C15 UNL     1      31.656   4.660  47.631  1.00  0.00     0.284 C 
HETATM   25  C16 UNL     1      32.067   5.398  48.890  1.00  0.00     0.207 C 
HETATM   26  N5  UNL     1      30.505   5.367  47.210  1.00  0.00     0.104 N 
HETATM   27  O1  UNL     1      32.285   6.602  48.486  1.00  0.00    -0.379 OA
HETATM   28  C18 UNL     1      30.780   6.688  46.615  1.00  0.00     0.308 C 
HETATM   29  C19 UNL     1      29.476   5.475  48.208  1.00  0.00     0.301 C 
HETATM   30  C20 UNL     1      28.984   6.912  48.308  1.00  0.00     0.016 C 
HETATM   31  C21 UNL     1      29.739   7.959  48.740  1.00  0.00     0.017 C 
BRANCH  15  32
HETATM   32  O2  UNL     1      31.014   9.611  49.902  1.00  0.00    -0.388 OA
HETATM   33  H24 UNL     1      30.170  10.081  49.813  1.00  0.00     0.210 HD
ENDBRANCH  15  32
ENDBRANCH   4   6
ENDBRANCH   3   4
TORSDOF 3
ENDMDL
MODEL 4
REMARK VINA RESULT:      -6.9      2.444      4.742
REMARK  3 active torsions:
REMARK  status: ('A' for Active; 'I' for Inactive)
REMARK    1  A    between atoms: C3_3  and  N1_4 
REMARK    2  A    between atoms: N1_4  and  C4_5 
REMARK    3  A    between atoms: C22_29  and  O2_30 
ROOT
HETATM    1  C1  UNL     1      20.095   8.079  47.657  1.00  0.00     0.014 C 
HETATM    2  C2  UNL     1      20.268   7.254  46.818  1.00  0.00    -0.098 C 
HETATM    3  C3  UNL     1      20.465   6.246  45.806  1.00  0.00     0.215 C 
ENDROOT
BRANCH   3   4
HETATM    4  N1  UNL     1      21.463   5.240  46.238  1.00  0.00    -0.364 N 
HETATM    5  H4  UNL     1      22.493   4.994  46.002  1.00  0.00     0.162 HD
BRANCH   4   6
HETATM    6  C4  UNL     1      20.872   4.352  47.218  1.00  0.00     0.132 C 
HETATM    7  N2  UNL     1      19.588   4.119  47.426  1.00  0.00    -0.242 NA
HETATM    8  C5  UNL     1      18.973   3.763  48.698  1.00  0.00     0.140 C 
HETATM    9  C6  UNL     1      19.651   3.258  49.765  1.00  0.00     0.073 C 
HETATM   10  C7  UNL     1      18.943   3.453  51.009  1.00  0.00     0.099 C 
HETATM   11  C8  UNL     1      20.897   2.578  49.932  1.00  0.00     0.123 C 
HETATM   12  N3  UNL     1      18.377   3.610  52.028  1.00  0.00    -0.192 NA
HETATM   13  N4  UNL     1      20.759   1.352  50.756  1.00  0.00    -0.397 N 
HETATM   14  C17 UNL     1      22.010   3.307  50.711  1.00  0.00     0.186 C 
HETATM   15  C22 UNL     1      21.642   2.268  48.613  1.00  0.00     0.190 C 
HETATM   16  C9  UNL     1      21.546   0.490  51.598  1.00  0.00     0.135 C 
HETATM   17  H6  UNL     1      19.803   0.930  50.769  1.00  0.00     0.155 HD
HETATM   18  C10 UNL     1      22.661   0.535  52.364  1.00  0.00     0.021 C 
HETATM   19  C11 UNL     1      23.861   1.116  53.007  1.00  0.00    -0.019 C 
HETATM   20  C12 UNL     1      24.454   2.328  53.015  1.00  0.00    -0.052 C 
HETATM   21  C13 UNL     1      25.693   2.263  53.889  1.00  0.00     0.046 C 
HETATM   22  C14 UNL     1      24.271   3.701  52.450  1.00  0.00     0.234 C 
HETATM   23  F1  UNL     1      23.262   4.404  53.083  1.00  0.00    -0.242 F 
HETATM   24  C15 UNL     1      24.523   3.938  51.030  1.00  0.00     0.284 C 
HETATM   25  C16 UNL     1      24.283   2.609  50.342  1.00  0.00     0.207 C 
HETATM   26  N5  UNL     1      23.732   4.834  50.272  1.00  0.00     0.104 N 
HETATM   27  O1  UNL     1      23.011   2.431  50.443  1.00  0.00    -0.379 OA
HETATM   28  C18 UNL     1      22.281   4.719  50.505  1.00  0.00     0.308 C 
HETATM   29  C19 UNL     1      24.011   4.827  48.861  1.00  0.00     0.301 C 
HETATM   30  C20 UNL     1      22.717   4.730  48.066  1.00  0.00     0.016 C 
HETATM   31  C21 UNL     1      21.885   3.653  48.072  1.00  0.00     0.017 C 
BRANCH  15  32
HETATM   32  O2  UNL     1      20.744   1.568  47.839  1.00  0.00    -0.388 OA
HETATM   33  H24 UNL     1      20.310   0.820  48.278  1.00  0.00     0.210 HD
ENDBRANCH  15  32
ENDBRANCH   4   6
ENDBRANCH   3   4
TORSDOF 3
ENDMDL
MODEL 5
REMARK VINA RESULT:      -6.8     24.162     27.148
REMARK  3 active torsions:
REMARK  status: ('A' for Active; 'I' for Inactive)
REMARK    1  A    between atoms: C3_3  and  N1_4 
REMARK    2  A    between atoms: N1_4  and  C4_5 
REMARK    3  A    between atoms: C22_29  and  O2_30 
ROOT
HETATM    1  C1  UNL     1      44.342   0.610  73.557  1.00  0.00     0.014 C 
HETATM    2  C2  UNL     1      44.738   0.819  72.455  1.00  0.00    -0.098 C 
HETATM    3  C3  UNL     1      45.206   1.080  71.117  1.00  0.00     0.215 C 
ENDROOT
BRANCH   3   4
HETATM    4  N1  UNL     1      44.816  -0.008  70.189  1.00  0.00    -0.364 N 
HETATM    5  H4  UNL     1      45.224  -0.960  69.868  1.00  0.00     0.162 HD
BRANCH   4   6
HETATM    6  C4  UNL     1      43.565   0.328  69.538  1.00  0.00     0.132 C 
HETATM    7  N2  UNL     1      43.014   1.523  69.418  1.00  0.00    -0.242 NA
HETATM    8  C5  UNL     1      41.587   1.809  69.345  1.00  0.00     0.140 C 
HETATM    9  C6  UNL     1      40.634   0.891  69.021  1.00  0.00     0.073 C 
HETATM   10  C7  UNL     1      39.321   1.271  69.488  1.00  0.00     0.099 C 
HETATM   11  C8  UNL     1      40.639  -0.356  68.321  1.00  0.00     0.123 C 
HETATM   12  N3  UNL     1      38.249   1.570  69.868  1.00  0.00    -0.192 NA
HETATM   13  N4  UNL     1      39.578  -0.420  67.286  1.00  0.00    -0.397 N 
HETATM   14  C17 UNL     1      40.311  -1.628  69.128  1.00  0.00     0.186 C 
HETATM   15  C22 UNL     1      42.009  -0.753  67.725  1.00  0.00     0.190 C 
HETATM   16  C9  UNL     1      38.795  -1.386  66.562  1.00  0.00     0.135 C 
HETATM   17  H6  UNL     1      39.253   0.506  66.925  1.00  0.00     0.155 HD
HETATM   18  C10 UNL     1      38.343  -2.655  66.695  1.00  0.00     0.021 C 
HETATM   19  C11 UNL     1      38.136  -3.978  67.327  1.00  0.00    -0.019 C 
HETATM   20  C12 UNL     1      38.513  -4.560  68.485  1.00  0.00    -0.052 C 
HETATM   21  C13 UNL     1      37.967  -5.975  68.525  1.00  0.00     0.046 C 
HETATM   22  C14 UNL     1      39.279  -4.248  69.730  1.00  0.00     0.234 C 
HETATM   23  F1  UNL     1      38.576  -3.428  70.594  1.00  0.00    -0.242 F 
HETATM   24  C15 UNL     1      40.737  -4.145  69.677  1.00  0.00     0.284 C 
HETATM   25  C16 UNL     1      41.067  -3.739  68.254  1.00  0.00     0.207 C 
HETATM   26  N5  UNL     1      41.446  -3.195  70.450  1.00  0.00     0.104 N 
HETATM   27  O1  UNL     1      40.631  -2.530  68.166  1.00  0.00    -0.379 OA
HETATM   28  C18 UNL     1      40.853  -1.845  70.458  1.00  0.00     0.308 C 
HETATM   29  C19 UNL     1      42.851  -3.120  70.156  1.00  0.00     0.301 C 
HETATM   30  C20 UNL     1      43.278  -1.670  69.976  1.00  0.00     0.016 C 
HETATM   31  C21 UNL     1      42.858  -0.861  68.965  1.00  0.00     0.017 C 
BRANCH  15  32
HETATM   32  O2  UNL     1      42.390   0.310  66.937  1.00  0.00    -0.388 OA
HETATM   33  H24 UNL     1      41.874   1.123  67.057  1.00  0.00     0.210 HD
ENDBRANCH  15  32
ENDBRANCH   4   6
ENDBRANCH   3   4
TORSDOF 3
ENDMDL
MODEL 6
REMARK VINA RESULT:      -6.7      8.392     11.379
REMARK  3 active torsions:
REMARK  status: ('A' for Active; 'I' for Inactive)
REMARK    1  A    between atoms: C3_3  and  N1_4 
REMARK    2  A    between atoms: N1_4  and  C4_5 
REMARK    3  A    between atoms: C22_29  and  O2_30 
ROOT
HETATM    1  C1  UNL     1      34.554   5.222  40.685  1.00  0.00     0.014 C 
HETATM    2  C2  UNL     1      34.341   4.994  41.832  1.00  0.00    -0.098 C 
HETATM    3  C3  UNL     1      34.069   4.722  43.221  1.00  0.00     0.215 C 
ENDROOT
BRANCH   3   4
HETATM    4  N1  UNL     1      34.543   5.826  44.088  1.00  0.00    -0.364 N 
HETATM    5  H4  UNL     1      35.270   6.628  44.022  1.00  0.00     0.162 HD
BRANCH   4   6
HETATM    6  C4  UNL     1      33.850   5.784  45.360  1.00  0.00     0.132 C 
HETATM    7  N2  UNL     1      33.481   4.715  46.043  1.00  0.00    -0.242 NA
HETATM    8  C5  UNL     1      32.326   4.614  46.926  1.00  0.00     0.140 C 
HETATM    9  C6  UNL     1      31.676   5.681  47.467  1.00  0.00     0.073 C 
HETATM   10  C7  UNL     1      30.329   5.357  47.874  1.00  0.00     0.099 C 
HETATM   11  C8  UNL     1      32.026   7.043  47.727  1.00  0.00     0.123 C 
HETATM   12  N3  UNL     1      29.229   5.105  48.204  1.00  0.00    -0.192 NA
HETATM   13  N4  UNL     1      31.690   7.452  49.112  1.00  0.00    -0.397 N 
HETATM   14  C17 UNL     1      31.283   8.135  46.931  1.00  0.00     0.186 C 
HETATM   15  C22 UNL     1      33.491   7.406  47.389  1.00  0.00     0.190 C 
HETATM   16  C9  UNL     1      31.397   8.635  49.877  1.00  0.00     0.135 C 
HETATM   17  H6  UNL     1      31.634   6.671  49.805  1.00  0.00     0.155 HD
HETATM   18  C10 UNL     1      30.913   9.886  49.695  1.00  0.00     0.021 C 
HETATM   19  C11 UNL     1      30.366  11.053  48.967  1.00  0.00    -0.019 C 
HETATM   20  C12 UNL     1      30.043  11.319  47.683  1.00  0.00    -0.052 C 
HETATM   21  C13 UNL     1      29.526  12.743  47.591  1.00  0.00     0.046 C 
HETATM   22  C14 UNL     1      30.025  10.657  46.343  1.00  0.00     0.234 C 
HETATM   23  F1  UNL     1      28.987   9.751  46.214  1.00  0.00    -0.242 F 
HETATM   24  C15 UNL     1      31.283  10.405  45.642  1.00  0.00     0.284 C 
HETATM   25  C16 UNL     1      32.338  10.288  46.723  1.00  0.00     0.207 C 
HETATM   26  N5  UNL     1      31.486   9.236  44.872  1.00  0.00     0.104 N 
HETATM   27  O1  UNL     1      32.049   9.185  47.323  1.00  0.00    -0.379 OA
HETATM   28  C18 UNL     1      31.017   7.992  45.511  1.00  0.00     0.308 C 
HETATM   29  C19 UNL     1      32.829   9.069  44.387  1.00  0.00     0.301 C 
HETATM   30  C20 UNL     1      33.322   7.656  44.665  1.00  0.00     0.016 C 
HETATM   31  C21 UNL     1      33.534   7.142  45.907  1.00  0.00     0.017 C 
BRANCH  15  32
HETATM   32  O2  UNL     1      34.263   6.506  48.091  1.00  0.00    -0.388 OA
HETATM   33  H24 UNL     1      34.882   5.982  47.557  1.00  0.00     0.210 HD
ENDBRANCH  15  32
ENDBRANCH   4   6
ENDBRANCH   3   4
TORSDOF 3
ENDMDL
MODEL 7
REMARK VINA RESULT:      -6.4      2.323      4.475
REMARK  3 active torsions:
REMARK  status: ('A' for Active; 'I' for Inactive)
REMARK    1  A    between atoms: C3_3  and  N1_4 
REMARK    2  A    between atoms: N1_4  and  C4_5 
REMARK    3  A    between atoms: C22_29  and  O2_30 
ROOT
HETATM    1  C1  UNL     1      23.665   7.820  42.950  1.00  0.00     0.014 C 
HETATM    2  C2  UNL     1      23.008   7.908  43.937  1.00  0.00    -0.098 C 
HETATM    3  C3  UNL     1      22.218   8.027  45.138  1.00  0.00     0.215 C 
ENDROOT
BRANCH   3   4
HETATM    4  N1  UNL     1      22.796   7.226  46.242  1.00  0.00    -0.364 N 
HETATM    5  H4  UNL     1      23.739   7.179  46.778  1.00  0.00     0.162 HD
BRANCH   4   6
HETATM    6  C4  UNL     1      21.833   6.240  46.690  1.00  0.00     0.132 C 
HETATM    7  N2  UNL     1      20.526   6.241  46.493  1.00  0.00    -0.242 NA
HETATM    8  C5  UNL     1      19.522   5.671  47.382  1.00  0.00     0.140 C 
HETATM    9  C6  UNL     1      19.783   4.742  48.342  1.00  0.00     0.073 C 
HETATM   10  C7  UNL     1      18.770   4.714  49.371  1.00  0.00     0.099 C 
HETATM   11  C8  UNL     1      20.827   3.790  48.560  1.00  0.00     0.123 C 
HETATM   12  N3  UNL     1      17.952   4.686  50.216  1.00  0.00    -0.192 NA
HETATM   13  N4  UNL     1      20.297   2.437  48.859  1.00  0.00    -0.397 N 
HETATM   14  C17 UNL     1      21.743   4.001  49.783  1.00  0.00     0.186 C 
HETATM   15  C22 UNL     1      21.884   3.726  47.433  1.00  0.00     0.190 C 
HETATM   16  C9  UNL     1      20.682   1.218  49.519  1.00  0.00     0.135 C 
HETATM   17  H6  UNL     1      19.334   2.248  48.498  1.00  0.00     0.155 HD
HETATM   18  C10 UNL     1      21.516   0.794  50.497  1.00  0.00     0.021 C 
HETATM   19  C11 UNL     1      22.536   0.888  51.566  1.00  0.00    -0.019 C 
HETATM   20  C12 UNL     1      23.250   1.887  52.128  1.00  0.00    -0.052 C 
HETATM   21  C13 UNL     1      24.156   1.303  53.196  1.00  0.00     0.046 C 
HETATM   22  C14 UNL     1      23.418   3.370  52.038  1.00  0.00     0.234 C 
HETATM   23  F1  UNL     1      22.365   4.058  52.612  1.00  0.00    -0.242 F 
HETATM   24  C15 UNL     1      24.108   3.951  50.887  1.00  0.00     0.284 C 
HETATM   25  C16 UNL     1      23.915   2.966  49.752  1.00  0.00     0.207 C 
HETATM   26  N5  UNL     1      23.697   5.179  50.314  1.00  0.00     0.104 N 
HETATM   27  O1  UNL     1      22.658   3.046  49.480  1.00  0.00    -0.379 OA
HETATM   28  C18 UNL     1      22.240   5.318  50.141  1.00  0.00     0.308 C 
HETATM   29  C19 UNL     1      24.378   5.523  49.096  1.00  0.00     0.301 C 
HETATM   30  C20 UNL     1      23.377   5.945  48.030  1.00  0.00     0.016 C 
HETATM   31  C21 UNL     1      22.450   5.121  47.470  1.00  0.00     0.017 C 
BRANCH  15  32
HETATM   32  O2  UNL     1      21.174   3.494  46.276  1.00  0.00    -0.388 OA
HETATM   33  H24 UNL     1      20.355   4.007  46.179  1.00  0.00     0.210 HD
ENDBRANCH  15  32
ENDBRANCH   4   6
ENDBRANCH   3   4
TORSDOF 3
ENDMDL
MODEL 8
REMARK VINA RESULT:      -6.3      7.960     10.293
REMARK  3 active torsions:
REMARK  status: ('A' for Active; 'I' for Inactive)
REMARK    1  A    between atoms: C3_3  and  N1_4 
REMARK    2  A    between atoms: N1_4  and  C4_5 
REMARK    3  A    between atoms: C22_29  and  O2_30 
ROOT
HETATM    1  C1  UNL     1      24.310  11.599  47.184  1.00  0.00     0.014 C 
HETATM    2  C2  UNL     1      25.310  12.100  47.592  1.00  0.00    -0.098 C 
HETATM    3  C3  UNL     1      26.526  12.707  48.072  1.00  0.00     0.215 C 
ENDROOT
BRANCH   3   4
HETATM    4  N1  UNL     1      27.475  11.686  48.572  1.00  0.00    -0.364 N 
HETATM    5  H4  UNL     1      27.473  10.904  49.324  1.00  0.00     0.162 HD
BRANCH   4   6
HETATM    6  C4  UNL     1      28.736  11.800  47.867  1.00  0.00     0.132 C 
HETATM    7  N2  UNL     1      29.035  12.623  46.878  1.00  0.00    -0.242 NA
HETATM    8  C5  UNL     1      29.986  12.367  45.804  1.00  0.00     0.140 C 
HETATM    9  C6  UNL     1      30.967  11.424  45.853  1.00  0.00     0.073 C 
HETATM   10  C7  UNL     1      31.429  11.040  44.540  1.00  0.00     0.099 C 
HETATM   11  C8  UNL     1      31.644  10.734  46.907  1.00  0.00     0.123 C 
HETATM   12  N3  UNL     1      31.809  10.717  43.475  1.00  0.00    -0.192 NA
HETATM   13  N4  UNL     1      33.118  10.769  46.742  1.00  0.00    -0.397 N 
HETATM   14  C17 UNL     1      31.418   9.214  47.026  1.00  0.00     0.186 C 
HETATM   15  C22 UNL     1      31.242  11.184  48.331  1.00  0.00     0.190 C 
HETATM   16  C9  UNL     1      34.292  10.031  47.125  1.00  0.00     0.135 C 
HETATM   17  H6  UNL     1      33.483  11.566  46.173  1.00  0.00     0.155 HD
HETATM   18  C10 UNL     1      34.649   8.776  47.487  1.00  0.00     0.021 C 
HETATM   19  C11 UNL     1      34.481   7.339  47.799  1.00  0.00    -0.019 C 
HETATM   20  C12 UNL     1      33.444   6.475  47.820  1.00  0.00    -0.052 C 
HETATM   21  C13 UNL     1      33.951   5.109  48.247  1.00  0.00     0.046 C 
HETATM   22  C14 UNL     1      31.975   6.437  47.547  1.00  0.00     0.234 C 
HETATM   23  F1  UNL     1      31.687   6.451  46.194  1.00  0.00    -0.242 F 
HETATM   24  C15 UNL     1      31.049   7.077  48.480  1.00  0.00     0.284 C 
HETATM   25  C16 UNL     1      31.842   8.177  49.156  1.00  0.00     0.207 C 
HETATM   26  N5  UNL     1      29.888   7.752  48.033  1.00  0.00     0.104 N 
HETATM   27  O1  UNL     1      32.040   9.039  48.219  1.00  0.00    -0.379 OA
HETATM   28  C18 UNL     1      30.099   8.627  46.865  1.00  0.00     0.308 C 
HETATM   29  C19 UNL     1      29.178   8.460  49.064  1.00  0.00     0.301 C 
HETATM   30  C20 UNL     1      28.850   9.874  48.606  1.00  0.00     0.016 C 
HETATM   31  C21 UNL     1      29.776  10.839  48.355  1.00  0.00     0.017 C 
BRANCH  15  32
HETATM   32  O2  UNL     1      31.447  12.546  48.358  1.00  0.00    -0.388 OA
HETATM   33  H24 UNL     1      31.654  12.953  47.502  1.00  0.00     0.210 HD
ENDBRANCH  15  32
ENDBRANCH   4   6
ENDBRANCH   3   4
TORSDOF 3
ENDMDL
MODEL 9
REMARK VINA RESULT:      -6.3      3.162      6.936
REMARK  3 active torsions:
REMARK  status: ('A' for Active; 'I' for Inactive)
REMARK    1  A    between atoms: C3_3  and  N1_4 
REMARK    2  A    between atoms: N1_4  and  C4_5 
REMARK    3  A    between atoms: C22_29  and  O2_30 
ROOT
HETATM    1  C1  UNL     1      23.889   0.427  53.328  1.00  0.00     0.014 C 
HETATM    2  C2  UNL     1      22.766   0.122  53.084  1.00  0.00    -0.098 C 
HETATM    3  C3  UNL     1      21.409  -0.262  52.786  1.00  0.00     0.215 C 
ENDROOT
BRANCH   3   4
HETATM    4  N1  UNL     1      21.053   0.069  51.386  1.00  0.00    -0.364 N 
HETATM    5  H4  UNL     1      21.171  -0.389  50.409  1.00  0.00     0.162 HD
BRANCH   4   6
HETATM    6  C4  UNL     1      20.394   1.359  51.338  1.00  0.00     0.132 C 
HETATM    7  N2  UNL     1      19.279   1.718  51.949  1.00  0.00    -0.242 NA
HETATM    8  C5  UNL     1      18.317   2.704  51.473  1.00  0.00     0.140 C 
HETATM    9  C6  UNL     1      18.589   3.656  50.539  1.00  0.00     0.073 C 
HETATM   10  C7  UNL     1      17.395   4.159  49.901  1.00  0.00     0.099 C 
HETATM   11  C8  UNL     1      19.784   4.273  50.053  1.00  0.00     0.123 C 
HETATM   12  N3  UNL     1      16.429   4.571  49.371  1.00  0.00    -0.192 NA
HETATM   13  N4  UNL     1      19.680   5.752  50.028  1.00  0.00    -0.397 N 
HETATM   14  C17 UNL     1      20.183   4.001  48.589  1.00  0.00     0.186 C 
HETATM   15  C22 UNL     1      21.077   3.828  50.778  1.00  0.00     0.190 C 
HETATM   16  C9  UNL     1      20.248   6.891  49.357  1.00  0.00     0.135 C 
HETATM   17  H6  UNL     1      18.985   6.160  50.694  1.00  0.00     0.155 HD
HETATM   18  C10 UNL     1      20.859   7.199  48.189  1.00  0.00     0.021 C 
HETATM   19  C11 UNL     1      21.434   6.981  46.842  1.00  0.00    -0.019 C 
HETATM   20  C12 UNL     1      21.576   5.922  46.018  1.00  0.00    -0.052 C 
HETATM   21  C13 UNL     1      22.279   6.375  44.751  1.00  0.00     0.046 C 
HETATM   22  C14 UNL     1      21.252   4.464  45.956  1.00  0.00     0.234 C 
HETATM   23  F1  UNL     1      19.910   4.229  45.713  1.00  0.00    -0.242 F 
HETATM   24  C15 UNL     1      22.003   3.519  46.781  1.00  0.00     0.284 C 
HETATM   25  C16 UNL     1      22.489   4.315  47.976  1.00  0.00     0.207 C 
HETATM   26  N5  UNL     1      21.385   2.395  47.378  1.00  0.00     0.104 N 
HETATM   27  O1  UNL     1      21.413   4.572  48.636  1.00  0.00    -0.379 OA
HETATM   28  C18 UNL     1      20.081   2.675  48.007  1.00  0.00     0.308 C 
HETATM   29  C19 UNL     1      22.228   1.665  48.285  1.00  0.00     0.301 C 
HETATM   30  C20 UNL     1      21.494   1.393  49.590  1.00  0.00     0.016 C 
HETATM   31  C21 UNL     1      21.102   2.354  50.471  1.00  0.00     0.017 C 
BRANCH  15  32
HETATM   32  O2  UNL     1      20.850   4.068  52.115  1.00  0.00    -0.388 OA
HETATM   33  H24 UNL     1      21.479   3.651  52.725  1.00  0.00     0.210 HD
ENDBRANCH  15  32
ENDBRANCH   4   6
ENDBRANCH   3   4
TORSDOF 3
ENDMDL
