MODEL 1
REMARK VINA RESULT:      -8.7      0.000      0.000
REMARK  7 active torsions:
REMARK  status: ('A' for Active; 'I' for Inactive)
REMARK    1  A    between atoms: O1_2  and  C2_3 
REMARK    2  A    between atoms: C6_9  and  C7_10 
REMARK    3  A    between atoms: C10_13  and  O2_14 
REMARK    4  A    between atoms: O2_14  and  C11_15 
REMARK    5  A    between atoms: C15_20  and  N4_21 
REMARK    6  A    between atoms: C20_26  and  C21_27 
REMARK    7  A    between atoms: C21_27  and  C22_28 
ROOT
HETATM    1  C7  UNL     1      25.940   4.605  49.470  1.00  0.00    -0.006 A 
HETATM    2  C8  UNL     1      25.572   5.945  49.400  1.00  0.00     0.016 A 
HETATM    3  C9  UNL     1      26.394   6.913  48.864  1.00  0.00     0.038 A 
HETATM    4  C10 UNL     1      27.637   6.579  48.369  1.00  0.00     0.076 A 
HETATM    5  C16 UNL     1      28.010   5.235  48.439  1.00  0.00     0.038 A 
HETATM    6  C17 UNL     1      27.182   4.274  48.975  1.00  0.00     0.016 A 
ENDROOT
BRANCH   1   7
HETATM    7  C6  UNL     1      24.904   3.800  50.093  1.00  0.00     0.081 A 
HETATM    8  N2  UNL     1      23.617   4.059  49.726  1.00  0.00    -0.240 NA
HETATM    9  C5  UNL     1      22.567   3.379  50.230  1.00  0.00     0.234 A 
HETATM   10  N1  UNL     1      22.742   2.383  51.148  1.00  0.00    -0.241 NA
HETATM   11  C4  UNL     1      23.991   2.079  51.551  1.00  0.00     0.073 A 
HETATM   12  C3  UNL     1      24.250   1.080  52.464  1.00  0.00     0.069 A 
HETATM   13  C18 UNL     1      25.037   2.793  51.013  1.00  0.00     0.023 A 
HETATM   14  C2  UNL     1      25.537   0.768  52.861  1.00  0.00     0.077 A 
HETATM   15  C20 UNL     1      26.597   1.497  52.310  1.00  0.00    -0.017 A 
HETATM   16  C19 UNL     1      26.322   2.492  51.400  1.00  0.00     0.026 A 
BRANCH  14  17
HETATM   17  O1  UNL     1      25.805  -0.224  53.768  1.00  0.00    -0.355 OA
HETATM   18  C1  UNL     1      24.910  -0.856  54.626  1.00  0.00     0.210 C 
ENDBRANCH  14  17
BRANCH  15  19
HETATM   19  C21 UNL     1      28.009   1.186  52.718  1.00  0.00     0.110 C 
BRANCH  19  20
HETATM   20  C22 UNL     1      28.503   2.307  53.564  1.00  0.00     0.235 C 
HETATM   21  O3  UNL     1      29.140   2.470  54.595  1.00  0.00    -0.307 OA
ENDBRANCH  19  20
ENDBRANCH  15  19
ENDBRANCH   1   7
BRANCH   4  22
HETATM   22  O2  UNL     1      28.619   7.369  47.795  1.00  0.00    -0.307 OA
BRANCH  22  23
HETATM   23  C11 UNL     1      29.872   7.601  48.278  1.00  0.00     0.121 A 
HETATM   24  C12 UNL     1      30.817   6.784  47.643  1.00  0.00     0.042 A 
HETATM   25  C13 UNL     1      32.178   6.835  47.967  1.00  0.00     0.022 A 
HETATM   26  C14 UNL     1      32.537   7.744  48.958  1.00  0.00     0.119 A 
HETATM   27  N3  UNL     1      31.625   8.544  49.582  1.00  0.00    -0.241 NA
HETATM   28  C15 UNL     1      30.325   8.470  49.247  1.00  0.00     0.155 A 
BRANCH  28  29
HETATM   29  N4  UNL     1      29.282   9.251  49.832  1.00  0.00    -0.382 N 
HETATM   30  H11 UNL     1      29.196   9.484  50.854  1.00  0.00     0.157 HD
HETATM   31  H12 UNL     1      28.433   9.734  49.421  1.00  0.00     0.157 HD
ENDBRANCH  28  29
ENDBRANCH  22  23
ENDBRANCH   4  22
TORSDOF 7
ENDMDL
MODEL 2
REMARK VINA RESULT:      -8.6      2.436      3.040
REMARK  7 active torsions:
REMARK  status: ('A' for Active; 'I' for Inactive)
REMARK    1  A    between atoms: O1_2  and  C2_3 
REMARK    2  A    between atoms: C6_9  and  C7_10 
REMARK    3  A    between atoms: C10_13  and  O2_14 
REMARK    4  A    between atoms: O2_14  and  C11_15 
REMARK    5  A    between atoms: C15_20  and  N4_21 
REMARK    6  A    between atoms: C20_26  and  C21_27 
REMARK    7  A    between atoms: C21_27  and  C22_28 
ROOT
HETATM    1  C7  UNL     1      24.737   3.399  50.309  1.00  0.00    -0.006 A 
HETATM    2  C8  UNL     1      24.285   4.666  50.667  1.00  0.00     0.016 A 
HETATM    3  C9  UNL     1      24.955   5.819  50.317  1.00  0.00     0.038 A 
HETATM    4  C10 UNL     1      26.122   5.755  49.584  1.00  0.00     0.076 A 
HETATM    5  C16 UNL     1      26.578   4.485  49.224  1.00  0.00     0.038 A 
HETATM    6  C17 UNL     1      25.903   3.338  49.577  1.00  0.00     0.016 A 
ENDROOT
BRANCH   1   7
HETATM    7  C6  UNL     1      23.861   2.357  50.818  1.00  0.00     0.081 A 
HETATM    8  N2  UNL     1      22.637   2.242  50.231  1.00  0.00    -0.240 NA
HETATM    9  C5  UNL     1      21.735   1.314  50.611  1.00  0.00     0.234 A 
HETATM   10  N1  UNL     1      22.006   0.430  51.616  1.00  0.00    -0.241 NA
HETATM   11  C4  UNL     1      23.201   0.494  52.234  1.00  0.00     0.073 A 
HETATM   12  C3  UNL     1      23.555  -0.370  53.249  1.00  0.00     0.069 A 
HETATM   13  C18 UNL     1      24.096   1.452  51.819  1.00  0.00     0.023 A 
HETATM   14  C2  UNL     1      24.788  -0.304  53.869  1.00  0.00     0.077 A 
HETATM   15  C20 UNL     1      25.695   0.673  53.441  1.00  0.00    -0.017 A 
HETATM   16  C19 UNL     1      25.327   1.528  52.427  1.00  0.00     0.026 A 
BRANCH  14  17
HETATM   17  O1  UNL     1      25.149  -1.158  54.878  1.00  0.00    -0.355 OA
HETATM   18  C1  UNL     1      24.644  -1.205  56.174  1.00  0.00     0.210 C 
ENDBRANCH  14  17
BRANCH  15  19
HETATM   19  C21 UNL     1      27.046   0.774  54.091  1.00  0.00     0.110 C 
BRANCH  19  20
HETATM   20  C22 UNL     1      27.659   2.068  53.682  1.00  0.00     0.235 C 
HETATM   21  O3  UNL     1      28.628   2.758  53.966  1.00  0.00    -0.307 OA
ENDBRANCH  19  20
ENDBRANCH  15  19
ENDBRANCH   1   7
BRANCH   4  22
HETATM   22  O2  UNL     1      26.952   6.763  49.125  1.00  0.00    -0.307 OA
BRANCH  22  23
HETATM   23  C11 UNL     1      26.610   8.058  48.877  1.00  0.00     0.121 A 
HETATM   24  C12 UNL     1      25.905   8.172  47.671  1.00  0.00     0.042 A 
HETATM   25  C13 UNL     1      25.442   9.405  47.195  1.00  0.00     0.022 A 
HETATM   26  C14 UNL     1      25.726  10.512  47.990  1.00  0.00     0.119 A 
HETATM   27  N3  UNL     1      26.411  10.412  49.165  1.00  0.00    -0.241 NA
HETATM   28  C15 UNL     1      26.841   9.212  49.594  1.00  0.00     0.155 A 
BRANCH  28  29
HETATM   29  N4  UNL     1      27.569   8.986  50.801  1.00  0.00    -0.382 N 
HETATM   30  H11 UNL     1      27.364   9.437  51.730  1.00  0.00     0.157 HD
HETATM   31  H12 UNL     1      28.403   8.373  51.031  1.00  0.00     0.157 HD
ENDBRANCH  28  29
ENDBRANCH  22  23
ENDBRANCH   4  22
TORSDOF 7
ENDMDL
MODEL 3
REMARK VINA RESULT:      -8.5      4.591      9.907
REMARK  7 active torsions:
REMARK  status: ('A' for Active; 'I' for Inactive)
REMARK    1  A    between atoms: O1_2  and  C2_3 
REMARK    2  A    between atoms: C6_9  and  C7_10 
REMARK    3  A    between atoms: C10_13  and  O2_14 
REMARK    4  A    between atoms: O2_14  and  C11_15 
REMARK    5  A    between atoms: C15_20  and  N4_21 
REMARK    6  A    between atoms: C20_26  and  C21_27 
REMARK    7  A    between atoms: C21_27  and  C22_28 
ROOT
HETATM    1  C7  UNL     1      22.223   1.868  51.473  1.00  0.00    -0.006 A 
HETATM    2  C8  UNL     1      21.701   0.920  50.598  1.00  0.00     0.016 A 
HETATM    3  C9  UNL     1      20.368   0.569  50.594  1.00  0.00     0.038 A 
HETATM    4  C10 UNL     1      19.487   1.158  51.476  1.00  0.00     0.076 A 
HETATM    5  C16 UNL     1      20.008   2.109  52.356  1.00  0.00     0.038 A 
HETATM    6  C17 UNL     1      21.341   2.455  52.354  1.00  0.00     0.016 A 
ENDROOT
BRANCH   1   7
HETATM    7  C6  UNL     1      23.653   2.038  51.283  1.00  0.00     0.081 A 
HETATM    8  N2  UNL     1      24.047   2.897  50.300  1.00  0.00    -0.240 NA
HETATM    9  C5  UNL     1      25.344   3.143  50.028  1.00  0.00     0.234 A 
HETATM   10  N1  UNL     1      26.344   2.535  50.732  1.00  0.00    -0.241 NA
HETATM   11  C4  UNL     1      26.019   1.676  51.716  1.00  0.00     0.073 A 
HETATM   12  C3  UNL     1      26.970   1.032  52.479  1.00  0.00     0.069 A 
HETATM   13  C18 UNL     1      24.685   1.452  51.967  1.00  0.00     0.023 A 
HETATM   14  C2  UNL     1      26.626   0.162  53.495  1.00  0.00     0.077 A 
HETATM   15  C20 UNL     1      25.267  -0.062  53.746  1.00  0.00    -0.017 A 
HETATM   16  C19 UNL     1      24.330   0.587  52.975  1.00  0.00     0.026 A 
BRANCH  14  17
HETATM   17  O1  UNL     1      27.564  -0.483  54.259  1.00  0.00    -0.355 OA
HETATM   18  C1  UNL     1      28.699   0.062  54.851  1.00  0.00     0.210 C 
ENDBRANCH  14  17
BRANCH  15  19
HETATM   19  C21 UNL     1      24.854  -1.002  54.843  1.00  0.00     0.110 C 
BRANCH  19  20
HETATM   20  C22 UNL     1      23.367  -1.018  54.902  1.00  0.00     0.235 C 
HETATM   21  O3  UNL     1      22.473  -1.683  55.407  1.00  0.00    -0.307 OA
ENDBRANCH  19  20
ENDBRANCH  15  19
ENDBRANCH   1   7
BRANCH   4  22
HETATM   22  O2  UNL     1      18.127   0.966  51.653  1.00  0.00    -0.307 OA
BRANCH  22  23
HETATM   23  C11 UNL     1      17.501  -0.194  51.996  1.00  0.00     0.121 A 
HETATM   24  C12 UNL     1      18.243  -0.905  52.950  1.00  0.00     0.042 A 
HETATM   25  C13 UNL     1      17.809  -2.133  53.463  1.00  0.00     0.022 A 
HETATM   26  C14 UNL     1      16.596  -2.607  52.970  1.00  0.00     0.119 A 
HETATM   27  N3  UNL     1      15.867  -1.923  52.042  1.00  0.00    -0.241 NA
HETATM   28  C15 UNL     1      16.313  -0.746  51.570  1.00  0.00     0.155 A 
BRANCH  28  29
HETATM   29  N4  UNL     1      15.640   0.055  50.598  1.00  0.00    -0.382 N 
HETATM   30  H11 UNL     1      15.054  -0.313  49.805  1.00  0.00     0.157 HD
HETATM   31  H12 UNL     1      15.574   1.103  50.454  1.00  0.00     0.157 HD
ENDBRANCH  28  29
ENDBRANCH  22  23
ENDBRANCH   4  22
TORSDOF 7
ENDMDL
MODEL 4
REMARK VINA RESULT:      -8.5      2.940      7.285
REMARK  7 active torsions:
REMARK  status: ('A' for Active; 'I' for Inactive)
REMARK    1  A    between atoms: O1_2  and  C2_3 
REMARK    2  A    between atoms: C6_9  and  C7_10 
REMARK    3  A    between atoms: C10_13  and  O2_14 
REMARK    4  A    between atoms: O2_14  and  C11_15 
REMARK    5  A    between atoms: C15_20  and  N4_21 
REMARK    6  A    between atoms: C20_26  and  C21_27 
REMARK    7  A    between atoms: C21_27  and  C22_28 
ROOT
HETATM    1  C7  UNL     1      24.805   3.368  51.036  1.00  0.00    -0.006 A 
HETATM    2  C8  UNL     1      24.202   3.326  52.290  1.00  0.00     0.016 A 
HETATM    3  C9  UNL     1      24.790   2.712  53.375  1.00  0.00     0.038 A 
HETATM    4  C10 UNL     1      26.023   2.105  53.252  1.00  0.00     0.076 A 
HETATM    5  C16 UNL     1      26.629   2.146  51.995  1.00  0.00     0.038 A 
HETATM    6  C17 UNL     1      26.036   2.761  50.916  1.00  0.00     0.016 A 
ENDROOT
BRANCH   1   7
HETATM    7  C6  UNL     1      23.969   4.055  50.066  1.00  0.00     0.081 A 
HETATM    8  N2  UNL     1      22.680   3.630  49.953  1.00  0.00    -0.240 NA
HETATM    9  C5  UNL     1      21.804   4.189  49.092  1.00  0.00     0.234 A 
HETATM   10  N1  UNL     1      22.171   5.222  48.279  1.00  0.00    -0.241 NA
HETATM   11  C4  UNL     1      23.434   5.688  48.344  1.00  0.00     0.073 A 
HETATM   12  C3  UNL     1      23.876   6.735  47.565  1.00  0.00     0.069 A 
HETATM   13  C18 UNL     1      24.297   5.094  49.236  1.00  0.00     0.023 A 
HETATM   14  C2  UNL     1      25.170   7.213  47.649  1.00  0.00     0.077 A 
HETATM   15  C20 UNL     1      26.044   6.605  48.558  1.00  0.00    -0.017 A 
HETATM   16  C19 UNL     1      25.587   5.561  49.329  1.00  0.00     0.026 A 
BRANCH  14  17
HETATM   17  O1  UNL     1      25.620   8.253  46.879  1.00  0.00    -0.355 OA
HETATM   18  C1  UNL     1      25.062   9.521  46.752  1.00  0.00     0.210 C 
ENDBRANCH  14  17
BRANCH  15  19
HETATM   19  C21 UNL     1      27.459   7.098  48.678  1.00  0.00     0.110 C 
BRANCH  19  20
HETATM   20  C22 UNL     1      28.363   6.040  48.149  1.00  0.00     0.235 C 
HETATM   21  O3  UNL     1      28.776   4.936  48.475  1.00  0.00    -0.307 OA
ENDBRANCH  19  20
ENDBRANCH  15  19
ENDBRANCH   1   7
BRANCH   4  22
HETATM   22  O2  UNL     1      26.794   1.437  54.188  1.00  0.00    -0.307 OA
BRANCH  22  23
HETATM   23  C11 UNL     1      27.862   0.628  53.943  1.00  0.00     0.121 A 
HETATM   24  C12 UNL     1      27.447  -0.634  53.493  1.00  0.00     0.042 A 
HETATM   25  C13 UNL     1      28.361  -1.645  53.174  1.00  0.00     0.022 A 
HETATM   26  C14 UNL     1      29.706  -1.325  53.331  1.00  0.00     0.119 A 
HETATM   27  N3  UNL     1      30.121  -0.101  53.768  1.00  0.00    -0.241 NA
HETATM   28  C15 UNL     1      29.217   0.848  54.065  1.00  0.00     0.155 A 
BRANCH  28  29
HETATM   29  N4  UNL     1      29.531   2.161  54.534  1.00  0.00    -0.382 N 
HETATM   30  H11 UNL     1      30.502   2.551  54.647  1.00  0.00     0.157 HD
HETATM   31  H12 UNL     1      28.927   2.973  54.848  1.00  0.00     0.157 HD
ENDBRANCH  28  29
ENDBRANCH  22  23
ENDBRANCH   4  22
TORSDOF 7
ENDMDL
MODEL 5
REMARK VINA RESULT:      -8.4      2.785      4.356
REMARK  7 active torsions:
REMARK  status: ('A' for Active; 'I' for Inactive)
REMARK    1  A    between atoms: O1_2  and  C2_3 
REMARK    2  A    between atoms: C6_9  and  C7_10 
REMARK    3  A    between atoms: C10_13  and  O2_14 
REMARK    4  A    between atoms: O2_14  and  C11_15 
REMARK    5  A    between atoms: C15_20  and  N4_21 
REMARK    6  A    between atoms: C20_26  and  C21_27 
REMARK    7  A    between atoms: C21_27  and  C22_28 
ROOT
HETATM    1  C7  UNL     1      25.314   2.906  51.061  1.00  0.00    -0.006 A 
HETATM    2  C8  UNL     1      26.420   2.853  50.218  1.00  0.00     0.016 A 
HETATM    3  C9  UNL     1      26.771   3.897  49.389  1.00  0.00     0.038 A 
HETATM    4  C10 UNL     1      26.021   5.055  49.366  1.00  0.00     0.076 A 
HETATM    5  C16 UNL     1      24.910   5.110  50.211  1.00  0.00     0.038 A 
HETATM    6  C17 UNL     1      24.566   4.063  51.036  1.00  0.00     0.016 A 
ENDROOT
BRANCH   1   7
HETATM    7  C6  UNL     1      25.156   1.672  51.812  1.00  0.00     0.081 A 
HETATM    8  N2  UNL     1      26.271   0.905  51.976  1.00  0.00    -0.240 NA
HETATM    9  C5  UNL     1      26.256  -0.261  52.655  1.00  0.00     0.234 A 
HETATM   10  N1  UNL     1      25.108  -0.738  53.220  1.00  0.00    -0.241 NA
HETATM   11  C4  UNL     1      23.973  -0.024  53.093  1.00  0.00     0.073 A 
HETATM   12  C3  UNL     1      22.777  -0.432  53.644  1.00  0.00     0.069 A 
HETATM   13  C18 UNL     1      24.027   1.161  52.395  1.00  0.00     0.023 A 
HETATM   14  C2  UNL     1      21.621   0.314  53.518  1.00  0.00     0.077 A 
HETATM   15  C20 UNL     1      21.683   1.518  52.807  1.00  0.00    -0.017 A 
HETATM   16  C19 UNL     1      22.883   1.912  52.262  1.00  0.00     0.026 A 
BRANCH  14  17
HETATM   17  O1  UNL     1      20.428  -0.083  54.062  1.00  0.00    -0.355 OA
HETATM   18  C1  UNL     1      19.449  -0.879  53.475  1.00  0.00     0.210 C 
ENDBRANCH  14  17
BRANCH  15  19
HETATM   19  C21 UNL     1      20.446   2.357  52.649  1.00  0.00     0.110 C 
BRANCH  19  20
HETATM   20  C22 UNL     1      20.863   3.716  52.208  1.00  0.00     0.235 C 
HETATM   21  O3  UNL     1      20.532   4.559  51.386  1.00  0.00    -0.307 OA
ENDBRANCH  19  20
ENDBRANCH  15  19
ENDBRANCH   1   7
BRANCH   4  22
HETATM   22  O2  UNL     1      26.179   6.214  48.626  1.00  0.00    -0.307 OA
BRANCH  22  23
HETATM   23  C11 UNL     1      27.191   7.121  48.730  1.00  0.00     0.121 A 
HETATM   24  C12 UNL     1      28.245   6.803  47.862  1.00  0.00     0.042 A 
HETATM   25  C13 UNL     1      29.404   7.586  47.784  1.00  0.00     0.022 A 
HETATM   26  C14 UNL     1      29.448   8.697  48.621  1.00  0.00     0.119 A 
HETATM   27  N3  UNL     1      28.428   9.016  49.469  1.00  0.00    -0.241 NA
HETATM   28  C15 UNL     1      27.329   8.243  49.519  1.00  0.00     0.155 A 
BRANCH  28  29
HETATM   29  N4  UNL     1      26.203   8.473  50.367  1.00  0.00    -0.382 N 
HETATM   30  H11 UNL     1      25.421   7.789  50.540  1.00  0.00     0.157 HD
HETATM   31  H12 UNL     1      25.912   9.298  50.965  1.00  0.00     0.157 HD
ENDBRANCH  28  29
ENDBRANCH  22  23
ENDBRANCH   4  22
TORSDOF 7
ENDMDL
MODEL 6
REMARK VINA RESULT:      -8.4      2.863      3.658
REMARK  7 active torsions:
REMARK  status: ('A' for Active; 'I' for Inactive)
REMARK    1  A    between atoms: O1_2  and  C2_3 
REMARK    2  A    between atoms: C6_9  and  C7_10 
REMARK    3  A    between atoms: C10_13  and  O2_14 
REMARK    4  A    between atoms: O2_14  and  C11_15 
REMARK    5  A    between atoms: C15_20  and  N4_21 
REMARK    6  A    between atoms: C20_26  and  C21_27 
REMARK    7  A    between atoms: C21_27  and  C22_28 
ROOT
HETATM    1  C7  UNL     1      23.294   4.690  50.703  1.00  0.00    -0.006 A 
HETATM    2  C8  UNL     1      23.551   5.871  51.392  1.00  0.00     0.016 A 
HETATM    3  C9  UNL     1      24.561   6.736  51.030  1.00  0.00     0.038 A 
HETATM    4  C10 UNL     1      25.369   6.454  49.948  1.00  0.00     0.076 A 
HETATM    5  C16 UNL     1      25.113   5.269  49.255  1.00  0.00     0.038 A 
HETATM    6  C17 UNL     1      24.102   4.410  49.623  1.00  0.00     0.016 A 
ENDROOT
BRANCH   1   7
HETATM    7  C6  UNL     1      22.192   3.955  51.300  1.00  0.00     0.081 A 
HETATM    8  N2  UNL     1      20.945   4.484  51.151  1.00  0.00    -0.240 NA
HETATM    9  C5  UNL     1      19.841   3.896  51.655  1.00  0.00     0.234 A 
HETATM   10  N1  UNL     1      19.918   2.724  52.352  1.00  0.00    -0.241 NA
HETATM   11  C4  UNL     1      21.123   2.150  52.533  1.00  0.00     0.073 A 
HETATM   12  C3  UNL     1      21.281   0.962  53.213  1.00  0.00     0.069 A 
HETATM   13  C18 UNL     1      22.226   2.779  52.002  1.00  0.00     0.023 A 
HETATM   14  C2  UNL     1      22.522   0.376  53.383  1.00  0.00     0.077 A 
HETATM   15  C20 UNL     1      23.640   1.020  52.840  1.00  0.00    -0.017 A 
HETATM   16  C19 UNL     1      23.465   2.205  52.164  1.00  0.00     0.026 A 
BRANCH  14  17
HETATM   17  O1  UNL     1      22.689  -0.805  54.058  1.00  0.00    -0.355 OA
HETATM   18  C1  UNL     1      21.701  -1.657  54.540  1.00  0.00     0.210 C 
ENDBRANCH  14  17
BRANCH  15  19
HETATM   19  C21 UNL     1      25.004   0.412  53.004  1.00  0.00     0.110 C 
BRANCH  19  20
HETATM   20  C22 UNL     1      25.946   1.494  53.403  1.00  0.00     0.235 C 
HETATM   21  O3  UNL     1      26.341   2.041  54.423  1.00  0.00    -0.307 OA
ENDBRANCH  19  20
ENDBRANCH  15  19
ENDBRANCH   1   7
BRANCH   4  22
HETATM   22  O2  UNL     1      26.429   7.163  49.407  1.00  0.00    -0.307 OA
BRANCH  22  23
HETATM   23  C11 UNL     1      26.439   8.479  49.053  1.00  0.00     0.121 A 
HETATM   24  C12 UNL     1      25.778   8.680  47.834  1.00  0.00     0.042 A 
HETATM   25  C13 UNL     1      25.654   9.950  47.257  1.00  0.00     0.022 A 
HETATM   26  C14 UNL     1      26.229  11.001  47.966  1.00  0.00     0.119 A 
HETATM   27  N3  UNL     1      26.875  10.816  49.153  1.00  0.00    -0.241 NA
HETATM   28  C15 UNL     1      26.975   9.583  49.680  1.00  0.00     0.155 A 
BRANCH  28  29
HETATM   29  N4  UNL     1      27.630   9.267  50.910  1.00  0.00    -0.382 N 
HETATM   30  H11 UNL     1      28.396   9.835  51.355  1.00  0.00     0.157 HD
HETATM   31  H12 UNL     1      27.514   8.471  51.599  1.00  0.00     0.157 HD
ENDBRANCH  28  29
ENDBRANCH  22  23
ENDBRANCH   4  22
TORSDOF 7
ENDMDL
MODEL 7
REMARK VINA RESULT:      -8.1      5.433     10.173
REMARK  7 active torsions:
REMARK  status: ('A' for Active; 'I' for Inactive)
REMARK    1  A    between atoms: O1_2  and  C2_3 
REMARK    2  A    between atoms: C6_9  and  C7_10 
REMARK    3  A    between atoms: C10_13  and  O2_14 
REMARK    4  A    between atoms: O2_14  and  C11_15 
REMARK    5  A    between atoms: C15_20  and  N4_21 
REMARK    6  A    between atoms: C20_26  and  C21_27 
REMARK    7  A    between atoms: C21_27  and  C22_28 
ROOT
HETATM    1  C7  UNL     1      21.977  -0.233  52.974  1.00  0.00    -0.006 A 
HETATM    2  C8  UNL     1      20.817  -0.536  53.680  1.00  0.00     0.016 A 
HETATM    3  C9  UNL     1      19.558  -0.382  53.139  1.00  0.00     0.038 A 
HETATM    4  C10 UNL     1      19.403   0.087  51.851  1.00  0.00     0.076 A 
HETATM    5  C16 UNL     1      20.566   0.393  51.141  1.00  0.00     0.038 A 
HETATM    6  C17 UNL     1      21.819   0.236  51.688  1.00  0.00     0.016 A 
ENDROOT
BRANCH   1   7
HETATM    7  C6  UNL     1      23.165  -0.465  53.777  1.00  0.00     0.081 A 
HETATM    8  N2  UNL     1      23.030  -1.291  54.853  1.00  0.00    -0.240 NA
HETATM    9  C5  UNL     1      24.058  -1.588  55.674  1.00  0.00     0.234 A 
HETATM   10  N1  UNL     1      25.304  -1.069  55.466  1.00  0.00    -0.241 NA
HETATM   11  C4  UNL     1      25.501  -0.246  54.419  1.00  0.00     0.073 A 
HETATM   12  C3  UNL     1      26.731   0.309  54.136  1.00  0.00     0.069 A 
HETATM   13  C18 UNL     1      24.429   0.033  53.603  1.00  0.00     0.023 A 
HETATM   14  C2  UNL     1      26.926   1.143  53.052  1.00  0.00     0.077 A 
HETATM   15  C20 UNL     1      25.832   1.422  52.224  1.00  0.00    -0.017 A 
HETATM   16  C19 UNL     1      24.610   0.861  52.520  1.00  0.00     0.026 A 
BRANCH  14  17
HETATM   17  O1  UNL     1      28.144   1.699  52.762  1.00  0.00    -0.355 OA
HETATM   18  C1  UNL     1      28.913   2.530  53.571  1.00  0.00     0.210 C 
ENDBRANCH  14  17
BRANCH  15  19
HETATM   19  C21 UNL     1      26.005   2.324  51.035  1.00  0.00     0.110 C 
BRANCH  19  20
HETATM   20  C22 UNL     1      24.692   2.964  50.747  1.00  0.00     0.235 C 
HETATM   21  O3  UNL     1      23.854   2.983  49.856  1.00  0.00    -0.307 OA
ENDBRANCH  19  20
ENDBRANCH  15  19
ENDBRANCH   1   7
BRANCH   4  22
HETATM   22  O2  UNL     1      18.256   0.319  51.111  1.00  0.00    -0.307 OA
BRANCH  22  23
HETATM   23  C11 UNL     1      17.125   0.954  51.528  1.00  0.00     0.121 A 
HETATM   24  C12 UNL     1      17.245   2.344  51.386  1.00  0.00     0.042 A 
HETATM   25  C13 UNL     1      16.213   3.218  51.748  1.00  0.00     0.022 A 
HETATM   26  C14 UNL     1      15.061   2.626  52.258  1.00  0.00     0.119 A 
HETATM   27  N3  UNL     1      14.934   1.275  52.400  1.00  0.00    -0.241 NA
HETATM   28  C15 UNL     1      15.945   0.463  52.043  1.00  0.00     0.155 A 
BRANCH  28  29
HETATM   29  N4  UNL     1      15.930  -0.961  52.149  1.00  0.00    -0.382 N 
HETATM   30  H11 UNL     1      16.741  -1.558  52.454  1.00  0.00     0.157 HD
HETATM   31  H12 UNL     1      15.178  -1.685  51.967  1.00  0.00     0.157 HD
ENDBRANCH  28  29
ENDBRANCH  22  23
ENDBRANCH   4  22
TORSDOF 7
ENDMDL
MODEL 8
REMARK VINA RESULT:      -8.1      5.000      6.892
REMARK  7 active torsions:
REMARK  status: ('A' for Active; 'I' for Inactive)
REMARK    1  A    between atoms: O1_2  and  C2_3 
REMARK    2  A    between atoms: C6_9  and  C7_10 
REMARK    3  A    between atoms: C10_13  and  O2_14 
REMARK    4  A    between atoms: O2_14  and  C11_15 
REMARK    5  A    between atoms: C15_20  and  N4_21 
REMARK    6  A    between atoms: C20_26  and  C21_27 
REMARK    7  A    between atoms: C21_27  and  C22_28 
ROOT
HETATM    1  C7  UNL     1      21.649   0.970  51.847  1.00  0.00    -0.006 A 
HETATM    2  C8  UNL     1      21.281   2.265  52.200  1.00  0.00     0.016 A 
HETATM    3  C9  UNL     1      20.797   3.174  51.284  1.00  0.00     0.038 A 
HETATM    4  C10 UNL     1      20.658   2.823  49.957  1.00  0.00     0.076 A 
HETATM    5  C16 UNL     1      21.027   1.525  49.600  1.00  0.00     0.038 A 
HETATM    6  C17 UNL     1      21.510   0.622  50.521  1.00  0.00     0.016 A 
ENDROOT
BRANCH   1   7
HETATM    7  C6  UNL     1      22.142   0.226  52.993  1.00  0.00     0.081 A 
HETATM    8  N2  UNL     1      21.209  -0.295  53.838  1.00  0.00    -0.240 NA
HETATM    9  C5  UNL     1      21.539  -1.008  54.935  1.00  0.00     0.234 A 
HETATM   10  N1  UNL     1      22.844  -1.246  55.259  1.00  0.00    -0.241 NA
HETATM   11  C4  UNL     1      23.814  -0.758  54.462  1.00  0.00     0.073 A 
HETATM   12  C3  UNL     1      25.152  -0.966  54.715  1.00  0.00     0.069 A 
HETATM   13  C18 UNL     1      23.438  -0.037  53.352  1.00  0.00     0.023 A 
HETATM   14  C2  UNL     1      26.139  -0.470  53.884  1.00  0.00     0.077 A 
HETATM   15  C20 UNL     1      25.751   0.261  52.756  1.00  0.00    -0.017 A 
HETATM   16  C19 UNL     1      24.411   0.461  52.517  1.00  0.00     0.026 A 
BRANCH  14  17
HETATM   17  O1  UNL     1      27.473  -0.672  54.127  1.00  0.00    -0.355 OA
HETATM   18  C1  UNL     1      28.321   0.104  54.912  1.00  0.00     0.210 C 
ENDBRANCH  14  17
BRANCH  15  19
HETATM   19  C21 UNL     1      26.796   0.815  51.829  1.00  0.00     0.110 C 
BRANCH  19  20
HETATM   20  C22 UNL     1      26.378   2.187  51.429  1.00  0.00     0.235 C 
HETATM   21  O3  UNL     1      26.830   3.145  50.818  1.00  0.00    -0.307 OA
ENDBRANCH  19  20
ENDBRANCH  15  19
ENDBRANCH   1   7
BRANCH   4  22
HETATM   22  O2  UNL     1      20.201   3.557  48.875  1.00  0.00    -0.307 OA
BRANCH  22  23
HETATM   23  C11 UNL     1      20.653   4.775  48.462  1.00  0.00     0.121 A 
HETATM   24  C12 UNL     1      21.827   4.648  47.706  1.00  0.00     0.042 A 
HETATM   25  C13 UNL     1      22.486   5.759  47.168  1.00  0.00     0.022 A 
HETATM   26  C14 UNL     1      21.908   6.999  47.428  1.00  0.00     0.119 A 
HETATM   27  N3  UNL     1      20.766   7.133  48.162  1.00  0.00    -0.241 NA
HETATM   28  C15 UNL     1      20.157   6.044  48.664  1.00  0.00     0.155 A 
BRANCH  28  29
HETATM   29  N4  UNL     1      18.963   6.061  49.449  1.00  0.00    -0.382 N 
HETATM   30  H11 UNL     1      18.457   5.210  49.805  1.00  0.00     0.157 HD
HETATM   31  H12 UNL     1      18.362   6.850  49.822  1.00  0.00     0.157 HD
ENDBRANCH  28  29
ENDBRANCH  22  23
ENDBRANCH   4  22
TORSDOF 7
ENDMDL
MODEL 9
REMARK VINA RESULT:      -8.0      4.470      9.191
REMARK  7 active torsions:
REMARK  status: ('A' for Active; 'I' for Inactive)
REMARK    1  A    between atoms: O1_2  and  C2_3 
REMARK    2  A    between atoms: C6_9  and  C7_10 
REMARK    3  A    between atoms: C10_13  and  O2_14 
REMARK    4  A    between atoms: O2_14  and  C11_15 
REMARK    5  A    between atoms: C15_20  and  N4_21 
REMARK    6  A    between atoms: C20_26  and  C21_27 
REMARK    7  A    between atoms: C21_27  and  C22_28 
ROOT
HETATM    1  C7  UNL     1      22.572   2.025  51.474  1.00  0.00    -0.006 A 
HETATM    2  C8  UNL     1      22.005   1.113  50.588  1.00  0.00     0.016 A 
HETATM    3  C9  UNL     1      20.656   0.827  50.580  1.00  0.00     0.038 A 
HETATM    4  C10 UNL     1      19.804   1.448  51.469  1.00  0.00     0.076 A 
HETATM    5  C16 UNL     1      20.371   2.363  52.360  1.00  0.00     0.038 A 
HETATM    6  C17 UNL     1      21.719   2.644  52.361  1.00  0.00     0.016 A 
ENDROOT
BRANCH   1   7
HETATM    7  C6  UNL     1      24.009   2.127  51.285  1.00  0.00     0.081 A 
HETATM    8  N2  UNL     1      24.443   2.958  50.296  1.00  0.00    -0.240 NA
HETATM    9  C5  UNL     1      25.751   3.141  50.024  1.00  0.00     0.234 A 
HETATM   10  N1  UNL     1      26.721   2.495  50.736  1.00  0.00    -0.241 NA
HETATM   11  C4  UNL     1      26.355   1.660  51.727  1.00  0.00     0.073 A 
HETATM   12  C3  UNL     1      27.274   0.980  52.498  1.00  0.00     0.069 A 
HETATM   13  C18 UNL     1      25.011   1.500  51.977  1.00  0.00     0.023 A 
HETATM   14  C2  UNL     1      26.888   0.136  53.521  1.00  0.00     0.077 A 
HETATM   15  C20 UNL     1      25.519  -0.023  53.771  1.00  0.00    -0.017 A 
HETATM   16  C19 UNL     1      24.614   0.662  52.992  1.00  0.00     0.026 A 
BRANCH  14  17
HETATM   17  O1  UNL     1      27.793  -0.544  54.293  1.00  0.00    -0.355 OA
HETATM   18  C1  UNL     1      29.164  -0.666  54.088  1.00  0.00     0.210 C 
ENDBRANCH  14  17
BRANCH  15  19
HETATM   19  C21 UNL     1      25.062  -0.933  54.876  1.00  0.00     0.110 C 
BRANCH  19  20
HETATM   20  C22 UNL     1      23.574  -0.982  54.846  1.00  0.00     0.235 C 
HETATM   21  O3  UNL     1      22.659  -1.518  55.456  1.00  0.00    -0.307 OA
ENDBRANCH  19  20
ENDBRANCH  15  19
ENDBRANCH   1   7
BRANCH   4  22
HETATM   22  O2  UNL     1      18.437   1.321  51.644  1.00  0.00    -0.307 OA
BRANCH  22  23
HETATM   23  C11 UNL     1      17.458   1.959  50.943  1.00  0.00     0.121 A 
HETATM   24  C12 UNL     1      17.135   3.189  51.533  1.00  0.00     0.042 A 
HETATM   25  C13 UNL     1      16.155   4.034  50.997  1.00  0.00     0.022 A 
HETATM   26  C14 UNL     1      15.519   3.579  49.845  1.00  0.00     0.119 A 
HETATM   27  N3  UNL     1      15.826   2.384  49.263  1.00  0.00    -0.241 NA
HETATM   28  C15 UNL     1      16.773   1.597  49.803  1.00  0.00     0.155 A 
BRANCH  28  29
HETATM   29  N4  UNL     1      17.176   0.327  49.287  1.00  0.00    -0.382 N 
HETATM   30  H11 UNL     1      17.529  -0.480  49.863  1.00  0.00     0.157 HD
HETATM   31  H12 UNL     1      17.213  -0.068  48.305  1.00  0.00     0.157 HD
ENDBRANCH  28  29
ENDBRANCH  22  23
ENDBRANCH   4  22
TORSDOF 7
ENDMDL
