MODEL 1
REMARK VINA RESULT:      -7.3      0.000      0.000
REMARK  10 active torsions:
REMARK  status: ('A' for Active; 'I' for Inactive)
REMARK    1  A    between atoms: C2_2  and  C3_3 
REMARK       I    between atoms: C3_3  and  N1_5 
REMARK    2  A    between atoms: N1_5  and  C4_6 
REMARK    3  A    between atoms: C6_8  and  N2_9 
REMARK    4  A    between atoms: N2_9  and  C7_10 
REMARK    5  A    between atoms: C10_14  and  C11_15 
REMARK    6  A    between atoms: C13_18  and  O2_19 
REMARK    7  A    between atoms: C16_22  and  N5_23 
REMARK    8  A    between atoms: N5_23  and  C18_25 
REMARK    9  A    between atoms: C18_25  and  C19_26 
REMARK   10  A    between atoms: C19_26  and  N6_27 
ROOT
HETATM    1  C4  UNL     1      23.342   2.131  51.727  1.00  0.00     0.064 A 
HETATM    2  C5  UNL     1      24.612   2.310  52.237  1.00  0.00     0.065 A 
HETATM    3  C6  UNL     1      25.707   2.765  51.540  1.00  0.00     0.085 A 
HETATM    4  C13 UNL     1      25.448   3.056  50.193  1.00  0.00     0.097 A 
HETATM    5  C15 UNL     1      24.202   2.900  49.621  1.00  0.00     0.070 A 
HETATM    6  C16 UNL     1      23.149   2.439  50.382  1.00  0.00     0.059 A 
ENDROOT
BRANCH   3   7
HETATM    7  N2  UNL     1      27.012   2.939  52.074  1.00  0.00    -0.186 N 
HETATM    8  H6  UNL     1      27.501   3.862  51.868  1.00  0.00     0.184 HD
BRANCH   7   9
HETATM    9  C7  UNL     1      27.683   1.962  52.846  1.00  0.00     0.722 A 
HETATM   10  N3  UNL     1      28.457   2.387  53.758  1.00  0.00    -0.105 NA
HETATM   11  C8  UNL     1      29.192   1.492  54.606  1.00  0.00     0.175 A 
HETATM   12  C9  UNL     1      29.017   0.030  54.362  1.00  0.00     0.082 A 
HETATM   13  C10 UNL     1      28.087  -0.330  53.272  1.00  0.00     0.054 A 
HETATM   14  N4  UNL     1      27.469   0.571  52.570  1.00  0.00    -0.068 NA
BRANCH  13  15
HETATM   15  C11 UNL     1      27.860  -1.737  52.981  1.00  0.00     0.018 C 
HETATM   16  C12 UNL     1      26.805  -2.143  52.327  1.00  0.00     0.013 C 
ENDBRANCH  13  15
ENDBRANCH   7   9
ENDBRANCH   3   7
BRANCH   4  17
HETATM   17  O2  UNL     1      26.493   3.515  49.429  1.00  0.00    -0.354 OA
HETATM   18  C14 UNL     1      26.681   4.825  48.993  1.00  0.00     0.210 C 
ENDBRANCH   4  17
BRANCH   1  19
HETATM   19  N1  UNL     1      22.282   1.651  52.551  1.00  0.00    -0.322 N 
HETATM   20  C3  UNL     1      22.287   0.395  53.208  1.00  0.00     0.244 C 
HETATM   21  O1  UNL     1      23.219  -0.448  53.149  1.00  0.00    -0.268 OA
HETATM   22  H4  UNL     1      21.395   2.190  52.746  1.00  0.00     0.169 HD
BRANCH  20  23
HETATM   23  C2  UNL     1      21.201  -0.091  54.049  1.00  0.00     0.064 C 
HETATM   24  C1  UNL     1      21.934  -0.866  54.832  1.00  0.00     0.017 C 
ENDBRANCH  20  23
ENDBRANCH   1  19
BRANCH   6  25
HETATM   25  N5  UNL     1      21.851   2.269  49.815  1.00  0.00    -0.382 N 
HETATM   26  C17 UNL     1      21.262   0.956  49.638  1.00  0.00     0.150 C 
BRANCH  25  27
HETATM   27  C18 UNL     1      21.141   3.462  49.430  1.00  0.00     0.152 C 
BRANCH  27  28
HETATM   28  C19 UNL     1      20.560   4.144  50.643  1.00  0.00     0.291 C 
BRANCH  28  29
HETATM   29  N6  UNL     1      20.836   5.567  50.694  1.00  0.00     0.081 N 
HETATM   30  C20 UNL     1      21.216   6.013  49.349  1.00  0.00     0.309 C 
HETATM   31  C21 UNL     1      22.060   5.727  51.489  1.00  0.00     0.309 C 
ENDBRANCH  28  29
ENDBRANCH  27  28
ENDBRANCH  25  27
ENDBRANCH   6  25
TORSDOF 10
ENDMDL
MODEL 2
REMARK VINA RESULT:      -7.2      0.835      1.289
REMARK  10 active torsions:
REMARK  status: ('A' for Active; 'I' for Inactive)
REMARK    1  A    between atoms: C2_2  and  C3_3 
REMARK       I    between atoms: C3_3  and  N1_5 
REMARK    2  A    between atoms: N1_5  and  C4_6 
REMARK    3  A    between atoms: C6_8  and  N2_9 
REMARK    4  A    between atoms: N2_9  and  C7_10 
REMARK    5  A    between atoms: C10_14  and  C11_15 
REMARK    6  A    between atoms: C13_18  and  O2_19 
REMARK    7  A    between atoms: C16_22  and  N5_23 
REMARK    8  A    between atoms: N5_23  and  C18_25 
REMARK    9  A    between atoms: C18_25  and  C19_26 
REMARK   10  A    between atoms: C19_26  and  N6_27 
ROOT
HETATM    1  C4  UNL     1      23.389   2.180  51.896  1.00  0.00     0.064 A 
HETATM    2  C5  UNL     1      24.687   2.314  52.345  1.00  0.00     0.065 A 
HETATM    3  C6  UNL     1      25.757   2.759  51.604  1.00  0.00     0.085 A 
HETATM    4  C13 UNL     1      25.439   3.093  50.280  1.00  0.00     0.097 A 
HETATM    5  C15 UNL     1      24.162   2.984  49.769  1.00  0.00     0.070 A 
HETATM    6  C16 UNL     1      23.136   2.529  50.571  1.00  0.00     0.059 A 
ENDROOT
BRANCH   3   7
HETATM    7  N2  UNL     1      27.091   2.885  52.075  1.00  0.00    -0.186 N 
HETATM    8  H6  UNL     1      27.618   3.772  51.810  1.00  0.00     0.184 HD
BRANCH   7   9
HETATM    9  C7  UNL     1      27.746   1.906  52.858  1.00  0.00     0.722 A 
HETATM   10  N3  UNL     1      28.528   2.327  53.765  1.00  0.00    -0.105 NA
HETATM   11  C8  UNL     1      29.246   1.429  54.624  1.00  0.00     0.175 A 
HETATM   12  C9  UNL     1      29.047  -0.032  54.396  1.00  0.00     0.082 A 
HETATM   13  C10 UNL     1      28.110  -0.389  53.310  1.00  0.00     0.054 A 
HETATM   14  N4  UNL     1      27.508   0.515  52.598  1.00  0.00    -0.068 NA
BRANCH  13  15
HETATM   15  C11 UNL     1      27.859  -1.794  53.035  1.00  0.00     0.018 C 
HETATM   16  C12 UNL     1      26.852  -2.182  52.299  1.00  0.00     0.013 C 
ENDBRANCH  13  15
ENDBRANCH   7   9
ENDBRANCH   3   7
BRANCH   4  17
HETATM   17  O2  UNL     1      26.456   3.546  49.475  1.00  0.00    -0.354 OA
HETATM   18  C14 UNL     1      26.623   4.850  49.016  1.00  0.00     0.210 C 
ENDBRANCH   4  17
BRANCH   1  19
HETATM   19  N1  UNL     1      22.359   1.706  52.760  1.00  0.00    -0.322 N 
HETATM   20  C3  UNL     1      22.284   0.382  53.262  1.00  0.00     0.244 C 
HETATM   21  O1  UNL     1      23.110  -0.533  53.011  1.00  0.00    -0.268 OA
HETATM   22  H4  UNL     1      21.557   2.299  53.106  1.00  0.00     0.169 HD
BRANCH  20  23
HETATM   23  C2  UNL     1      21.230  -0.098  54.145  1.00  0.00     0.064 C 
HETATM   24  C1  UNL     1      21.984  -0.900  54.880  1.00  0.00     0.017 C 
ENDBRANCH  20  23
ENDBRANCH   1  19
BRANCH   6  25
HETATM   25  N5  UNL     1      21.807   2.409  50.066  1.00  0.00    -0.382 N 
HETATM   26  C17 UNL     1      21.231   1.119  49.738  1.00  0.00     0.150 C 
BRANCH  25  27
HETATM   27  C18 UNL     1      21.053   3.625  49.903  1.00  0.00     0.152 C 
BRANCH  27  28
HETATM   28  C19 UNL     1      20.211   3.892  51.125  1.00  0.00     0.291 C 
BRANCH  28  29
HETATM   29  N6  UNL     1      18.844   4.261  50.816  1.00  0.00     0.081 N 
HETATM   30  C20 UNL     1      17.946   3.288  51.449  1.00  0.00     0.309 C 
HETATM   31  C21 UNL     1      18.665   4.035  49.376  1.00  0.00     0.309 C 
ENDBRANCH  28  29
ENDBRANCH  27  28
ENDBRANCH  25  27
ENDBRANCH   6  25
TORSDOF 10
ENDMDL
MODEL 3
REMARK VINA RESULT:      -7.2      1.573      4.239
REMARK  10 active torsions:
REMARK  status: ('A' for Active; 'I' for Inactive)
REMARK    1  A    between atoms: C2_2  and  C3_3 
REMARK       I    between atoms: C3_3  and  N1_5 
REMARK    2  A    between atoms: N1_5  and  C4_6 
REMARK    3  A    between atoms: C6_8  and  N2_9 
REMARK    4  A    between atoms: N2_9  and  C7_10 
REMARK    5  A    between atoms: C10_14  and  C11_15 
REMARK    6  A    between atoms: C13_18  and  O2_19 
REMARK    7  A    between atoms: C16_22  and  N5_23 
REMARK    8  A    between atoms: N5_23  and  C18_25 
REMARK    9  A    between atoms: C18_25  and  C19_26 
REMARK   10  A    between atoms: C19_26  and  N6_27 
ROOT
HETATM    1  C4  UNL     1      24.456   3.201  51.109  1.00  0.00     0.064 A 
HETATM    2  C5  UNL     1      25.195   2.728  52.174  1.00  0.00     0.065 A 
HETATM    3  C6  UNL     1      24.896   1.626  52.941  1.00  0.00     0.085 A 
HETATM    4  C13 UNL     1      23.722   0.963  52.558  1.00  0.00     0.097 A 
HETATM    5  C15 UNL     1      22.937   1.382  51.503  1.00  0.00     0.070 A 
HETATM    6  C16 UNL     1      23.300   2.498  50.777  1.00  0.00     0.059 A 
ENDROOT
BRANCH   3   7
HETATM    7  N2  UNL     1      25.661   1.153  54.040  1.00  0.00    -0.186 N 
HETATM    8  H6  UNL     1      25.138   0.952  54.946  1.00  0.00     0.184 HD
BRANCH   7   9
HETATM    9  C7  UNL     1      27.059   0.945  53.995  1.00  0.00     0.722 A 
HETATM   10  N3  UNL     1      27.796   1.943  54.264  1.00  0.00    -0.105 NA
HETATM   11  C8  UNL     1      29.228   1.854  54.251  1.00  0.00     0.175 A 
HETATM   12  C9  UNL     1      29.822   0.532  53.892  1.00  0.00     0.082 A 
HETATM   13  C10 UNL     1      28.855  -0.546  53.603  1.00  0.00     0.054 A 
HETATM   14  N4  UNL     1      27.572  -0.350  53.652  1.00  0.00    -0.068 NA
BRANCH  13  15
HETATM   15  C11 UNL     1      29.359  -1.865  53.253  1.00  0.00     0.018 C 
HETATM   16  C12 UNL     1      28.558  -2.868  53.016  1.00  0.00     0.013 C 
ENDBRANCH  13  15
ENDBRANCH   7   9
ENDBRANCH   3   7
BRANCH   4  17
HETATM   17  O2  UNL     1      23.354  -0.148  53.277  1.00  0.00    -0.354 OA
HETATM   18  C14 UNL     1      22.203  -0.910  53.085  1.00  0.00     0.210 C 
ENDBRANCH   4  17
BRANCH   1  19
HETATM   19  N1  UNL     1      24.869   4.358  50.387  1.00  0.00    -0.322 N 
HETATM   20  C3  UNL     1      26.000   4.406  49.533  1.00  0.00     0.244 C 
HETATM   21  O1  UNL     1      26.775   3.442  49.307  1.00  0.00    -0.268 OA
HETATM   22  H4  UNL     1      24.368   5.287  50.423  1.00  0.00     0.169 HD
BRANCH  20  23
HETATM   23  C2  UNL     1      26.417   5.592  48.797  1.00  0.00     0.064 C 
HETATM   24  C1  UNL     1      27.663   5.209  48.562  1.00  0.00     0.017 C 
ENDBRANCH  20  23
ENDBRANCH   1  19
BRANCH   6  25
HETATM   25  N5  UNL     1      22.506   2.951  49.681  1.00  0.00    -0.382 N 
HETATM   26  C17 UNL     1      22.683   2.422  48.343  1.00  0.00     0.150 C 
BRANCH  25  27
HETATM   27  C18 UNL     1      21.512   3.955  49.961  1.00  0.00     0.152 C 
BRANCH  27  28
HETATM   28  C19 UNL     1      20.133   3.346  49.959  1.00  0.00     0.291 C 
BRANCH  28  29
HETATM   29  N6  UNL     1      19.622   3.068  51.287  1.00  0.00     0.081 N 
HETATM   30  C20 UNL     1      19.313   1.636  51.375  1.00  0.00     0.309 C 
HETATM   31  C21 UNL     1      18.313   3.727  51.378  1.00  0.00     0.309 C 
ENDBRANCH  28  29
ENDBRANCH  27  28
ENDBRANCH  25  27
ENDBRANCH   6  25
TORSDOF 10
ENDMDL
MODEL 4
REMARK VINA RESULT:      -7.1      4.405      7.986
REMARK  10 active torsions:
REMARK  status: ('A' for Active; 'I' for Inactive)
REMARK    1  A    between atoms: C2_2  and  C3_3 
REMARK       I    between atoms: C3_3  and  N1_5 
REMARK    2  A    between atoms: N1_5  and  C4_6 
REMARK    3  A    between atoms: C6_8  and  N2_9 
REMARK    4  A    between atoms: N2_9  and  C7_10 
REMARK    5  A    between atoms: C10_14  and  C11_15 
REMARK    6  A    between atoms: C13_18  and  O2_19 
REMARK    7  A    between atoms: C16_22  and  N5_23 
REMARK    8  A    between atoms: N5_23  and  C18_25 
REMARK    9  A    between atoms: C18_25  and  C19_26 
REMARK   10  A    between atoms: C19_26  and  N6_27 
ROOT
HETATM    1  C4  UNL     1      28.478   5.918  48.253  1.00  0.00     0.064 A 
HETATM    2  C5  UNL     1      27.788   4.784  48.629  1.00  0.00     0.065 A 
HETATM    3  C6  UNL     1      26.540   4.749  49.206  1.00  0.00     0.085 A 
HETATM    4  C13 UNL     1      25.965   6.013  49.404  1.00  0.00     0.097 A 
HETATM    5  C15 UNL     1      26.600   7.186  49.050  1.00  0.00     0.070 A 
HETATM    6  C16 UNL     1      27.853   7.144  48.475  1.00  0.00     0.059 A 
ENDROOT
BRANCH   3   7
HETATM    7  N2  UNL     1      25.842   3.575  49.596  1.00  0.00    -0.186 N 
HETATM    8  H6  UNL     1      25.277   3.074  48.845  1.00  0.00     0.184 HD
BRANCH   7   9
HETATM    9  C7  UNL     1      25.857   3.050  50.909  1.00  0.00     0.722 A 
HETATM   10  N3  UNL     1      24.758   3.065  51.544  1.00  0.00    -0.105 NA
HETATM   11  C8  UNL     1      24.648   2.560  52.882  1.00  0.00     0.175 A 
HETATM   12  C9  UNL     1      25.893   2.025  53.509  1.00  0.00     0.082 A 
HETATM   13  C10 UNL     1      27.103   2.065  52.663  1.00  0.00     0.054 A 
HETATM   14  N4  UNL     1      27.082   2.543  51.456  1.00  0.00    -0.068 NA
BRANCH  13  15
HETATM   15  C11 UNL     1      28.353   1.554  53.203  1.00  0.00     0.018 C 
HETATM   16  C12 UNL     1      29.074   2.244  54.045  1.00  0.00     0.013 C 
ENDBRANCH  13  15
ENDBRANCH   7   9
ENDBRANCH   3   7
BRANCH   4  17
HETATM   17  O2  UNL     1      24.717   6.063  49.976  1.00  0.00    -0.354 OA
HETATM   18  C14 UNL     1      24.344   6.841  51.070  1.00  0.00     0.210 C 
ENDBRANCH   4  17
BRANCH   1  19
HETATM   19  N1  UNL     1      29.772   5.827  47.662  1.00  0.00    -0.322 N 
HETATM   20  C3  UNL     1      30.970   5.623  48.392  1.00  0.00     0.244 C 
HETATM   21  O1  UNL     1      31.042   5.495  49.641  1.00  0.00    -0.268 OA
HETATM   22  H4  UNL     1      29.956   5.906  46.626  1.00  0.00     0.169 HD
BRANCH  20  23
HETATM   23  C2  UNL     1      32.291   5.531  47.783  1.00  0.00     0.064 C 
HETATM   24  C1  UNL     1      32.199   4.273  47.383  1.00  0.00     0.017 C 
ENDBRANCH  20  23
ENDBRANCH   1  19
BRANCH   6  25
HETATM   25  N5  UNL     1      28.530   8.342  48.099  1.00  0.00    -0.382 N 
HETATM   26  C17 UNL     1      28.439   8.879  46.756  1.00  0.00     0.150 C 
BRANCH  25  27
HETATM   27  C18 UNL     1      29.305   9.005  49.116  1.00  0.00     0.152 C 
BRANCH  27  28
HETATM   28  C19 UNL     1      29.381  10.485  48.840  1.00  0.00     0.291 C 
BRANCH  28  29
HETATM   29  N6  UNL     1      30.698  11.049  49.068  1.00  0.00     0.081 N 
HETATM   30  C20 UNL     1      30.565  12.507  49.177  1.00  0.00     0.309 C 
HETATM   31  C21 UNL     1      31.460  10.846  47.829  1.00  0.00     0.309 C 
ENDBRANCH  28  29
ENDBRANCH  27  28
ENDBRANCH  25  27
ENDBRANCH   6  25
TORSDOF 10
ENDMDL
MODEL 5
REMARK VINA RESULT:      -7.1      1.596      4.619
REMARK  10 active torsions:
REMARK  status: ('A' for Active; 'I' for Inactive)
REMARK    1  A    between atoms: C2_2  and  C3_3 
REMARK       I    between atoms: C3_3  and  N1_5 
REMARK    2  A    between atoms: N1_5  and  C4_6 
REMARK    3  A    between atoms: C6_8  and  N2_9 
REMARK    4  A    between atoms: N2_9  and  C7_10 
REMARK    5  A    between atoms: C10_14  and  C11_15 
REMARK    6  A    between atoms: C13_18  and  O2_19 
REMARK    7  A    between atoms: C16_22  and  N5_23 
REMARK    8  A    between atoms: N5_23  and  C18_25 
REMARK    9  A    between atoms: C18_25  and  C19_26 
REMARK   10  A    between atoms: C19_26  and  N6_27 
ROOT
HETATM    1  C4  UNL     1      24.308   2.518  51.969  1.00  0.00     0.064 A 
HETATM    2  C5  UNL     1      24.991   1.405  52.415  1.00  0.00     0.065 A 
HETATM    3  C6  UNL     1      24.424   0.242  52.885  1.00  0.00     0.085 A 
HETATM    4  C13 UNL     1      23.022   0.249  52.887  1.00  0.00     0.097 A 
HETATM    5  C15 UNL     1      22.279   1.328  52.455  1.00  0.00     0.070 A 
HETATM    6  C16 UNL     1      22.916   2.462  51.996  1.00  0.00     0.059 A 
ENDROOT
BRANCH   3   7
HETATM    7  N2  UNL     1      25.138  -0.895  53.348  1.00  0.00    -0.186 N 
HETATM    8  H6  UNL     1      24.562  -1.714  53.711  1.00  0.00     0.184 HD
BRANCH   7   9
HETATM    9  C7  UNL     1      26.548  -0.990  53.356  1.00  0.00     0.722 A 
HETATM   10  N3  UNL     1      27.049  -2.108  53.021  1.00  0.00    -0.105 NA
HETATM   11  C8  UNL     1      28.467  -2.325  52.990  1.00  0.00     0.175 A 
HETATM   12  C9  UNL     1      29.337  -1.178  53.385  1.00  0.00     0.082 A 
HETATM   13  C10 UNL     1      28.629   0.066  53.752  1.00  0.00     0.054 A 
HETATM   14  N4  UNL     1      27.333   0.149  53.737  1.00  0.00    -0.068 NA
BRANCH  13  15
HETATM   15  C11 UNL     1      29.411   1.229  54.140  1.00  0.00     0.018 C 
HETATM   16  C12 UNL     1      29.022   2.444  53.862  1.00  0.00     0.013 C 
ENDBRANCH  13  15
ENDBRANCH   7   9
ENDBRANCH   3   7
BRANCH   4  17
HETATM   17  O2  UNL     1      22.381  -0.877  53.344  1.00  0.00    -0.354 OA
HETATM   18  C14 UNL     1      21.666  -0.992  54.534  1.00  0.00     0.210 C 
ENDBRANCH   4  17
BRANCH   1  19
HETATM   19  N1  UNL     1      25.008   3.669  51.503  1.00  0.00    -0.322 N 
HETATM   20  C3  UNL     1      25.358   3.897  50.148  1.00  0.00     0.244 C 
HETATM   21  O1  UNL     1      25.096   3.119  49.194  1.00  0.00    -0.268 OA
HETATM   22  H4  UNL     1      25.330   4.458  52.126  1.00  0.00     0.169 HD
BRANCH  20  23
HETATM   23  C2  UNL     1      26.073   5.075  49.677  1.00  0.00     0.064 C 
HETATM   24  C1  UNL     1      27.030   4.435  49.022  1.00  0.00     0.017 C 
ENDBRANCH  20  23
ENDBRANCH   1  19
BRANCH   6  25
HETATM   25  N5  UNL     1      22.171   3.591  51.542  1.00  0.00    -0.382 N 
HETATM   26  C17 UNL     1      22.014   4.779  52.359  1.00  0.00     0.150 C 
BRANCH  25  27
HETATM   27  C18 UNL     1      21.584   3.507  50.229  1.00  0.00     0.152 C 
BRANCH  27  28
HETATM   28  C19 UNL     1      20.143   3.948  50.266  1.00  0.00     0.291 C 
BRANCH  28  29
HETATM   29  N6  UNL     1      19.238   2.925  50.755  1.00  0.00     0.081 N 
HETATM   30  C20 UNL     1      18.583   2.297  49.601  1.00  0.00     0.309 C 
HETATM   31  C21 UNL     1      18.152   3.627  51.451  1.00  0.00     0.309 C 
ENDBRANCH  28  29
ENDBRANCH  27  28
ENDBRANCH  25  27
ENDBRANCH   6  25
TORSDOF 10
ENDMDL
MODEL 6
REMARK VINA RESULT:      -7.0      1.512      1.929
REMARK  10 active torsions:
REMARK  status: ('A' for Active; 'I' for Inactive)
REMARK    1  A    between atoms: C2_2  and  C3_3 
REMARK       I    between atoms: C3_3  and  N1_5 
REMARK    2  A    between atoms: N1_5  and  C4_6 
REMARK    3  A    between atoms: C6_8  and  N2_9 
REMARK    4  A    between atoms: N2_9  and  C7_10 
REMARK    5  A    between atoms: C10_14  and  C11_15 
REMARK    6  A    between atoms: C13_18  and  O2_19 
REMARK    7  A    between atoms: C16_22  and  N5_23 
REMARK    8  A    between atoms: N5_23  and  C18_25 
REMARK    9  A    between atoms: C18_25  and  C19_26 
REMARK   10  A    between atoms: C19_26  and  N6_27 
ROOT
HETATM    1  C4  UNL     1      22.615   2.170  51.631  1.00  0.00     0.064 A 
HETATM    2  C5  UNL     1      23.629   2.294  52.558  1.00  0.00     0.065 A 
HETATM    3  C6  UNL     1      24.909   2.731  52.303  1.00  0.00     0.085 A 
HETATM    4  C13 UNL     1      25.144   3.067  50.962  1.00  0.00     0.097 A 
HETATM    5  C15 UNL     1      24.173   2.967  49.986  1.00  0.00     0.070 A 
HETATM    6  C16 UNL     1      22.910   2.520  50.314  1.00  0.00     0.059 A 
ENDROOT
BRANCH   3   7
HETATM    7  N2  UNL     1      25.947   2.847  53.265  1.00  0.00    -0.186 N 
HETATM    8  H6  UNL     1      25.950   3.721  53.874  1.00  0.00     0.184 HD
BRANCH   7   9
HETATM    9  C7  UNL     1      26.963   1.881  53.447  1.00  0.00     0.722 A 
HETATM   10  N3  UNL     1      28.050   2.283  53.967  1.00  0.00    -0.105 NA
HETATM   11  C8  UNL     1      29.152   1.395  54.201  1.00  0.00     0.175 A 
HETATM   12  C9  UNL     1      28.974  -0.030  53.794  1.00  0.00     0.082 A 
HETATM   13  C10 UNL     1      27.663  -0.367  53.202  1.00  0.00     0.054 A 
HETATM   14  N4  UNL     1      26.731   0.524  53.043  1.00  0.00    -0.068 NA
BRANCH  13  15
HETATM   15  C11 UNL     1      27.412  -1.738  52.788  1.00  0.00     0.018 C 
HETATM   16  C12 UNL     1      28.312  -2.674  52.925  1.00  0.00     0.013 C 
ENDBRANCH  13  15
ENDBRANCH   7   9
ENDBRANCH   3   7
BRANCH   4  17
HETATM   17  O2  UNL     1      26.399   3.512  50.628  1.00  0.00    -0.354 OA
HETATM   18  C14 UNL     1      26.813   3.939  49.368  1.00  0.00     0.210 C 
ENDBRANCH   4  17
BRANCH   1  19
HETATM   19  N1  UNL     1      21.323   1.704  52.015  1.00  0.00    -0.322 N 
HETATM   20  C3  UNL     1      21.014   0.348  52.292  1.00  0.00     0.244 C 
HETATM   21  O1  UNL     1      21.832  -0.605  52.236  1.00  0.00    -0.268 OA
HETATM   22  H4  UNL     1      20.479   2.327  52.127  1.00  0.00     0.169 HD
BRANCH  20  23
HETATM   23  C2  UNL     1      19.692  -0.123  52.684  1.00  0.00     0.064 C 
HETATM   24  C1  UNL     1      20.060  -0.734  53.799  1.00  0.00     0.017 C 
ENDBRANCH  20  23
ENDBRANCH   1  19
BRANCH   6  25
HETATM   25  N5  UNL     1      21.889   2.409  49.324  1.00  0.00    -0.382 N 
HETATM   26  C17 UNL     1      21.575   1.142  48.693  1.00  0.00     0.150 C 
BRANCH  25  27
HETATM   27  C18 UNL     1      21.174   3.611  48.981  1.00  0.00     0.152 C 
BRANCH  27  28
HETATM   28  C19 UNL     1      20.970   3.695  47.489  1.00  0.00     0.291 C 
BRANCH  28  29
HETATM   29  N6  UNL     1      22.148   4.136  46.769  1.00  0.00     0.081 N 
HETATM   30  C20 UNL     1      22.357   5.561  47.050  1.00  0.00     0.309 C 
HETATM   31  C21 UNL     1      21.805   4.095  45.341  1.00  0.00     0.309 C 
ENDBRANCH  28  29
ENDBRANCH  27  28
ENDBRANCH  25  27
ENDBRANCH   6  25
TORSDOF 10
ENDMDL
MODEL 7
REMARK VINA RESULT:      -6.9      1.694      4.183
REMARK  10 active torsions:
REMARK  status: ('A' for Active; 'I' for Inactive)
REMARK    1  A    between atoms: C2_2  and  C3_3 
REMARK       I    between atoms: C3_3  and  N1_5 
REMARK    2  A    between atoms: N1_5  and  C4_6 
REMARK    3  A    between atoms: C6_8  and  N2_9 
REMARK    4  A    between atoms: N2_9  and  C7_10 
REMARK    5  A    between atoms: C10_14  and  C11_15 
REMARK    6  A    between atoms: C13_18  and  O2_19 
REMARK    7  A    between atoms: C16_22  and  N5_23 
REMARK    8  A    between atoms: N5_23  and  C18_25 
REMARK    9  A    between atoms: C18_25  and  C19_26 
REMARK   10  A    between atoms: C19_26  and  N6_27 
ROOT
HETATM    1  C4  UNL     1      24.306   2.662  50.655  1.00  0.00     0.064 A 
HETATM    2  C5  UNL     1      25.051   2.219  51.728  1.00  0.00     0.065 A 
HETATM    3  C6  UNL     1      24.604   1.406  52.744  1.00  0.00     0.085 A 
HETATM    4  C13 UNL     1      23.260   1.026  52.624  1.00  0.00     0.097 A 
HETATM    5  C15 UNL     1      22.459   1.433  51.577  1.00  0.00     0.070 A 
HETATM    6  C16 UNL     1      22.976   2.249  50.592  1.00  0.00     0.059 A 
ENDROOT
BRANCH   3   7
HETATM    7  N2  UNL     1      25.380   0.962  53.848  1.00  0.00    -0.186 N 
HETATM    8  H6  UNL     1      24.852   0.657  54.721  1.00  0.00     0.184 HD
BRANCH   7   9
HETATM    9  C7  UNL     1      26.793   0.909  53.847  1.00  0.00     0.722 A 
HETATM   10  N3  UNL     1      27.407   2.003  54.045  1.00  0.00    -0.105 NA
HETATM   11  C8  UNL     1      28.839   2.075  54.068  1.00  0.00     0.175 A 
HETATM   12  C9  UNL     1      29.586   0.804  53.832  1.00  0.00     0.082 A 
HETATM   13  C10 UNL     1      28.753  -0.396  53.615  1.00  0.00     0.054 A 
HETATM   14  N4  UNL     1      27.456  -0.343  53.622  1.00  0.00    -0.068 NA
BRANCH  13  15
HETATM   15  C11 UNL     1      29.410  -1.673  53.386  1.00  0.00     0.018 C 
HETATM   16  C12 UNL     1      28.745  -2.734  53.017  1.00  0.00     0.013 C 
ENDBRANCH  13  15
ENDBRANCH   7   9
ENDBRANCH   3   7
BRANCH   4  17
HETATM   17  O2  UNL     1      22.738   0.214  53.601  1.00  0.00    -0.354 OA
HETATM   18  C14 UNL     1      22.346  -1.114  53.445  1.00  0.00     0.210 C 
ENDBRANCH   4  17
BRANCH   1  19
HETATM   19  N1  UNL     1      24.881   3.505  49.660  1.00  0.00    -0.322 N 
HETATM   20  C3  UNL     1      25.002   4.913  49.779  1.00  0.00     0.244 C 
HETATM   21  O1  UNL     1      24.623   5.590  50.769  1.00  0.00    -0.268 OA
HETATM   22  H4  UNL     1      25.269   3.157  48.742  1.00  0.00     0.169 HD
BRANCH  20  23
HETATM   23  C2  UNL     1      25.592   5.770  48.759  1.00  0.00     0.064 C 
HETATM   24  C1  UNL     1      26.813   5.261  48.803  1.00  0.00     0.017 C 
ENDBRANCH  20  23
ENDBRANCH   1  19
BRANCH   6  25
HETATM   25  N5  UNL     1      22.169   2.684  49.498  1.00  0.00    -0.382 N 
HETATM   26  C17 UNL     1      22.126   1.953  48.247  1.00  0.00     0.150 C 
BRANCH  25  27
HETATM   27  C18 UNL     1      21.388   3.878  49.692  1.00  0.00     0.152 C 
BRANCH  27  28
HETATM   28  C19 UNL     1      21.492   4.777  48.487  1.00  0.00     0.291 C 
BRANCH  28  29
HETATM   29  N6  UNL     1      20.218   5.326  48.063  1.00  0.00     0.081 N 
HETATM   30  C20 UNL     1      19.150   4.440  48.540  1.00  0.00     0.309 C 
HETATM   31  C21 UNL     1      20.172   5.195  46.601  1.00  0.00     0.309 C 
ENDBRANCH  28  29
ENDBRANCH  27  28
ENDBRANCH  25  27
ENDBRANCH   6  25
TORSDOF 10
ENDMDL
MODEL 8
REMARK VINA RESULT:      -6.7      3.664      5.690
REMARK  10 active torsions:
REMARK  status: ('A' for Active; 'I' for Inactive)
REMARK    1  A    between atoms: C2_2  and  C3_3 
REMARK       I    between atoms: C3_3  and  N1_5 
REMARK    2  A    between atoms: N1_5  and  C4_6 
REMARK    3  A    between atoms: C6_8  and  N2_9 
REMARK    4  A    between atoms: N2_9  and  C7_10 
REMARK    5  A    between atoms: C10_14  and  C11_15 
REMARK    6  A    between atoms: C13_18  and  O2_19 
REMARK    7  A    between atoms: C16_22  and  N5_23 
REMARK    8  A    between atoms: N5_23  and  C18_25 
REMARK    9  A    between atoms: C18_25  and  C19_26 
REMARK   10  A    between atoms: C19_26  and  N6_27 
ROOT
HETATM    1  C4  UNL     1      26.118   4.036  49.788  1.00  0.00     0.064 A 
HETATM    2  C5  UNL     1      27.184   4.472  49.028  1.00  0.00     0.065 A 
HETATM    3  C6  UNL     1      27.410   5.765  48.618  1.00  0.00     0.085 A 
HETATM    4  C13 UNL     1      26.435   6.679  49.042  1.00  0.00     0.097 A 
HETATM    5  C15 UNL     1      25.346   6.310  49.804  1.00  0.00     0.070 A 
HETATM    6  C16 UNL     1      25.183   4.993  50.179  1.00  0.00     0.059 A 
ENDROOT
BRANCH   3   7
HETATM    7  N2  UNL     1      28.507   6.201  47.828  1.00  0.00    -0.186 N 
HETATM    8  H6  UNL     1      28.282   6.659  46.894  1.00  0.00     0.184 HD
BRANCH   7   9
HETATM    9  C7  UNL     1      29.860   6.056  48.213  1.00  0.00     0.722 A 
HETATM   10  N3  UNL     1      30.348   6.967  48.951  1.00  0.00    -0.105 NA
HETATM   11  C8  UNL     1      31.708   6.929  49.405  1.00  0.00     0.175 A 
HETATM   12  C9  UNL     1      32.539   5.771  48.959  1.00  0.00     0.082 A 
HETATM   13  C10 UNL     1      31.852   4.781  48.105  1.00  0.00     0.054 A 
HETATM   14  N4  UNL     1      30.607   4.917  47.760  1.00  0.00    -0.068 NA
BRANCH  13  15
HETATM   15  C11 UNL     1      32.595   3.622  47.639  1.00  0.00     0.018 C 
HETATM   16  C12 UNL     1      32.230   2.949  46.580  1.00  0.00     0.013 C 
ENDBRANCH  13  15
ENDBRANCH   7   9
ENDBRANCH   3   7
BRANCH   4  17
HETATM   17  O2  UNL     1      26.590   7.993  48.671  1.00  0.00    -0.354 OA
HETATM   18  C14 UNL     1      26.640   9.090  49.529  1.00  0.00     0.210 C 
ENDBRANCH   4  17
BRANCH   1  19
HETATM   19  N1  UNL     1      25.991   2.664  50.153  1.00  0.00    -0.322 N 
HETATM   20  C3  UNL     1      26.674   2.059  51.239  1.00  0.00     0.244 C 
HETATM   21  O1  UNL     1      27.470   2.651  52.011  1.00  0.00    -0.268 OA
HETATM   22  H4  UNL     1      25.375   1.972  49.646  1.00  0.00     0.169 HD
BRANCH  20  23
HETATM   23  C2  UNL     1      26.540   0.656  51.607  1.00  0.00     0.064 C 
HETATM   24  C1  UNL     1      27.280   0.703  52.704  1.00  0.00     0.017 C 
ENDBRANCH  20  23
ENDBRANCH   1  19
BRANCH   6  25
HETATM   25  N5  UNL     1      24.067   4.585  50.968  1.00  0.00    -0.382 N 
HETATM   26  C17 UNL     1      24.101   4.629  52.417  1.00  0.00     0.150 C 
BRANCH  25  27
HETATM   27  C18 UNL     1      22.894   4.134  50.263  1.00  0.00     0.152 C 
BRANCH  27  28
HETATM   28  C19 UNL     1      21.969   3.395  51.197  1.00  0.00     0.291 C 
BRANCH  28  29
HETATM   29  N6  UNL     1      21.805   1.994  50.859  1.00  0.00     0.081 N 
HETATM   30  C20 UNL     1      22.783   1.215  51.628  1.00  0.00     0.309 C 
HETATM   31  C21 UNL     1      22.240   1.847  49.464  1.00  0.00     0.309 C 
ENDBRANCH  28  29
ENDBRANCH  27  28
ENDBRANCH  25  27
ENDBRANCH   6  25
TORSDOF 10
ENDMDL
MODEL 9
REMARK VINA RESULT:      -6.7      1.630      6.882
REMARK  10 active torsions:
REMARK  status: ('A' for Active; 'I' for Inactive)
REMARK    1  A    between atoms: C2_2  and  C3_3 
REMARK       I    between atoms: C3_3  and  N1_5 
REMARK    2  A    between atoms: N1_5  and  C4_6 
REMARK    3  A    between atoms: C6_8  and  N2_9 
REMARK    4  A    between atoms: N2_9  and  C7_10 
REMARK    5  A    between atoms: C10_14  and  C11_15 
REMARK    6  A    between atoms: C13_18  and  O2_19 
REMARK    7  A    between atoms: C16_22  and  N5_23 
REMARK    8  A    between atoms: N5_23  and  C18_25 
REMARK    9  A    between atoms: C18_25  and  C19_26 
REMARK   10  A    between atoms: C19_26  and  N6_27 
ROOT
HETATM    1  C4  UNL     1      23.933   1.653  52.423  1.00  0.00     0.064 A 
HETATM    2  C5  UNL     1      23.317   2.502  51.527  1.00  0.00     0.065 A 
HETATM    3  C6  UNL     1      23.918   3.118  50.453  1.00  0.00     0.085 A 
HETATM    4  C13 UNL     1      25.279   2.817  50.308  1.00  0.00     0.097 A 
HETATM    5  C15 UNL     1      25.955   1.976  51.168  1.00  0.00     0.070 A 
HETATM    6  C16 UNL     1      25.287   1.393  52.225  1.00  0.00     0.059 A 
ENDROOT
BRANCH   3   7
HETATM    7  N2  UNL     1      23.275   3.997  49.540  1.00  0.00    -0.186 N 
HETATM    8  H6  UNL     1      22.996   3.595  48.594  1.00  0.00     0.184 HD
BRANCH   7   9
HETATM    9  C7  UNL     1      22.999   5.355  49.818  1.00  0.00     0.722 A 
HETATM   10  N3  UNL     1      23.909   6.017  50.405  1.00  0.00    -0.105 NA
HETATM   11  C8  UNL     1      23.745   7.402  50.739  1.00  0.00     0.175 A 
HETATM   12  C9  UNL     1      22.443   8.037  50.376  1.00  0.00     0.082 A 
HETATM   13  C10 UNL     1      21.471   7.159  49.695  1.00  0.00     0.054 A 
HETATM   14  N4  UNL     1      21.733   5.913  49.438  1.00  0.00    -0.068 NA
BRANCH  13  15
HETATM   15  C11 UNL     1      20.183   7.709  49.303  1.00  0.00     0.018 C 
HETATM   16  C12 UNL     1      19.714   8.807  49.831  1.00  0.00     0.013 C 
ENDBRANCH  13  15
ENDBRANCH   7   9
ENDBRANCH   3   7
BRANCH   4  17
HETATM   17  O2  UNL     1      25.951   3.395  49.258  1.00  0.00    -0.354 OA
HETATM   18  C14 UNL     1      26.933   4.378  49.350  1.00  0.00     0.210 C 
ENDBRANCH   4  17
BRANCH   1  19
HETATM   19  N1  UNL     1      23.204   1.072  53.502  1.00  0.00    -0.322 N 
HETATM   20  C3  UNL     1      22.254   0.030  53.354  1.00  0.00     0.244 C 
HETATM   21  O1  UNL     1      21.938  -0.510  52.263  1.00  0.00    -0.268 OA
HETATM   22  H4  UNL     1      23.304   1.367  54.511  1.00  0.00     0.169 HD
BRANCH  20  23
HETATM   23  C2  UNL     1      21.511  -0.560  54.460  1.00  0.00     0.064 C 
HETATM   24  C1  UNL     1      22.521  -1.225  54.999  1.00  0.00     0.017 C 
ENDBRANCH  20  23
ENDBRANCH   1  19
BRANCH   6  25
HETATM   25  N5  UNL     1      25.962   0.519  53.128  1.00  0.00    -0.382 N 
HETATM   26  C17 UNL     1      25.970  -0.918  52.935  1.00  0.00     0.150 C 
BRANCH  25  27
HETATM   27  C18 UNL     1      26.647   1.125  54.241  1.00  0.00     0.152 C 
BRANCH  27  28
HETATM   28  C19 UNL     1      27.741   0.218  54.745  1.00  0.00     0.291 C 
BRANCH  28  29
HETATM   29  N6  UNL     1      29.072   0.768  54.572  1.00  0.00     0.081 N 
HETATM   30  C20 UNL     1      28.954   2.061  53.888  1.00  0.00     0.309 C 
HETATM   31  C21 UNL     1      29.757  -0.095  53.601  1.00  0.00     0.309 C 
ENDBRANCH  28  29
ENDBRANCH  27  28
ENDBRANCH  25  27
ENDBRANCH   6  25
TORSDOF 10
ENDMDL
