MODEL 1
REMARK VINA RESULT:      -8.4      0.000      0.000
REMARK  5 active torsions:
REMARK  status: ('A' for Active; 'I' for Inactive)
REMARK    1  A    between atoms: C9_9  and  N1_10 
REMARK    2  A    between atoms: N1_10  and  C10_11 
REMARK    3  A    between atoms: N1_10  and  C16_17 
REMARK    4  A    between atoms: C10_11  and  C11_12 
REMARK    5  A    between atoms: C17_19  and  O1_20 
ROOT
HETATM    1  N1  UNL     1      24.237   1.633  51.963  1.00  0.00    -0.347 N 
ENDROOT
BRANCH   1   2
HETATM    2  C9  UNL     1      24.854   1.246  53.217  1.00  0.00     0.124 A 
HETATM    3  C5  UNL     1      25.907   0.239  53.124  1.00  0.00    -0.029 A 
HETATM    4  C4  UNL     1      26.319  -1.046  52.798  1.00  0.00     0.010 A 
HETATM    5  C6  UNL     1      26.842   1.096  53.606  1.00  0.00    -0.047 A 
HETATM    6  C3  UNL     1      27.641  -1.441  52.961  1.00  0.00     0.007 A 
HETATM    7  C2  UNL     1      28.599  -0.578  53.451  1.00  0.00    -0.061 A 
HETATM    8  C1  UNL     1      30.022  -0.956  53.640  1.00  0.00     0.048 C 
HETATM    9  C7  UNL     1      28.160   0.698  53.767  1.00  0.00     0.014 A 
HETATM   10  C8  UNL     1      25.880   2.169  53.741  1.00  0.00     0.069 A 
ENDBRANCH   1   2
BRANCH   1  11
HETATM   11  C10 UNL     1      23.017   0.978  51.574  1.00  0.00     0.160 C 
BRANCH  11  12
HETATM   12  C11 UNL     1      22.304   0.327  52.687  1.00  0.00    -0.059 A 
HETATM   13  C12 UNL     1      21.412   0.936  53.430  1.00  0.00     0.004 A 
HETATM   14  C13 UNL     1      20.845   0.091  54.464  1.00  0.00    -0.003 A 
HETATM   15  C14 UNL     1      21.440  -1.074  54.311  1.00  0.00    -0.022 A 
HETATM   16  C15 UNL     1      22.414  -1.055  53.189  1.00  0.00     0.063 A 
ENDBRANCH  11  12
ENDBRANCH   1  11
BRANCH   1  17
HETATM   17  C16 UNL     1      24.948   2.696  51.185  1.00  0.00     0.172 A 
HETATM   18  N2  UNL     1      25.879   2.964  50.620  1.00  0.00    -0.200 NA
HETATM   19  C17 UNL     1      26.199   4.087  50.011  1.00  0.00     0.171 A 
HETATM   20  C18 UNL     1      25.264   5.082  50.071  1.00  0.00     0.111 A 
HETATM   21  S1  UNL     1      23.893   4.299  51.059  1.00  0.00    -0.060 SA
BRANCH  19  22
HETATM   22  O1  UNL     1      27.432   4.235  49.346  1.00  0.00    -0.344 OA
HETATM   23  H17 UNL     1      27.440   4.212  48.321  1.00  0.00     0.219 HD
ENDBRANCH  19  22
ENDBRANCH   1  17
TORSDOF 5
ENDMDL
MODEL 2
REMARK VINA RESULT:      -8.4      2.381      6.303
REMARK  5 active torsions:
REMARK  status: ('A' for Active; 'I' for Inactive)
REMARK    1  A    between atoms: C9_9  and  N1_10 
REMARK    2  A    between atoms: N1_10  and  C10_11 
REMARK    3  A    between atoms: N1_10  and  C16_17 
REMARK    4  A    between atoms: C10_11  and  C11_12 
REMARK    5  A    between atoms: C17_19  and  O1_20 
ROOT
HETATM    1  N1  UNL     1      26.190   2.733  51.241  1.00  0.00    -0.347 N 
ENDROOT
BRANCH   1   2
HETATM    2  C9  UNL     1      24.914   3.172  51.774  1.00  0.00     0.124 A 
HETATM    3  C5  UNL     1      23.751   2.386  51.370  1.00  0.00    -0.029 A 
HETATM    4  C4  UNL     1      22.905   1.911  50.379  1.00  0.00     0.010 A 
HETATM    5  C6  UNL     1      23.492   2.015  52.649  1.00  0.00    -0.047 A 
HETATM    6  C3  UNL     1      21.829   1.086  50.685  1.00  0.00     0.007 A 
HETATM    7  C2  UNL     1      21.557   0.705  51.982  1.00  0.00    -0.061 A 
HETATM    8  C1  UNL     1      20.421  -0.175  52.355  1.00  0.00     0.048 C 
HETATM    9  C7  UNL     1      22.418   1.193  52.951  1.00  0.00     0.014 A 
HETATM   10  C8  UNL     1      24.622   2.763  53.161  1.00  0.00     0.069 A 
ENDBRANCH   1   2
BRANCH   1  11
HETATM   11  C10 UNL     1      26.392   2.797  49.819  1.00  0.00     0.160 C 
BRANCH  11  12
HETATM   12  C11 UNL     1      26.531   4.167  49.293  1.00  0.00    -0.059 A 
HETATM   13  C12 UNL     1      27.653   4.649  48.814  1.00  0.00     0.004 A 
HETATM   14  C13 UNL     1      27.545   6.021  48.355  1.00  0.00    -0.003 A 
HETATM   15  C14 UNL     1      26.291   6.354  48.580  1.00  0.00    -0.022 A 
HETATM   16  C15 UNL     1      25.522   5.238  49.189  1.00  0.00     0.063 A 
ENDBRANCH  11  12
ENDBRANCH   1  11
BRANCH   1  17
HETATM   17  C16 UNL     1      27.186   2.246  52.247  1.00  0.00     0.172 A 
HETATM   18  N2  UNL     1      27.995   2.541  52.966  1.00  0.00    -0.200 NA
HETATM   19  C17 UNL     1      28.728   1.788  53.760  1.00  0.00     0.171 A 
HETATM   20  C18 UNL     1      28.474   0.446  53.706  1.00  0.00     0.111 A 
HETATM   21  S1  UNL     1      27.113   0.335  52.440  1.00  0.00    -0.060 SA
BRANCH  19  22
HETATM   22  O1  UNL     1      29.707   2.348  54.604  1.00  0.00    -0.344 OA
HETATM   23  H17 UNL     1      29.953   1.849  55.465  1.00  0.00     0.219 HD
ENDBRANCH  19  22
ENDBRANCH   1  17
TORSDOF 5
ENDMDL
MODEL 3
REMARK VINA RESULT:      -8.0      2.396      5.309
REMARK  5 active torsions:
REMARK  status: ('A' for Active; 'I' for Inactive)
REMARK    1  A    between atoms: C9_9  and  N1_10 
REMARK    2  A    between atoms: N1_10  and  C10_11 
REMARK    3  A    between atoms: N1_10  and  C16_17 
REMARK    4  A    between atoms: C10_11  and  C11_12 
REMARK    5  A    between atoms: C17_19  and  O1_20 
ROOT
HETATM    1  N1  UNL     1      25.667   2.185  52.415  1.00  0.00    -0.347 N 
ENDROOT
BRANCH   1   2
HETATM    2  C9  UNL     1      25.700   2.264  50.967  1.00  0.00     0.124 A 
HETATM    3  C5  UNL     1      24.764   3.206  50.359  1.00  0.00    -0.029 A 
HETATM    4  C4  UNL     1      23.463   3.621  50.114  1.00  0.00     0.010 A 
HETATM    5  C6  UNL     1      25.771   3.950  49.836  1.00  0.00    -0.047 A 
HETATM    6  C3  UNL     1      23.200   4.758  49.360  1.00  0.00     0.007 A 
HETATM    7  C2  UNL     1      24.216   5.521  48.824  1.00  0.00    -0.061 A 
HETATM    8  C1  UNL     1      23.982   6.742  48.013  1.00  0.00     0.048 C 
HETATM    9  C7  UNL     1      25.505   5.083  49.084  1.00  0.00     0.014 A 
HETATM   10  C8  UNL     1      26.787   3.081  50.392  1.00  0.00     0.069 A 
ENDBRANCH   1   2
BRANCH   1  11
HETATM   11  C10 UNL     1      24.406   2.376  53.078  1.00  0.00     0.160 C 
BRANCH  11  12
HETATM   12  C11 UNL     1      23.528   1.192  53.052  1.00  0.00    -0.059 A 
HETATM   13  C12 UNL     1      22.289   1.219  52.624  1.00  0.00     0.004 A 
HETATM   14  C13 UNL     1      21.624  -0.068  52.695  1.00  0.00    -0.003 A 
HETATM   15  C14 UNL     1      22.528  -0.888  53.190  1.00  0.00    -0.022 A 
HETATM   16  C15 UNL     1      23.812  -0.194  53.467  1.00  0.00     0.063 A 
ENDBRANCH  11  12
ENDBRANCH   1  11
BRANCH   1  17
HETATM   17  C16 UNL     1      26.976   1.907  53.085  1.00  0.00     0.172 A 
HETATM   18  N2  UNL     1      27.819   2.340  53.686  1.00  0.00    -0.200 NA
HETATM   19  C17 UNL     1      28.909   1.759  54.144  1.00  0.00     0.171 A 
HETATM   20  C18 UNL     1      29.043   0.432  53.848  1.00  0.00     0.111 A 
HETATM   21  S1  UNL     1      27.502   0.071  52.868  1.00  0.00    -0.060 SA
BRANCH  19  22
HETATM   22  O1  UNL     1      29.863   2.477  54.891  1.00  0.00    -0.344 OA
HETATM   23  H17 UNL     1      29.781   3.498  54.937  1.00  0.00     0.219 HD
ENDBRANCH  19  22
ENDBRANCH   1  17
TORSDOF 5
ENDMDL
MODEL 4
REMARK VINA RESULT:      -8.0      2.546      5.016
REMARK  5 active torsions:
REMARK  status: ('A' for Active; 'I' for Inactive)
REMARK    1  A    between atoms: C9_9  and  N1_10 
REMARK    2  A    between atoms: N1_10  and  C10_11 
REMARK    3  A    between atoms: N1_10  and  C16_17 
REMARK    4  A    between atoms: C10_11  and  C11_12 
REMARK    5  A    between atoms: C17_19  and  O1_20 
ROOT
HETATM    1  N1  UNL     1      25.239   0.684  52.487  1.00  0.00    -0.347 N 
ENDROOT
BRANCH   1   2
HETATM    2  C9  UNL     1      25.534   2.096  52.643  1.00  0.00     0.124 A 
HETATM    3  C5  UNL     1      25.795   2.832  51.409  1.00  0.00    -0.029 A 
HETATM    4  C4  UNL     1      26.561   3.041  50.271  1.00  0.00     0.010 A 
HETATM    5  C6  UNL     1      24.720   3.637  51.600  1.00  0.00    -0.047 A 
HETATM    6  C3  UNL     1      26.240   4.040  49.360  1.00  0.00     0.007 A 
HETATM    7  C2  UNL     1      25.151   4.864  49.546  1.00  0.00    -0.061 A 
HETATM    8  C1  UNL     1      24.770   5.943  48.600  1.00  0.00     0.048 C 
HETATM    9  C7  UNL     1      24.404   4.634  50.690  1.00  0.00     0.014 A 
HETATM   10  C8  UNL     1      24.368   2.979  52.840  1.00  0.00     0.069 A 
ENDBRANCH   1   2
BRANCH   1  11
HETATM   11  C10 UNL     1      23.897   0.304  52.137  1.00  0.00     0.160 C 
BRANCH  11  12
HETATM   12  C11 UNL     1      23.130  -0.284  53.250  1.00  0.00    -0.059 A 
HETATM   13  C12 UNL     1      21.821  -0.352  53.272  1.00  0.00     0.004 A 
HETATM   14  C13 UNL     1      21.293  -0.974  54.471  1.00  0.00    -0.003 A 
HETATM   15  C14 UNL     1      22.355  -1.286  55.185  1.00  0.00    -0.022 A 
HETATM   16  C15 UNL     1      23.615  -0.891  54.504  1.00  0.00     0.063 A 
ENDBRANCH  11  12
ENDBRANCH   1  11
BRANCH   1  17
HETATM   17  C16 UNL     1      26.385  -0.252  52.711  1.00  0.00     0.172 A 
HETATM   18  N2  UNL     1      26.744  -1.312  52.633  1.00  0.00    -0.200 NA
HETATM   19  C17 UNL     1      27.913  -1.829  52.949  1.00  0.00     0.171 A 
HETATM   20  C18 UNL     1      28.834  -0.951  53.449  1.00  0.00     0.111 A 
HETATM   21  S1  UNL     1      27.911   0.666  53.435  1.00  0.00    -0.060 SA
BRANCH  19  22
HETATM   22  O1  UNL     1      28.179  -3.201  52.776  1.00  0.00    -0.344 OA
HETATM   23  H17 UNL     1      27.810  -3.862  53.468  1.00  0.00     0.219 HD
ENDBRANCH  19  22
ENDBRANCH   1  17
TORSDOF 5
ENDMDL
MODEL 5
REMARK VINA RESULT:      -7.8      1.126      4.976
REMARK  5 active torsions:
REMARK  status: ('A' for Active; 'I' for Inactive)
REMARK    1  A    between atoms: C9_9  and  N1_10 
REMARK    2  A    between atoms: N1_10  and  C10_11 
REMARK    3  A    between atoms: N1_10  and  C16_17 
REMARK    4  A    between atoms: C10_11  and  C11_12 
REMARK    5  A    between atoms: C17_19  and  O1_20 
ROOT
HETATM    1  N1  UNL     1      25.871   1.304  51.957  1.00  0.00    -0.347 N 
ENDROOT
BRANCH   1   2
HETATM    2  C9  UNL     1      24.891   1.550  52.998  1.00  0.00     0.124 A 
HETATM    3  C5  UNL     1      23.590   0.914  52.809  1.00  0.00    -0.029 A 
HETATM    4  C4  UNL     1      22.422   0.757  52.077  1.00  0.00     0.010 A 
HETATM    5  C6  UNL     1      23.731   0.170  53.935  1.00  0.00    -0.047 A 
HETATM    6  C3  UNL     1      21.432  -0.131  52.481  1.00  0.00     0.007 A 
HETATM    7  C2  UNL     1      21.566  -0.891  53.623  1.00  0.00    -0.061 A 
HETATM    8  C1  UNL     1      20.536  -1.852  54.092  1.00  0.00     0.048 C 
HETATM    9  C7  UNL     1      22.741  -0.714  54.335  1.00  0.00     0.014 A 
HETATM   10  C8  UNL     1      25.033   0.735  54.221  1.00  0.00     0.069 A 
ENDBRANCH   1   2
BRANCH   1  11
HETATM   11  C10 UNL     1      26.478   0.003  51.888  1.00  0.00     0.160 C 
BRANCH  11  12
HETATM   12  C11 UNL     1      27.730  -0.118  52.657  1.00  0.00    -0.059 A 
HETATM   13  C12 UNL     1      28.258  -1.267  53.003  1.00  0.00     0.004 A 
HETATM   14  C13 UNL     1      29.491  -1.134  53.755  1.00  0.00    -0.003 A 
HETATM   15  C14 UNL     1      29.690   0.165  53.849  1.00  0.00    -0.022 A 
HETATM   16  C15 UNL     1      28.616   0.940  53.177  1.00  0.00     0.063 A 
ENDBRANCH  11  12
ENDBRANCH   1  11
BRANCH   1  17
HETATM   17  C16 UNL     1      26.158   2.456  51.045  1.00  0.00     0.172 A 
HETATM   18  N2  UNL     1      26.956   3.098  50.588  1.00  0.00    -0.200 NA
HETATM   19  C17 UNL     1      26.843   4.113  49.756  1.00  0.00     0.171 A 
HETATM   20  C18 UNL     1      25.568   4.441  49.389  1.00  0.00     0.111 A 
HETATM   21  S1  UNL     1      24.540   3.196  50.317  1.00  0.00    -0.060 SA
BRANCH  19  22
HETATM   22  O1  UNL     1      27.976   4.805  49.285  1.00  0.00    -0.344 OA
HETATM   23  H17 UNL     1      28.421   5.492  49.902  1.00  0.00     0.219 HD
ENDBRANCH  19  22
ENDBRANCH   1  17
TORSDOF 5
ENDMDL
MODEL 6
REMARK VINA RESULT:      -7.7      2.500      5.220
REMARK  5 active torsions:
REMARK  status: ('A' for Active; 'I' for Inactive)
REMARK    1  A    between atoms: C9_9  and  N1_10 
REMARK    2  A    between atoms: N1_10  and  C10_11 
REMARK    3  A    between atoms: N1_10  and  C16_17 
REMARK    4  A    between atoms: C10_11  and  C11_12 
REMARK    5  A    between atoms: C17_19  and  O1_20 
ROOT
HETATM    1  N1  UNL     1      23.681   0.985  52.660  1.00  0.00    -0.347 N 
ENDROOT
BRANCH   1   2
HETATM    2  C9  UNL     1      24.329   2.267  52.867  1.00  0.00     0.124 A 
HETATM    3  C5  UNL     1      25.189   2.728  51.781  1.00  0.00    -0.029 A 
HETATM    4  C4  UNL     1      26.308   2.561  50.978  1.00  0.00     0.010 A 
HETATM    5  C6  UNL     1      24.413   3.819  51.559  1.00  0.00    -0.047 A 
HETATM    6  C3  UNL     1      26.624   3.478  49.983  1.00  0.00     0.007 A 
HETATM    7  C2  UNL     1      25.843   4.590  49.751  1.00  0.00    -0.061 A 
HETATM    8  C1  UNL     1      26.141   5.594  48.699  1.00  0.00     0.048 C 
HETATM    9  C7  UNL     1      24.732   4.732  50.567  1.00  0.00     0.014 A 
HETATM   10  C8  UNL     1      23.493   3.457  52.617  1.00  0.00     0.069 A 
ENDBRANCH   1   2
BRANCH   1  11
HETATM   11  C10 UNL     1      24.153  -0.145  53.413  1.00  0.00     0.160 C 
BRANCH  11  12
HETATM   12  C11 UNL     1      25.620  -0.210  53.544  1.00  0.00    -0.059 A 
HETATM   13  C12 UNL     1      26.407  -0.715  52.625  1.00  0.00     0.004 A 
HETATM   14  C13 UNL     1      27.813  -0.668  52.978  1.00  0.00    -0.003 A 
HETATM   15  C14 UNL     1      27.844  -0.103  54.168  1.00  0.00    -0.022 A 
HETATM   16  C15 UNL     1      26.483   0.244  54.651  1.00  0.00     0.063 A 
ENDBRANCH  11  12
ENDBRANCH   1  11
BRANCH   1  17
HETATM   17  C16 UNL     1      22.566   0.970  51.661  1.00  0.00     0.172 A 
HETATM   18  N2  UNL     1      22.295   1.047  50.575  1.00  0.00    -0.200 NA
HETATM   19  C17 UNL     1      21.112   0.985  49.999  1.00  0.00     0.171 A 
HETATM   20  C18 UNL     1      20.050   0.801  50.840  1.00  0.00     0.111 A 
HETATM   21  S1  UNL     1      20.862   0.722  52.515  1.00  0.00    -0.060 SA
BRANCH  19  22
HETATM   22  O1  UNL     1      20.970   1.104  48.603  1.00  0.00    -0.344 OA
HETATM   23  H17 UNL     1      20.452   1.907  48.231  1.00  0.00     0.219 HD
ENDBRANCH  19  22
ENDBRANCH   1  17
TORSDOF 5
ENDMDL
MODEL 7
REMARK VINA RESULT:      -7.6      2.267      5.644
REMARK  5 active torsions:
REMARK  status: ('A' for Active; 'I' for Inactive)
REMARK    1  A    between atoms: C9_9  and  N1_10 
REMARK    2  A    between atoms: N1_10  and  C10_11 
REMARK    3  A    between atoms: N1_10  and  C16_17 
REMARK    4  A    between atoms: C10_11  and  C11_12 
REMARK    5  A    between atoms: C17_19  and  O1_20 
ROOT
HETATM    1  N1  UNL     1      23.359   2.119  52.216  1.00  0.00    -0.347 N 
ENDROOT
BRANCH   1   2
HETATM    2  C9  UNL     1      22.646   1.065  51.518  1.00  0.00     0.124 A 
HETATM    3  C5  UNL     1      21.748   0.254  52.335  1.00  0.00    -0.029 A 
HETATM    4  C4  UNL     1      21.543  -0.629  53.385  1.00  0.00     0.010 A 
HETATM    5  C6  UNL     1      20.661   0.652  51.627  1.00  0.00    -0.047 A 
HETATM    6  C3  UNL     1      20.272  -1.091  53.700  1.00  0.00     0.007 A 
HETATM    7  C2  UNL     1      19.161  -0.695  52.986  1.00  0.00    -0.061 A 
HETATM    8  C1  UNL     1      17.784  -1.162  53.287  1.00  0.00     0.048 C 
HETATM    9  C7  UNL     1      19.394   0.187  51.943  1.00  0.00     0.014 A 
HETATM   10  C8  UNL     1      21.457   1.489  50.754  1.00  0.00     0.069 A 
ENDBRANCH   1   2
BRANCH   1  11
HETATM   11  C10 UNL     1      24.221   1.751  53.306  1.00  0.00     0.160 C 
BRANCH  11  12
HETATM   12  C11 UNL     1      25.231   0.736  52.957  1.00  0.00    -0.059 A 
HETATM   13  C12 UNL     1      25.313  -0.435  53.542  1.00  0.00     0.004 A 
HETATM   14  C13 UNL     1      26.387  -1.264  53.029  1.00  0.00    -0.003 A 
HETATM   15  C14 UNL     1      26.959  -0.535  52.093  1.00  0.00    -0.022 A 
HETATM   16  C15 UNL     1      26.303   0.790  51.945  1.00  0.00     0.063 A 
ENDBRANCH  11  12
ENDBRANCH   1  11
BRANCH   1  17
HETATM   17  C16 UNL     1      23.117   3.510  51.720  1.00  0.00     0.172 A 
HETATM   18  N2  UNL     1      22.540   4.460  51.873  1.00  0.00    -0.200 NA
HETATM   19  C17 UNL     1      22.579   5.586  51.189  1.00  0.00     0.171 A 
HETATM   20  C18 UNL     1      23.448   5.610  50.135  1.00  0.00     0.111 A 
HETATM   21  S1  UNL     1      24.206   3.910  50.188  1.00  0.00    -0.060 SA
BRANCH  19  22
HETATM   22  O1  UNL     1      21.769   6.684  51.538  1.00  0.00    -0.344 OA
HETATM   23  H17 UNL     1      20.847   6.771  51.098  1.00  0.00     0.219 HD
ENDBRANCH  19  22
ENDBRANCH   1  17
TORSDOF 5
ENDMDL
MODEL 8
REMARK VINA RESULT:      -7.6      2.507      4.644
REMARK  5 active torsions:
REMARK  status: ('A' for Active; 'I' for Inactive)
REMARK    1  A    between atoms: C9_9  and  N1_10 
REMARK    2  A    between atoms: N1_10  and  C10_11 
REMARK    3  A    between atoms: N1_10  and  C16_17 
REMARK    4  A    between atoms: C10_11  and  C11_12 
REMARK    5  A    between atoms: C17_19  and  O1_20 
ROOT
HETATM    1  N1  UNL     1      24.008   1.692  52.026  1.00  0.00    -0.347 N 
ENDROOT
BRANCH   1   2
HETATM    2  C9  UNL     1      24.703   1.390  53.263  1.00  0.00     0.124 A 
HETATM    3  C5  UNL     1      25.773   0.401  53.167  1.00  0.00    -0.029 A 
HETATM    4  C4  UNL     1      26.197  -0.891  52.891  1.00  0.00     0.010 A 
HETATM    5  C6  UNL     1      26.712   1.303  53.547  1.00  0.00    -0.047 A 
HETATM    6  C3  UNL     1      27.535  -1.249  53.001  1.00  0.00     0.007 A 
HETATM    7  C2  UNL     1      28.497  -0.340  53.387  1.00  0.00    -0.061 A 
HETATM    8  C1  UNL     1      29.937  -0.677  53.516  1.00  0.00     0.048 C 
HETATM    9  C7  UNL     1      28.046   0.943  53.656  1.00  0.00     0.014 A 
HETATM   10  C8  UNL     1      25.734   2.363  53.676  1.00  0.00     0.069 A 
ENDBRANCH   1   2
BRANCH   1  11
HETATM   11  C10 UNL     1      24.775   1.747  50.811  1.00  0.00     0.160 C 
BRANCH  11  12
HETATM   12  C11 UNL     1      25.151   3.111  50.399  1.00  0.00    -0.059 A 
HETATM   13  C12 UNL     1      26.145   3.374  49.585  1.00  0.00     0.004 A 
HETATM   14  C13 UNL     1      26.323   4.790  49.326  1.00  0.00    -0.003 A 
HETATM   15  C14 UNL     1      25.379   5.382  50.029  1.00  0.00    -0.022 A 
HETATM   16  C15 UNL     1      24.547   4.403  50.774  1.00  0.00     0.063 A 
ENDBRANCH  11  12
ENDBRANCH   1  11
BRANCH   1  17
HETATM   17  C16 UNL     1      22.534   1.922  52.143  1.00  0.00     0.172 A 
HETATM   18  N2  UNL     1      21.713   2.687  52.143  1.00  0.00    -0.200 NA
HETATM   19  C17 UNL     1      20.414   2.525  52.286  1.00  0.00     0.171 A 
HETATM   20  C18 UNL     1      19.992   1.237  52.461  1.00  0.00     0.111 A 
HETATM   21  S1  UNL     1      21.584   0.272  52.408  1.00  0.00    -0.060 SA
BRANCH  19  22
HETATM   22  O1  UNL     1      19.531   3.622  52.256  1.00  0.00    -0.344 OA
HETATM   23  H17 UNL     1      19.728   4.425  52.863  1.00  0.00     0.219 HD
ENDBRANCH  19  22
ENDBRANCH   1  17
TORSDOF 5
ENDMDL
MODEL 9
REMARK VINA RESULT:      -7.5      2.034      5.011
REMARK  5 active torsions:
REMARK  status: ('A' for Active; 'I' for Inactive)
REMARK    1  A    between atoms: C9_9  and  N1_10 
REMARK    2  A    between atoms: N1_10  and  C10_11 
REMARK    3  A    between atoms: N1_10  and  C16_17 
REMARK    4  A    between atoms: C10_11  and  C11_12 
REMARK    5  A    between atoms: C17_19  and  O1_20 
ROOT
HETATM    1  N1  UNL     1      24.223   3.699  51.582  1.00  0.00    -0.347 N 
ENDROOT
BRANCH   1   2
HETATM    2  C9  UNL     1      22.824   3.755  51.204  1.00  0.00     0.124 A 
HETATM    3  C5  UNL     1      22.140   2.469  51.103  1.00  0.00    -0.029 A 
HETATM    4  C4  UNL     1      22.004   1.222  50.511  1.00  0.00     0.010 A 
HETATM    5  C6  UNL     1      21.276   2.791  52.099  1.00  0.00    -0.047 A 
HETATM    6  C3  UNL     1      21.019   0.333  50.924  1.00  0.00     0.007 A 
HETATM    7  C2  UNL     1      20.136   0.651  51.934  1.00  0.00    -0.061 A 
HETATM    8  C1  UNL     1      19.069  -0.267  52.407  1.00  0.00     0.048 C 
HETATM    9  C7  UNL     1      20.294   1.902  52.506  1.00  0.00     0.014 A 
HETATM   10  C8  UNL     1      21.879   4.094  52.286  1.00  0.00     0.069 A 
ENDBRANCH   1   2
BRANCH   1  11
HETATM   11  C10 UNL     1      24.560   3.136  52.861  1.00  0.00     0.160 C 
BRANCH  11  12
HETATM   12  C11 UNL     1      25.048   1.746  52.795  1.00  0.00    -0.059 A 
HETATM   13  C12 UNL     1      24.404   0.728  53.312  1.00  0.00     0.004 A 
HETATM   14  C13 UNL     1      25.080  -0.542  53.121  1.00  0.00    -0.003 A 
HETATM   15  C14 UNL     1      26.176  -0.243  52.456  1.00  0.00    -0.022 A 
HETATM   16  C15 UNL     1      26.278   1.213  52.180  1.00  0.00     0.063 A 
ENDBRANCH  11  12
ENDBRANCH   1  11
BRANCH   1  17
HETATM   17  C16 UNL     1      25.194   4.247  50.582  1.00  0.00     0.172 A 
HETATM   18  N2  UNL     1      26.148   4.064  50.021  1.00  0.00    -0.200 NA
HETATM   19  C17 UNL     1      26.766   4.827  49.144  1.00  0.00     0.171 A 
HETATM   20  C18 UNL     1      26.164   6.022  48.868  1.00  0.00     0.111 A 
HETATM   21  S1  UNL     1      24.650   5.980  49.953  1.00  0.00    -0.060 SA
BRANCH  19  22
HETATM   22  O1  UNL     1      27.970   4.419  48.538  1.00  0.00    -0.344 OA
HETATM   23  H17 UNL     1      28.484   3.633  48.950  1.00  0.00     0.219 HD
ENDBRANCH  19  22
ENDBRANCH   1  17
TORSDOF 5
ENDMDL
