MODEL 1
REMARK VINA RESULT:      -7.7      0.000      0.000
REMARK  7 active torsions:
REMARK  status: ('A' for Active; 'I' for Inactive)
REMARK    1  A    between atoms: C1_2  and  C2_3 
REMARK    2  A    between atoms: C1_2  and  C8_11 
REMARK    3  A    between atoms: C2_3  and  C3_4 
REMARK    4  A    between atoms: C3_4  and  N1_5 
REMARK    5  A    between atoms: C11_14  and  O3_15 
REMARK    6  A    between atoms: O3_15  and  C12_16 
REMARK    7  A    between atoms: C12_16  and  C13_17 
ROOT
HETATM    1  C8  UNL     1      22.743   0.015  53.442  1.00  0.00     0.010 A 
HETATM    2  C9  UNL     1      21.730   0.615  52.726  1.00  0.00     0.018 A 
HETATM    3  C10 UNL     1      20.420   0.156  52.909  1.00  0.00     0.037 A 
HETATM    4  C11 UNL     1      20.107  -0.891  53.793  1.00  0.00     0.069 A 
HETATM    5  C19 UNL     1      21.185  -1.423  54.459  1.00  0.00     0.037 A 
HETATM    6  C20 UNL     1      22.482  -1.021  54.324  1.00  0.00     0.018 A 
ENDROOT
BRANCH   1   7
HETATM    7  C1  UNL     1      24.155   0.373  53.379  1.00  0.00     0.161 C 
HETATM    8  O1  UNL     1      24.637   1.517  53.152  1.00  0.00    -0.292 OA
BRANCH   7   9
HETATM    9  C2  UNL     1      25.339  -0.529  53.567  1.00  0.00     0.114 C 
BRANCH   9  10
HETATM   10  C3  UNL     1      26.356   0.232  54.367  1.00  0.00     0.280 C 
BRANCH  10  11
HETATM   11  N1  UNL     1      27.685   0.053  53.892  1.00  0.00     0.092 N 
HETATM   12  C4  UNL     1      28.736   0.294  54.844  1.00  0.00     0.298 C 
HETATM   13  C5  UNL     1      29.300   1.696  54.747  1.00  0.00     0.198 C 
HETATM   14  O2  UNL     1      28.421   2.612  54.191  1.00  0.00    -0.388 OA
HETATM   15  C6  UNL     1      28.033   2.276  52.903  1.00  0.00     0.198 C 
HETATM   16  C7  UNL     1      28.009   0.779  52.685  1.00  0.00     0.298 C 
ENDBRANCH  10  11
ENDBRANCH   9  10
ENDBRANCH   7   9
ENDBRANCH   1   7
BRANCH   4  17
HETATM   17  O3  UNL     1      18.775  -1.082  53.734  1.00  0.00    -0.347 OA
BRANCH  17  18
HETATM   18  C12 UNL     1      17.867  -1.071  52.699  1.00  0.00     0.214 C 
BRANCH  18  19
HETATM   19  C13 UNL     1      16.925  -2.184  52.789  1.00  0.00    -0.034 A 
HETATM   20  C14 UNL     1      17.436  -3.228  53.576  1.00  0.00     0.009 A 
HETATM   21  C15 UNL     1      16.704  -4.392  53.775  1.00  0.00     0.001 A 
HETATM   22  C16 UNL     1      15.459  -4.580  53.222  1.00  0.00     0.000 A 
HETATM   23  C17 UNL     1      14.944  -3.552  52.443  1.00  0.00     0.001 A 
HETATM   24  C18 UNL     1      15.690  -2.416  52.263  1.00  0.00     0.009 A 
ENDBRANCH  18  19
ENDBRANCH  17  18
ENDBRANCH   4  17
TORSDOF 7
ENDMDL
MODEL 2
REMARK VINA RESULT:      -7.5      5.950      9.074
REMARK  7 active torsions:
REMARK  status: ('A' for Active; 'I' for Inactive)
REMARK    1  A    between atoms: C1_2  and  C2_3 
REMARK    2  A    between atoms: C1_2  and  C8_11 
REMARK    3  A    between atoms: C2_3  and  C3_4 
REMARK    4  A    between atoms: C3_4  and  N1_5 
REMARK    5  A    between atoms: C11_14  and  O3_15 
REMARK    6  A    between atoms: O3_15  and  C12_16 
REMARK    7  A    between atoms: C12_16  and  C13_17 
ROOT
HETATM    1  C8  UNL     1      26.725   6.042  48.594  1.00  0.00     0.010 A 
HETATM    2  C9  UNL     1      25.387   6.087  48.921  1.00  0.00     0.018 A 
HETATM    3  C10 UNL     1      24.788   4.932  49.439  1.00  0.00     0.037 A 
HETATM    4  C11 UNL     1      25.501   3.737  49.633  1.00  0.00     0.069 A 
HETATM    5  C19 UNL     1      26.827   3.794  49.276  1.00  0.00     0.037 A 
HETATM    6  C20 UNL     1      27.468   4.886  48.767  1.00  0.00     0.018 A 
ENDROOT
BRANCH   1   7
HETATM    7  C1  UNL     1      27.504   7.150  48.055  1.00  0.00     0.161 C 
HETATM    8  O1  UNL     1      27.188   8.372  48.059  1.00  0.00    -0.292 OA
BRANCH   7   9
HETATM    9  C2  UNL     1      28.843   7.086  47.379  1.00  0.00     0.114 C 
BRANCH   9  10
HETATM   10  C3  UNL     1      29.844   7.697  48.316  1.00  0.00     0.280 C 
BRANCH  10  11
HETATM   11  N1  UNL     1      31.191   7.439  47.937  1.00  0.00     0.092 N 
HETATM   12  C4  UNL     1      31.403   6.298  47.087  1.00  0.00     0.298 C 
HETATM   13  C5  UNL     1      31.789   5.057  47.864  1.00  0.00     0.198 C 
HETATM   14  O2  UNL     1      31.372   5.075  49.185  1.00  0.00    -0.388 OA
HETATM   15  C6  UNL     1      31.893   6.141  49.903  1.00  0.00     0.198 C 
HETATM   16  C7  UNL     1      32.132   7.355  49.031  1.00  0.00     0.298 C 
ENDBRANCH  10  11
ENDBRANCH   9  10
ENDBRANCH   7   9
ENDBRANCH   1   7
BRANCH   4  17
HETATM   17  O3  UNL     1      24.640   2.833  50.140  1.00  0.00    -0.347 OA
BRANCH  17  18
HETATM   18  C12 UNL     1      24.279   2.492  51.424  1.00  0.00     0.214 C 
BRANCH  18  19
HETATM   19  C13 UNL     1      25.039   1.346  51.918  1.00  0.00    -0.034 A 
HETATM   20  C14 UNL     1      24.276   0.564  52.798  1.00  0.00     0.009 A 
HETATM   21  C15 UNL     1      24.818  -0.567  53.397  1.00  0.00     0.001 A 
HETATM   22  C16 UNL     1      26.110  -0.973  53.161  1.00  0.00     0.000 A 
HETATM   23  C17 UNL     1      26.873  -0.205  52.290  1.00  0.00     0.001 A 
HETATM   24  C18 UNL     1      26.312   0.905  51.716  1.00  0.00     0.009 A 
ENDBRANCH  18  19
ENDBRANCH  17  18
ENDBRANCH   4  17
TORSDOF 7
ENDMDL
MODEL 3
REMARK VINA RESULT:      -7.2      5.950      8.980
REMARK  7 active torsions:
REMARK  status: ('A' for Active; 'I' for Inactive)
REMARK    1  A    between atoms: C1_2  and  C2_3 
REMARK    2  A    between atoms: C1_2  and  C8_11 
REMARK    3  A    between atoms: C2_3  and  C3_4 
REMARK    4  A    between atoms: C3_4  and  N1_5 
REMARK    5  A    between atoms: C11_14  and  O3_15 
REMARK    6  A    between atoms: O3_15  and  C12_16 
REMARK    7  A    between atoms: C12_16  and  C13_17 
ROOT
HETATM    1  C8  UNL     1      25.691   3.602  50.102  1.00  0.00     0.010 A 
HETATM    2  C9  UNL     1      24.388   3.231  50.360  1.00  0.00     0.018 A 
HETATM    3  C10 UNL     1      24.160   2.172  51.248  1.00  0.00     0.037 A 
HETATM    4  C11 UNL     1      25.209   1.481  51.879  1.00  0.00     0.069 A 
HETATM    5  C19 UNL     1      26.468   1.925  51.556  1.00  0.00     0.037 A 
HETATM    6  C20 UNL     1      26.755   2.949  50.700  1.00  0.00     0.018 A 
ENDROOT
BRANCH   1   7
HETATM    7  C1  UNL     1      26.104   4.682  49.215  1.00  0.00     0.161 C 
HETATM    8  O1  UNL     1      27.209   4.790  48.616  1.00  0.00    -0.292 OA
BRANCH   7   9
HETATM    9  C2  UNL     1      25.315   5.897  48.820  1.00  0.00     0.114 C 
BRANCH   9  10
HETATM   10  C3  UNL     1      25.882   7.061  49.577  1.00  0.00     0.280 C 
BRANCH  10  11
HETATM   11  N1  UNL     1      25.950   8.251  48.799  1.00  0.00     0.092 N 
HETATM   12  C4  UNL     1      26.800   8.204  47.640  1.00  0.00     0.298 C 
HETATM   13  C5  UNL     1      28.183   8.760  47.909  1.00  0.00     0.198 C 
HETATM   14  O2  UNL     1      28.551   8.714  49.244  1.00  0.00    -0.388 OA
HETATM   15  C6  UNL     1      27.695   9.431  50.066  1.00  0.00     0.198 C 
HETATM   16  C7  UNL     1      26.277   9.450  49.537  1.00  0.00     0.298 C 
ENDBRANCH  10  11
ENDBRANCH   9  10
ENDBRANCH   7   9
ENDBRANCH   1   7
BRANCH   4  17
HETATM   17  O3  UNL     1      24.653   0.534  52.660  1.00  0.00    -0.347 OA
BRANCH  17  18
HETATM   18  C12 UNL     1      25.131  -0.634  53.211  1.00  0.00     0.214 C 
BRANCH  18  19
HETATM   19  C13 UNL     1      26.518  -0.501  53.651  1.00  0.00    -0.034 A 
HETATM   20  C14 UNL     1      27.378  -1.310  52.892  1.00  0.00     0.009 A 
HETATM   21  C15 UNL     1      28.741  -1.345  53.159  1.00  0.00     0.001 A 
HETATM   22  C16 UNL     1      29.310  -0.601  54.165  1.00  0.00     0.000 A 
HETATM   23  C17 UNL     1      28.467   0.203  54.922  1.00  0.00     0.001 A 
HETATM   24  C18 UNL     1      27.127   0.217  54.635  1.00  0.00     0.009 A 
ENDBRANCH  18  19
ENDBRANCH  17  18
ENDBRANCH   4  17
TORSDOF 7
ENDMDL
MODEL 4
REMARK VINA RESULT:      -7.2      5.121      7.588
REMARK  7 active torsions:
REMARK  status: ('A' for Active; 'I' for Inactive)
REMARK    1  A    between atoms: C1_2  and  C2_3 
REMARK    2  A    between atoms: C1_2  and  C8_11 
REMARK    3  A    between atoms: C2_3  and  C3_4 
REMARK    4  A    between atoms: C3_4  and  N1_5 
REMARK    5  A    between atoms: C11_14  and  O3_15 
REMARK    6  A    between atoms: O3_15  and  C12_16 
REMARK    7  A    between atoms: C12_16  and  C13_17 
ROOT
HETATM    1  C8  UNL     1      26.285   4.595  49.342  1.00  0.00     0.010 A 
HETATM    2  C9  UNL     1      26.721   3.481  50.026  1.00  0.00     0.018 A 
HETATM    3  C10 UNL     1      25.773   2.691  50.688  1.00  0.00     0.037 A 
HETATM    4  C11 UNL     1      24.401   2.995  50.676  1.00  0.00     0.069 A 
HETATM    5  C19 UNL     1      24.067   4.124  49.967  1.00  0.00     0.037 A 
HETATM    6  C20 UNL     1      24.943   4.934  49.303  1.00  0.00     0.018 A 
ENDROOT
BRANCH   1   7
HETATM    7  C1  UNL     1      27.132   5.518  48.595  1.00  0.00     0.161 C 
HETATM    8  O1  UNL     1      26.789   6.621  48.089  1.00  0.00    -0.292 OA
BRANCH   7   9
HETATM    9  C2  UNL     1      28.587   5.362  48.264  1.00  0.00     0.114 C 
BRANCH   9  10
HETATM   10  C3  UNL     1      29.183   6.738  48.218  1.00  0.00     0.280 C 
BRANCH  10  11
HETATM   11  N1  UNL     1      30.478   6.765  47.628  1.00  0.00     0.092 N 
HETATM   12  C4  UNL     1      31.223   5.536  47.678  1.00  0.00     0.298 C 
HETATM   13  C5  UNL     1      32.180   5.482  48.851  1.00  0.00     0.198 C 
HETATM   14  O2  UNL     1      31.817   6.309  49.903  1.00  0.00    -0.388 OA
HETATM   15  C6  UNL     1      31.745   7.645  49.542  1.00  0.00     0.198 C 
HETATM   16  C7  UNL     1      31.343   7.825  48.094  1.00  0.00     0.298 C 
ENDBRANCH  10  11
ENDBRANCH   9  10
ENDBRANCH   7   9
ENDBRANCH   1   7
BRANCH   4  17
HETATM   17  O3  UNL     1      23.773   2.046  51.397  1.00  0.00    -0.347 OA
BRANCH  17  18
HETATM   18  C12 UNL     1      24.217   0.945  52.094  1.00  0.00     0.214 C 
BRANCH  18  19
HETATM   19  C13 UNL     1      23.193   0.422  52.996  1.00  0.00    -0.034 A 
HETATM   20  C14 UNL     1      21.978   1.110  52.849  1.00  0.00     0.009 A 
HETATM   21  C15 UNL     1      20.876   0.780  53.628  1.00  0.00     0.001 A 
HETATM   22  C16 UNL     1      20.916  -0.222  54.569  1.00  0.00     0.000 A 
HETATM   23  C17 UNL     1      22.114  -0.909  54.722  1.00  0.00     0.001 A 
HETATM   24  C18 UNL     1      23.184  -0.561  53.939  1.00  0.00     0.009 A 
ENDBRANCH  18  19
ENDBRANCH  17  18
ENDBRANCH   4  17
TORSDOF 7
ENDMDL
MODEL 5
REMARK VINA RESULT:      -7.2      5.988      8.768
REMARK  7 active torsions:
REMARK  status: ('A' for Active; 'I' for Inactive)
REMARK    1  A    between atoms: C1_2  and  C2_3 
REMARK    2  A    between atoms: C1_2  and  C8_11 
REMARK    3  A    between atoms: C2_3  and  C3_4 
REMARK    4  A    between atoms: C3_4  and  N1_5 
REMARK    5  A    between atoms: C11_14  and  O3_15 
REMARK    6  A    between atoms: O3_15  and  C12_16 
REMARK    7  A    between atoms: C12_16  and  C13_17 
ROOT
HETATM    1  C8  UNL     1      27.027   5.011  48.944  1.00  0.00     0.010 A 
HETATM    2  C9  UNL     1      26.871   3.695  49.325  1.00  0.00     0.018 A 
HETATM    3  C10 UNL     1      25.660   3.310  49.914  1.00  0.00     0.037 A 
HETATM    4  C11 UNL     1      24.607   4.215  50.128  1.00  0.00     0.069 A 
HETATM    5  C19 UNL     1      24.860   5.501  49.714  1.00  0.00     0.037 A 
HETATM    6  C20 UNL     1      26.017   5.938  49.136  1.00  0.00     0.018 A 
ENDROOT
BRANCH   1   7
HETATM    7  C1  UNL     1      28.213   5.575  48.312  1.00  0.00     0.161 C 
HETATM    8  O1  UNL     1      29.329   5.009  48.152  1.00  0.00    -0.292 OA
BRANCH   7   9
HETATM    9  C2  UNL     1      28.371   6.944  47.718  1.00  0.00     0.114 C 
BRANCH   9  10
HETATM   10  C3  UNL     1      29.742   7.433  48.083  1.00  0.00     0.280 C 
BRANCH  10  11
HETATM   11  N1  UNL     1      29.735   8.347  49.174  1.00  0.00     0.092 N 
HETATM   12  C4  UNL     1      28.549   9.147  49.324  1.00  0.00     0.298 C 
HETATM   13  C5  UNL     1      28.683  10.512  48.681  1.00  0.00     0.198 C 
HETATM   14  O2  UNL     1      29.628  10.560  47.668  1.00  0.00    -0.388 OA
HETATM   15  C6  UNL     1      30.902  10.225  48.100  1.00  0.00     0.198 C 
HETATM   16  C7  UNL     1      30.876   9.232  49.241  1.00  0.00     0.298 C 
ENDBRANCH  10  11
ENDBRANCH   9  10
ENDBRANCH   7   9
ENDBRANCH   1   7
BRANCH   4  17
HETATM   17  O3  UNL     1      23.600   3.531  50.704  1.00  0.00    -0.347 OA
BRANCH  17  18
HETATM   18  C12 UNL     1      23.106   3.483  51.988  1.00  0.00     0.214 C 
BRANCH  18  19
HETATM   19  C13 UNL     1      23.053   2.115  52.501  1.00  0.00    -0.034 A 
HETATM   20  C14 UNL     1      24.327   1.652  52.864  1.00  0.00     0.009 A 
HETATM   21  C15 UNL     1      24.501   0.365  53.359  1.00  0.00     0.001 A 
HETATM   22  C16 UNL     1      23.450  -0.508  53.518  1.00  0.00     0.000 A 
HETATM   23  C17 UNL     1      22.185  -0.058  53.162  1.00  0.00     0.001 A 
HETATM   24  C18 UNL     1      22.045   1.216  52.675  1.00  0.00     0.009 A 
ENDBRANCH  18  19
ENDBRANCH  17  18
ENDBRANCH   4  17
TORSDOF 7
ENDMDL
MODEL 6
REMARK VINA RESULT:      -7.1      6.153      9.338
REMARK  7 active torsions:
REMARK  status: ('A' for Active; 'I' for Inactive)
REMARK    1  A    between atoms: C1_2  and  C2_3 
REMARK    2  A    between atoms: C1_2  and  C8_11 
REMARK    3  A    between atoms: C2_3  and  C3_4 
REMARK    4  A    between atoms: C3_4  and  N1_5 
REMARK    5  A    between atoms: C11_14  and  O3_15 
REMARK    6  A    between atoms: O3_15  and  C12_16 
REMARK    7  A    between atoms: C12_16  and  C13_17 
ROOT
HETATM    1  C8  UNL     1      26.162   5.218  49.344  1.00  0.00     0.010 A 
HETATM    2  C9  UNL     1      25.032   5.398  50.113  1.00  0.00     0.018 A 
HETATM    3  C10 UNL     1      24.582   4.327  50.895  1.00  0.00     0.037 A 
HETATM    4  C11 UNL     1      25.239   3.085  50.921  1.00  0.00     0.069 A 
HETATM    5  C19 UNL     1      26.353   3.007  50.121  1.00  0.00     0.037 A 
HETATM    6  C20 UNL     1      26.842   4.012  49.337  1.00  0.00     0.018 A 
ENDROOT
BRANCH   1   7
HETATM    7  C1  UNL     1      26.770   6.225  48.482  1.00  0.00     0.161 C 
HETATM    8  O1  UNL     1      26.174   7.133  47.840  1.00  0.00    -0.292 OA
BRANCH   7   9
HETATM    9  C2  UNL     1      28.227   6.405  48.169  1.00  0.00     0.114 C 
BRANCH   9  10
HETATM   10  C3  UNL     1      28.589   7.815  48.534  1.00  0.00     0.280 C 
BRANCH  10  11
HETATM   11  N1  UNL     1      29.611   8.359  47.706  1.00  0.00     0.092 N 
HETATM   12  C4  UNL     1      30.795   7.557  47.550  1.00  0.00     0.298 C 
HETATM   13  C5  UNL     1      31.897   7.953  48.511  1.00  0.00     0.198 C 
HETATM   14  O2  UNL     1      31.437   8.591  49.652  1.00  0.00    -0.388 OA
HETATM   15  C6  UNL     1      30.744   9.760  49.377  1.00  0.00     0.198 C 
HETATM   16  C7  UNL     1      30.028   9.700  48.046  1.00  0.00     0.298 C 
ENDBRANCH  10  11
ENDBRANCH   9  10
ENDBRANCH   7   9
ENDBRANCH   1   7
BRANCH   4  17
HETATM   17  O3  UNL     1      24.557   2.287  51.765  1.00  0.00    -0.347 OA
BRANCH  17  18
HETATM   18  C12 UNL     1      24.646   0.949  52.077  1.00  0.00     0.214 C 
BRANCH  18  19
HETATM   19  C13 UNL     1      25.870   0.643  52.815  1.00  0.00    -0.034 A 
HETATM   20  C14 UNL     1      26.527  -0.476  52.279  1.00  0.00     0.009 A 
HETATM   21  C15 UNL     1      27.704  -0.948  52.846  1.00  0.00     0.001 A 
HETATM   22  C16 UNL     1      28.279  -0.353  53.944  1.00  0.00     0.000 A 
HETATM   23  C17 UNL     1      27.636   0.755  54.482  1.00  0.00     0.001 A 
HETATM   24  C18 UNL     1      26.476   1.197  53.901  1.00  0.00     0.009 A 
ENDBRANCH  18  19
ENDBRANCH  17  18
ENDBRANCH   4  17
TORSDOF 7
ENDMDL
MODEL 7
REMARK VINA RESULT:      -7.0      5.769      8.237
REMARK  7 active torsions:
REMARK  status: ('A' for Active; 'I' for Inactive)
REMARK    1  A    between atoms: C1_2  and  C2_3 
REMARK    2  A    between atoms: C1_2  and  C8_11 
REMARK    3  A    between atoms: C2_3  and  C3_4 
REMARK    4  A    between atoms: C3_4  and  N1_5 
REMARK    5  A    between atoms: C11_14  and  O3_15 
REMARK    6  A    between atoms: O3_15  and  C12_16 
REMARK    7  A    between atoms: C12_16  and  C13_17 
ROOT
HETATM    1  C8  UNL     1      25.981   4.961  49.406  1.00  0.00     0.010 A 
HETATM    2  C9  UNL     1      24.784   4.996  50.089  1.00  0.00     0.018 A 
HETATM    3  C10 UNL     1      24.391   3.859  50.806  1.00  0.00     0.037 A 
HETATM    4  C11 UNL     1      25.173   2.692  50.851  1.00  0.00     0.069 A 
HETATM    5  C19 UNL     1      26.346   2.757  50.140  1.00  0.00     0.037 A 
HETATM    6  C20 UNL     1      26.783   3.833  49.422  1.00  0.00     0.018 A 
ENDROOT
BRANCH   1   7
HETATM    7  C1  UNL     1      26.541   6.054  48.621  1.00  0.00     0.161 C 
HETATM    8  O1  UNL     1      25.912   7.019  48.108  1.00  0.00    -0.292 OA
BRANCH   7   9
HETATM    9  C2  UNL     1      27.979   6.272  48.250  1.00  0.00     0.114 C 
BRANCH   9  10
HETATM   10  C3  UNL     1      28.167   7.747  48.045  1.00  0.00     0.280 C 
BRANCH  10  11
HETATM   11  N1  UNL     1      28.900   8.366  49.095  1.00  0.00     0.092 N 
HETATM   12  C4  UNL     1      28.470   9.685  49.477  1.00  0.00     0.298 C 
HETATM   13  C5  UNL     1      29.268  10.777  48.795  1.00  0.00     0.198 C 
HETATM   14  O2  UNL     1      29.855  10.377  47.605  1.00  0.00    -0.388 OA
HETATM   15  C6  UNL     1      30.735   9.318  47.765  1.00  0.00     0.198 C 
HETATM   16  C7  UNL     1      30.332   8.407  48.904  1.00  0.00     0.298 C 
ENDBRANCH  10  11
ENDBRANCH   9  10
ENDBRANCH   7   9
ENDBRANCH   1   7
BRANCH   4  17
HETATM   17  O3  UNL     1      24.517   1.800  51.619  1.00  0.00    -0.347 OA
BRANCH  17  18
HETATM   18  C12 UNL     1      24.923   0.916  52.593  1.00  0.00     0.214 C 
BRANCH  18  19
HETATM   19  C13 UNL     1      23.790   0.330  53.304  1.00  0.00    -0.034 A 
HETATM   20  C14 UNL     1      22.592   0.997  53.002  1.00  0.00     0.009 A 
HETATM   21  C15 UNL     1      21.394   0.608  53.589  1.00  0.00     0.001 A 
HETATM   22  C16 UNL     1      21.319  -0.435  54.481  1.00  0.00     0.000 A 
HETATM   23  C17 UNL     1      22.499  -1.102  54.786  1.00  0.00     0.001 A 
HETATM   24  C18 UNL     1      23.666  -0.695  54.193  1.00  0.00     0.009 A 
ENDBRANCH  18  19
ENDBRANCH  17  18
ENDBRANCH   4  17
TORSDOF 7
ENDMDL
MODEL 8
REMARK VINA RESULT:      -7.0      4.001      9.672
REMARK  7 active torsions:
REMARK  status: ('A' for Active; 'I' for Inactive)
REMARK    1  A    between atoms: C1_2  and  C2_3 
REMARK    2  A    between atoms: C1_2  and  C8_11 
REMARK    3  A    between atoms: C2_3  and  C3_4 
REMARK    4  A    between atoms: C3_4  and  N1_5 
REMARK    5  A    between atoms: C11_14  and  O3_15 
REMARK    6  A    between atoms: O3_15  and  C12_16 
REMARK    7  A    between atoms: C12_16  and  C13_17 
ROOT
HETATM    1  C8  UNL     1      21.295   1.542  52.355  1.00  0.00     0.010 A 
HETATM    2  C9  UNL     1      22.467   2.267  52.335  1.00  0.00     0.018 A 
HETATM    3  C10 UNL     1      23.656   1.622  52.700  1.00  0.00     0.037 A 
HETATM    4  C11 UNL     1      23.691   0.270  53.082  1.00  0.00     0.069 A 
HETATM    5  C19 UNL     1      22.472  -0.364  53.070  1.00  0.00     0.037 A 
HETATM    6  C20 UNL     1      21.281   0.208  52.726  1.00  0.00     0.018 A 
ENDROOT
BRANCH   1   7
HETATM    7  C1  UNL     1      19.977   2.053  51.999  1.00  0.00     0.161 C 
HETATM    8  O1  UNL     1      19.394   3.058  52.492  1.00  0.00    -0.292 OA
BRANCH   7   9
HETATM    9  C2  UNL     1      19.026   1.501  50.977  1.00  0.00     0.114 C 
BRANCH   9  10
HETATM   10  C3  UNL     1      17.690   1.355  51.645  1.00  0.00     0.280 C 
BRANCH  10  11
HETATM   11  N1  UNL     1      16.617   1.869  50.864  1.00  0.00     0.092 N 
HETATM   12  C4  UNL     1      16.841   3.146  50.242  1.00  0.00     0.298 C 
HETATM   13  C5  UNL     1      16.288   4.296  51.058  1.00  0.00     0.198 C 
HETATM   14  O2  UNL     1      16.163   4.010  52.408  1.00  0.00    -0.388 OA
HETATM   15  C6  UNL     1      15.321   2.937  52.659  1.00  0.00     0.198 C 
HETATM   16  C7  UNL     1      15.339   1.923  51.536  1.00  0.00     0.298 C 
ENDBRANCH  10  11
ENDBRANCH   9  10
ENDBRANCH   7   9
ENDBRANCH   1   7
BRANCH   4  17
HETATM   17  O3  UNL     1      24.973  -0.034  53.364  1.00  0.00    -0.347 OA
BRANCH  17  18
HETATM   18  C12 UNL     1      26.163   0.635  53.180  1.00  0.00     0.214 C 
BRANCH  18  19
HETATM   19  C13 UNL     1      27.309  -0.271  53.219  1.00  0.00    -0.034 A 
HETATM   20  C14 UNL     1      26.958  -1.562  52.793  1.00  0.00     0.009 A 
HETATM   21  C15 UNL     1      27.900  -2.583  52.771  1.00  0.00     0.001 A 
HETATM   22  C16 UNL     1      29.205  -2.386  53.158  1.00  0.00     0.000 A 
HETATM   23  C17 UNL     1      29.561  -1.111  53.581  1.00  0.00     0.001 A 
HETATM   24  C18 UNL     1      28.610  -0.125  53.593  1.00  0.00     0.009 A 
ENDBRANCH  18  19
ENDBRANCH  17  18
ENDBRANCH   4  17
TORSDOF 7
ENDMDL
MODEL 9
REMARK VINA RESULT:      -7.0      7.055     10.210
REMARK  7 active torsions:
REMARK  status: ('A' for Active; 'I' for Inactive)
REMARK    1  A    between atoms: C1_2  and  C2_3 
REMARK    2  A    between atoms: C1_2  and  C8_11 
REMARK    3  A    between atoms: C2_3  and  C3_4 
REMARK    4  A    between atoms: C3_4  and  N1_5 
REMARK    5  A    between atoms: C11_14  and  O3_15 
REMARK    6  A    between atoms: O3_15  and  C12_16 
REMARK    7  A    between atoms: C12_16  and  C13_17 
ROOT
HETATM    1  C8  UNL     1      27.168   6.187  48.568  1.00  0.00     0.010 A 
HETATM    2  C9  UNL     1      27.677   4.907  48.626  1.00  0.00     0.018 A 
HETATM    3  C10 UNL     1      26.954   3.932  49.324  1.00  0.00     0.037 A 
HETATM    4  C11 UNL     1      25.735   4.214  49.964  1.00  0.00     0.069 A 
HETATM    5  C19 UNL     1      25.313   5.517  49.849  1.00  0.00     0.037 A 
HETATM    6  C20 UNL     1      25.970   6.511  49.183  1.00  0.00     0.018 A 
ENDROOT
BRANCH   1   7
HETATM    7  C1  UNL     1      27.783   7.314  47.879  1.00  0.00     0.161 C 
HETATM    8  O1  UNL     1      28.806   7.285  47.140  1.00  0.00    -0.292 OA
BRANCH   7   9
HETATM    9  C2  UNL     1      27.343   8.749  47.895  1.00  0.00     0.114 C 
BRANCH   9  10
HETATM   10  C3  UNL     1      28.410   9.534  48.600  1.00  0.00     0.280 C 
BRANCH  10  11
HETATM   11  N1  UNL     1      28.977  10.557  47.789  1.00  0.00     0.092 N 
HETATM   12  C4  UNL     1      30.011  11.350  48.399  1.00  0.00     0.298 C 
HETATM   13  C5  UNL     1      29.483  12.642  48.988  1.00  0.00     0.198 C 
HETATM   14  O2  UNL     1      28.135  12.598  49.306  1.00  0.00    -0.388 OA
HETATM   15  C6  UNL     1      27.328  12.330  48.211  1.00  0.00     0.198 C 
HETATM   16  C7  UNL     1      28.025  11.462  47.186  1.00  0.00     0.298 C 
ENDBRANCH  10  11
ENDBRANCH   9  10
ENDBRANCH   7   9
ENDBRANCH   1   7
BRANCH   4  17
HETATM   17  O3  UNL     1      25.307   3.071  50.534  1.00  0.00    -0.347 OA
BRANCH  17  18
HETATM   18  C12 UNL     1      24.574   2.801  51.667  1.00  0.00     0.214 C 
BRANCH  18  19
HETATM   19  C13 UNL     1      24.925   1.506  52.247  1.00  0.00    -0.034 A 
HETATM   20  C14 UNL     1      26.149   1.034  51.748  1.00  0.00     0.009 A 
HETATM   21  C15 UNL     1      26.658  -0.192  52.158  1.00  0.00     0.001 A 
HETATM   22  C16 UNL     1      26.001  -0.994  53.061  1.00  0.00     0.000 A 
HETATM   23  C17 UNL     1      24.790  -0.535  53.562  1.00  0.00     0.001 A 
HETATM   24  C18 UNL     1      24.312   0.678  53.138  1.00  0.00     0.009 A 
ENDBRANCH  18  19
ENDBRANCH  17  18
ENDBRANCH   4  17
TORSDOF 7
ENDMDL
