MODEL 1
REMARK VINA RESULT:      -8.3      0.000      0.000
REMARK  6 active torsions:
REMARK  status: ('A' for Active; 'I' for Inactive)
REMARK    1  A    between atoms: O1_2  and  C2_3 
REMARK    2  A    between atoms: C7_10  and  C8_11 
REMARK    3  A    between atoms: C8_11  and  C9_12 
REMARK    4  A    between atoms: C9_12  and  N3_13 
REMARK    5  A    between atoms: N3_13  and  C10_14 
REMARK    6  A    between atoms: C18_24  and  O2_25 
ROOT
HETATM    1  C2  UNL     1      26.739   0.562  53.985  1.00  0.00     0.098 A 
HETATM    2  C3  UNL     1      25.695  -0.166  53.631  1.00  0.00     0.027 A 
HETATM    3  C4  UNL     1      24.371   0.208  53.089  1.00  0.00     0.086 A 
HETATM    4  C5  UNL     1      23.235  -0.464  53.739  1.00  0.00     0.104 C 
HETATM    5  N1  UNL     1      22.011  -0.175  53.424  1.00  0.00    -0.257 NA
HETATM    6  C6  UNL     1      21.480   0.765  52.467  1.00  0.00     0.232 C 
HETATM    7  N2  UNL     1      22.057   1.893  52.130  1.00  0.00    -0.246 NA
HETATM    8  C7  UNL     1      23.300   2.489  52.575  1.00  0.00     0.044 C 
HETATM    9  C16 UNL     1      24.276   1.662  52.984  1.00  0.00    -0.018 A 
HETATM   10  C17 UNL     1      25.407   2.501  53.351  1.00  0.00     0.049 A 
HETATM   11  C18 UNL     1      26.553   2.023  53.817  1.00  0.00     0.099 A 
ENDROOT
BRANCH   8  12
HETATM   12  C8  UNL     1      23.385   3.947  52.570  1.00  0.00     0.079 C 
BRANCH  12  13
HETATM   13  C9  UNL     1      22.884   4.613  51.303  1.00  0.00     0.126 C 
BRANCH  13  14
HETATM   14  N3  UNL     1      23.342   3.893  50.125  1.00  0.00    -0.390 N 
HETATM   15  H12 UNL     1      22.837   3.147  49.589  1.00  0.00     0.159 HD
BRANCH  14  16
HETATM   16  C10 UNL     1      24.628   4.262  49.668  1.00  0.00     0.029 A 
HETATM   17  C11 UNL     1      25.689   3.357  49.714  1.00  0.00     0.032 A 
HETATM   18  C12 UNL     1      26.947   3.753  49.255  1.00  0.00     0.046 A 
HETATM   19  C13 UNL     1      27.149   5.019  48.762  1.00  0.00     0.138 A 
HETATM   20  F1  UNL     1      28.368   5.452  48.301  1.00  0.00    -0.204 F 
HETATM   21  C14 UNL     1      26.133   5.949  48.697  1.00  0.00     0.074 A 
HETATM   22 CL1  UNL     1      26.321   7.577  48.083  1.00  0.00    -0.081 Cl
HETATM   23  C15 UNL     1      24.908   5.509  49.163  1.00  0.00     0.056 A 
ENDBRANCH  14  16
ENDBRANCH  13  14
ENDBRANCH  12  13
ENDBRANCH   8  12
BRANCH  11  24
HETATM   24  O2  UNL     1      27.662   2.786  54.187  1.00  0.00    -0.358 OA
HETATM   25  H17 UNL     1      27.538   3.711  54.576  1.00  0.00     0.217 HD
ENDBRANCH  11  24
BRANCH   1  26
HETATM   26  O1  UNL     1      27.923   0.026  54.480  1.00  0.00    -0.353 OA
HETATM   27  C1  UNL     1      28.900  -0.575  53.659  1.00  0.00     0.210 C 
ENDBRANCH   1  26
TORSDOF 6
ENDMDL
MODEL 2
REMARK VINA RESULT:      -7.8      1.201      1.567
REMARK  6 active torsions:
REMARK  status: ('A' for Active; 'I' for Inactive)
REMARK    1  A    between atoms: O1_2  and  C2_3 
REMARK    2  A    between atoms: C7_10  and  C8_11 
REMARK    3  A    between atoms: C8_11  and  C9_12 
REMARK    4  A    between atoms: C9_12  and  N3_13 
REMARK    5  A    between atoms: N3_13  and  C10_14 
REMARK    6  A    between atoms: C18_24  and  O2_25 
ROOT
HETATM    1  C2  UNL     1      27.432   0.186  54.074  1.00  0.00     0.098 A 
HETATM    2  C3  UNL     1      26.378  -0.539  53.743  1.00  0.00     0.027 A 
HETATM    3  C4  UNL     1      25.047  -0.162  53.221  1.00  0.00     0.086 A 
HETATM    4  C5  UNL     1      23.919  -0.824  53.895  1.00  0.00     0.104 C 
HETATM    5  N1  UNL     1      22.692  -0.531  53.598  1.00  0.00    -0.257 NA
HETATM    6  C6  UNL     1      22.149   0.406  52.645  1.00  0.00     0.232 C 
HETATM    7  N2  UNL     1      22.726   1.528  52.290  1.00  0.00    -0.246 NA
HETATM    8  C7  UNL     1      23.979   2.121  52.711  1.00  0.00     0.044 C 
HETATM    9  C16 UNL     1      24.958   1.291  53.108  1.00  0.00    -0.018 A 
HETATM   10  C17 UNL     1      26.099   2.127  53.451  1.00  0.00     0.049 A 
HETATM   11  C18 UNL     1      27.250   1.646  53.901  1.00  0.00     0.099 A 
ENDROOT
BRANCH   8  12
HETATM   12  C8  UNL     1      24.072   3.579  52.695  1.00  0.00     0.079 C 
BRANCH  12  13
HETATM   13  C9  UNL     1      23.765   4.224  51.358  1.00  0.00     0.126 C 
BRANCH  13  14
HETATM   14  N3  UNL     1      24.654   3.719  50.324  1.00  0.00    -0.390 N 
HETATM   15  H12 UNL     1      24.833   2.720  50.060  1.00  0.00     0.159 HD
BRANCH  14  16
HETATM   16  C10 UNL     1      25.350   4.716  49.601  1.00  0.00     0.029 A 
HETATM   17  C11 UNL     1      24.709   5.893  49.212  1.00  0.00     0.032 A 
HETATM   18  C12 UNL     1      25.425   6.858  48.499  1.00  0.00     0.046 A 
HETATM   19  C13 UNL     1      26.745   6.660  48.179  1.00  0.00     0.138 A 
HETATM   20  F1  UNL     1      27.487   7.580  47.479  1.00  0.00    -0.204 F 
HETATM   21  C14 UNL     1      27.422   5.514  48.541  1.00  0.00     0.074 A 
HETATM   22 CL1  UNL     1      29.101   5.197  48.166  1.00  0.00    -0.081 Cl
HETATM   23  C15 UNL     1      26.671   4.591  49.244  1.00  0.00     0.056 A 
ENDBRANCH  14  16
ENDBRANCH  13  14
ENDBRANCH  12  13
ENDBRANCH   8  12
BRANCH  11  24
HETATM   24  O2  UNL     1      28.370   2.406  54.247  1.00  0.00    -0.358 OA
HETATM   25  H17 UNL     1      28.578   2.594  55.219  1.00  0.00     0.217 HD
ENDBRANCH  11  24
BRANCH   1  26
HETATM   26  O1  UNL     1      28.621  -0.354  54.553  1.00  0.00    -0.353 OA
HETATM   27  C1  UNL     1      29.631  -0.862  53.710  1.00  0.00     0.210 C 
ENDBRANCH   1  26
TORSDOF 6
ENDMDL
MODEL 3
REMARK VINA RESULT:      -7.7      4.290      7.332
REMARK  6 active torsions:
REMARK  status: ('A' for Active; 'I' for Inactive)
REMARK    1  A    between atoms: O1_2  and  C2_3 
REMARK    2  A    between atoms: C7_10  and  C8_11 
REMARK    3  A    between atoms: C8_11  and  C9_12 
REMARK    4  A    between atoms: C9_12  and  N3_13 
REMARK    5  A    between atoms: N3_13  and  C10_14 
REMARK    6  A    between atoms: C18_24  and  O2_25 
ROOT
HETATM    1  C2  UNL     1      28.585   6.926  47.929  1.00  0.00     0.098 A 
HETATM    2  C3  UNL     1      27.401   7.489  48.103  1.00  0.00     0.027 A 
HETATM    3  C4  UNL     1      26.118   6.950  48.600  1.00  0.00     0.086 A 
HETATM    4  C5  UNL     1      24.948   7.311  47.784  1.00  0.00     0.104 C 
HETATM    5  N1  UNL     1      23.769   6.845  48.054  1.00  0.00    -0.257 NA
HETATM    6  C6  UNL     1      23.322   5.954  49.097  1.00  0.00     0.232 C 
HETATM    7  N2  UNL     1      24.052   5.005  49.631  1.00  0.00    -0.246 NA
HETATM    8  C7  UNL     1      25.416   4.596  49.362  1.00  0.00     0.044 C 
HETATM    9  C16 UNL     1      26.267   5.530  48.906  1.00  0.00    -0.018 A 
HETATM   10  C17 UNL     1      27.556   4.874  48.742  1.00  0.00     0.049 A 
HETATM   11  C18 UNL     1      28.640   5.491  48.291  1.00  0.00     0.099 A 
ENDROOT
BRANCH   8  12
HETATM   12  C8  UNL     1      25.751   3.192  49.582  1.00  0.00     0.079 C 
BRANCH  12  13
HETATM   13  C9  UNL     1      25.540   2.698  51.000  1.00  0.00     0.126 C 
BRANCH  13  14
HETATM   14  N3  UNL     1      26.663   3.065  51.847  1.00  0.00    -0.390 N 
HETATM   15  H12 UNL     1      27.029   4.025  52.053  1.00  0.00     0.159 HD
BRANCH  14  16
HETATM   16  C10 UNL     1      27.327   1.974  52.455  1.00  0.00     0.029 A 
HETATM   17  C11 UNL     1      28.418   2.183  53.300  1.00  0.00     0.032 A 
HETATM   18  C12 UNL     1      29.052   1.084  53.885  1.00  0.00     0.046 A 
HETATM   19  C13 UNL     1      28.615  -0.193  53.637  1.00  0.00     0.138 A 
HETATM   20  F1  UNL     1      29.208  -1.303  54.188  1.00  0.00    -0.204 F 
HETATM   21  C14 UNL     1      27.542  -0.452  52.809  1.00  0.00     0.074 A 
HETATM   22 CL1  UNL     1      26.935  -2.052  52.449  1.00  0.00    -0.081 Cl
HETATM   23  C15 UNL     1      26.949   0.668  52.255  1.00  0.00     0.056 A 
ENDBRANCH  14  16
ENDBRANCH  13  14
ENDBRANCH  12  13
ENDBRANCH   8  12
BRANCH  11  24
HETATM   24  O2  UNL     1      29.894   4.904  48.111  1.00  0.00    -0.358 OA
HETATM   25  H17 UNL     1      30.724   5.480  48.053  1.00  0.00     0.217 HD
ENDBRANCH  11  24
BRANCH   1  26
HETATM   26  O1  UNL     1      29.698   7.604  47.444  1.00  0.00    -0.353 OA
HETATM   27  C1  UNL     1      30.526   8.407  48.256  1.00  0.00     0.210 C 
ENDBRANCH   1  26
TORSDOF 6
ENDMDL
MODEL 4
REMARK VINA RESULT:      -7.4      5.239      7.017
REMARK  6 active torsions:
REMARK  status: ('A' for Active; 'I' for Inactive)
REMARK    1  A    between atoms: O1_2  and  C2_3 
REMARK    2  A    between atoms: C7_10  and  C8_11 
REMARK    3  A    between atoms: C8_11  and  C9_12 
REMARK    4  A    between atoms: C9_12  and  N3_13 
REMARK    5  A    between atoms: N3_13  and  C10_14 
REMARK    6  A    between atoms: C18_24  and  O2_25 
ROOT
HETATM    1  C2  UNL     1      26.522   0.795  54.129  1.00  0.00     0.098 A 
HETATM    2  C3  UNL     1      25.890  -0.297  54.524  1.00  0.00     0.027 A 
HETATM    3  C4  UNL     1      24.511  -0.775  54.292  1.00  0.00     0.086 A 
HETATM    4  C5  UNL     1      23.826  -1.268  55.498  1.00  0.00     0.104 C 
HETATM    5  N1  UNL     1      22.587  -1.645  55.462  1.00  0.00    -0.257 NA
HETATM    6  C6  UNL     1      21.644  -1.685  54.371  1.00  0.00     0.232 C 
HETATM    7  N2  UNL     1      21.643  -0.857  53.355  1.00  0.00    -0.246 NA
HETATM    8  C7  UNL     1      22.515   0.257  53.041  1.00  0.00     0.044 C 
HETATM    9  C16 UNL     1      23.777   0.207  53.499  1.00  0.00    -0.018 A 
HETATM   10  C17 UNL     1      24.438   1.417  53.033  1.00  0.00     0.049 A 
HETATM   11  C18 UNL     1      25.700   1.716  53.310  1.00  0.00     0.099 A 
ENDROOT
BRANCH   8  12
HETATM   12  C8  UNL     1      21.945   1.360  52.273  1.00  0.00     0.079 C 
BRANCH  12  13
HETATM   13  C9  UNL     1      20.455   1.567  52.459  1.00  0.00     0.126 C 
BRANCH  13  14
HETATM   14  N3  UNL     1      19.721   1.119  51.287  1.00  0.00    -0.390 N 
HETATM   15  H12 UNL     1      19.938   1.309  50.279  1.00  0.00     0.159 HD
BRANCH  14  16
HETATM   16  C10 UNL     1      18.578   0.334  51.568  1.00  0.00     0.029 A 
HETATM   17  C11 UNL     1      17.359   0.599  50.942  1.00  0.00     0.032 A 
HETATM   18  C12 UNL     1      16.250  -0.195  51.241  1.00  0.00     0.046 A 
HETATM   19  C13 UNL     1      16.346  -1.227  52.141  1.00  0.00     0.138 A 
HETATM   20  F1  UNL     1      15.282  -2.032  52.467  1.00  0.00    -0.204 F 
HETATM   21  C14 UNL     1      17.528  -1.528  52.786  1.00  0.00     0.074 A 
HETATM   22 CL1  UNL     1      17.721  -2.826  53.943  1.00  0.00    -0.081 Cl
HETATM   23  C15 UNL     1      18.596  -0.714  52.456  1.00  0.00     0.056 A 
ENDBRANCH  14  16
ENDBRANCH  13  14
ENDBRANCH  12  13
ENDBRANCH   8  12
BRANCH  11  24
HETATM   24  O2  UNL     1      26.374   2.865  52.891  1.00  0.00    -0.358 OA
HETATM   25  H17 UNL     1      26.002   3.781  53.103  1.00  0.00     0.217 HD
ENDBRANCH  11  24
BRANCH   1  26
HETATM   26  O1  UNL     1      27.845   1.080  54.448  1.00  0.00    -0.353 OA
HETATM   27  C1  UNL     1      28.794   0.084  54.761  1.00  0.00     0.210 C 
ENDBRANCH   1  26
TORSDOF 6
ENDMDL
MODEL 5
REMARK VINA RESULT:      -7.4      4.812      7.272
REMARK  6 active torsions:
REMARK  status: ('A' for Active; 'I' for Inactive)
REMARK    1  A    between atoms: O1_2  and  C2_3 
REMARK    2  A    between atoms: C7_10  and  C8_11 
REMARK    3  A    between atoms: C8_11  and  C9_12 
REMARK    4  A    between atoms: C9_12  and  N3_13 
REMARK    5  A    between atoms: N3_13  and  C10_14 
REMARK    6  A    between atoms: C18_24  and  O2_25 
ROOT
HETATM    1  C2  UNL     1      17.521  -0.521  51.946  1.00  0.00     0.098 A 
HETATM    2  C3  UNL     1      18.124   0.063  50.926  1.00  0.00     0.027 A 
HETATM    3  C4  UNL     1      19.519   0.513  50.733  1.00  0.00     0.086 A 
HETATM    4  C5  UNL     1      19.650   1.866  50.168  1.00  0.00     0.104 C 
HETATM    5  N1  UNL     1      20.810   2.423  50.018  1.00  0.00    -0.257 NA
HETATM    6  C6  UNL     1      22.136   1.940  50.321  1.00  0.00     0.232 C 
HETATM    7  N2  UNL     1      22.424   1.112  51.295  1.00  0.00    -0.246 NA
HETATM    8  C7  UNL     1      21.572   0.480  52.282  1.00  0.00     0.044 C 
HETATM    9  C16 UNL     1      20.292   0.251  51.944  1.00  0.00    -0.018 A 
HETATM   10  C17 UNL     1      19.670  -0.403  53.086  1.00  0.00     0.049 A 
HETATM   11  C18 UNL     1      18.395  -0.767  53.117  1.00  0.00     0.099 A 
ENDROOT
BRANCH   8  12
HETATM   12  C8  UNL     1      22.165   0.166  53.579  1.00  0.00     0.079 C 
BRANCH  12  13
HETATM   13  C9  UNL     1      23.565  -0.412  53.519  1.00  0.00     0.126 C 
BRANCH  13  14
HETATM   14  N3  UNL     1      24.540   0.625  53.225  1.00  0.00    -0.390 N 
HETATM   15  H12 UNL     1      24.361   1.631  52.988  1.00  0.00     0.159 HD
BRANCH  14  16
HETATM   16  C10 UNL     1      25.889   0.200  53.269  1.00  0.00     0.029 A 
HETATM   17  C11 UNL     1      26.254  -1.063  52.802  1.00  0.00     0.032 A 
HETATM   18  C12 UNL     1      27.594  -1.452  52.860  1.00  0.00     0.046 A 
HETATM   19  C13 UNL     1      28.550  -0.609  53.370  1.00  0.00     0.138 A 
HETATM   20  F1  UNL     1      29.878  -0.951  53.448  1.00  0.00    -0.204 F 
HETATM   21  C14 UNL     1      28.239   0.648  53.844  1.00  0.00     0.074 A 
HETATM   22 CL1  UNL     1      29.405   1.771  54.508  1.00  0.00    -0.081 Cl
HETATM   23  C15 UNL     1      26.901   0.986  53.765  1.00  0.00     0.056 A 
ENDBRANCH  14  16
ENDBRANCH  13  14
ENDBRANCH  12  13
ENDBRANCH   8  12
BRANCH  11  24
HETATM   24  O2  UNL     1      17.753  -1.390  54.189  1.00  0.00    -0.358 OA
HETATM   25  H17 UNL     1      16.768  -1.615  54.133  1.00  0.00     0.217 HD
ENDBRANCH  11  24
BRANCH   1  26
HETATM   26  O1  UNL     1      16.177  -0.881  51.946  1.00  0.00    -0.353 OA
HETATM   27  C1  UNL     1      15.336  -0.721  50.825  1.00  0.00     0.210 C 
ENDBRANCH   1  26
TORSDOF 6
ENDMDL
MODEL 6
REMARK VINA RESULT:      -7.3      4.282      6.440
REMARK  6 active torsions:
REMARK  status: ('A' for Active; 'I' for Inactive)
REMARK    1  A    between atoms: O1_2  and  C2_3 
REMARK    2  A    between atoms: C7_10  and  C8_11 
REMARK    3  A    between atoms: C8_11  and  C9_12 
REMARK    4  A    between atoms: C9_12  and  N3_13 
REMARK    5  A    between atoms: N3_13  and  C10_14 
REMARK    6  A    between atoms: C18_24  and  O2_25 
ROOT
HETATM    1  C2  UNL     1      19.501  -0.410  53.199  1.00  0.00     0.098 A 
HETATM    2  C3  UNL     1      19.410   0.250  52.057  1.00  0.00     0.027 A 
HETATM    3  C4  UNL     1      20.429   0.923  51.225  1.00  0.00     0.086 A 
HETATM    4  C5  UNL     1      20.050   2.269  50.767  1.00  0.00     0.104 C 
HETATM    5  N1  UNL     1      20.875   3.010  50.096  1.00  0.00    -0.257 NA
HETATM    6  C6  UNL     1      22.227   2.760  49.660  1.00  0.00     0.232 C 
HETATM    7  N2  UNL     1      23.090   2.007  50.299  1.00  0.00    -0.246 NA
HETATM    8  C7  UNL     1      22.961   1.259  51.533  1.00  0.00     0.044 C 
HETATM    9  C16 UNL     1      21.737   0.813  51.865  1.00  0.00    -0.018 A 
HETATM   10  C17 UNL     1      21.885   0.084  53.115  1.00  0.00     0.049 A 
HETATM   11  C18 UNL     1      20.873  -0.487  53.754  1.00  0.00     0.099 A 
ENDROOT
BRANCH   8  12
HETATM   12  C8  UNL     1      24.167   1.069  52.333  1.00  0.00     0.079 C 
BRANCH  12  13
HETATM   13  C9  UNL     1      25.250   2.108  52.114  1.00  0.00     0.126 C 
BRANCH  13  14
HETATM   14  N3  UNL     1      26.021   2.315  53.329  1.00  0.00    -0.390 N 
HETATM   15  H12 UNL     1      25.832   2.993  54.105  1.00  0.00     0.159 HD
BRANCH  14  16
HETATM   16  C10 UNL     1      27.162   1.488  53.454  1.00  0.00     0.029 A 
HETATM   17  C11 UNL     1      28.375   2.009  53.904  1.00  0.00     0.032 A 
HETATM   18  C12 UNL     1      29.483   1.165  54.017  1.00  0.00     0.046 A 
HETATM   19  C13 UNL     1      29.390  -0.164  53.689  1.00  0.00     0.138 A 
HETATM   20  F1  UNL     1      30.452  -1.030  53.782  1.00  0.00    -0.204 F 
HETATM   21  C14 UNL     1      28.213  -0.727  53.239  1.00  0.00     0.074 A 
HETATM   22 CL1  UNL     1      28.025  -2.410  52.804  1.00  0.00    -0.081 Cl
HETATM   23  C15 UNL     1      27.147   0.148  53.146  1.00  0.00     0.056 A 
ENDBRANCH  14  16
ENDBRANCH  13  14
ENDBRANCH  12  13
ENDBRANCH   8  12
BRANCH  11  24
HETATM   24  O2  UNL     1      20.963  -1.192  54.957  1.00  0.00    -0.358 OA
HETATM   25  H17 UNL     1      21.661  -0.940  55.644  1.00  0.00     0.217 HD
ENDBRANCH  11  24
BRANCH   1  26
HETATM   26  O1  UNL     1      18.414  -0.989  53.845  1.00  0.00    -0.353 OA
HETATM   27  C1  UNL     1      17.817  -2.194  53.421  1.00  0.00     0.210 C 
ENDBRANCH   1  26
TORSDOF 6
ENDMDL
MODEL 7
REMARK VINA RESULT:      -7.2      5.497      7.977
REMARK  6 active torsions:
REMARK  status: ('A' for Active; 'I' for Inactive)
REMARK    1  A    between atoms: O1_2  and  C2_3 
REMARK    2  A    between atoms: C7_10  and  C8_11 
REMARK    3  A    between atoms: C8_11  and  C9_12 
REMARK    4  A    between atoms: C9_12  and  N3_13 
REMARK    5  A    between atoms: N3_13  and  C10_14 
REMARK    6  A    between atoms: C18_24  and  O2_25 
ROOT
HETATM    1  C2  UNL     1      26.372   0.899  54.265  1.00  0.00     0.098 A 
HETATM    2  C3  UNL     1      26.077   1.889  53.441  1.00  0.00     0.027 A 
HETATM    3  C4  UNL     1      24.863   2.185  52.650  1.00  0.00     0.086 A 
HETATM    4  C5  UNL     1      25.124   2.558  51.251  1.00  0.00     0.104 C 
HETATM    5  N1  UNL     1      24.153   2.767  50.418  1.00  0.00    -0.257 NA
HETATM    6  C6  UNL     1      22.723   2.704  50.600  1.00  0.00     0.232 C 
HETATM    7  N2  UNL     1      22.113   1.904  51.440  1.00  0.00    -0.246 NA
HETATM    8  C7  UNL     1      22.641   0.922  52.365  1.00  0.00     0.044 C 
HETATM    9  C16 UNL     1      23.875   1.130  52.855  1.00  0.00    -0.018 A 
HETATM   10  C17 UNL     1      24.153   0.028  53.764  1.00  0.00     0.049 A 
HETATM   11  C18 UNL     1      25.295  -0.106  54.425  1.00  0.00     0.099 A 
ENDROOT
BRANCH   8  12
HETATM   12  C8  UNL     1      21.800  -0.232  52.673  1.00  0.00     0.079 C 
BRANCH  12  13
HETATM   13  C9  UNL     1      20.308   0.031  52.619  1.00  0.00     0.126 C 
BRANCH  13  14
HETATM   14  N3  UNL     1      19.616  -0.699  53.668  1.00  0.00    -0.390 N 
HETATM   15  H12 UNL     1      19.908  -0.824  54.667  1.00  0.00     0.159 HD
BRANCH  14  16
HETATM   16  C10 UNL     1      18.403  -1.306  53.266  1.00  0.00     0.029 A 
HETATM   17  C11 UNL     1      17.533  -0.652  52.393  1.00  0.00     0.032 A 
HETATM   18  C12 UNL     1      16.343  -1.279  52.016  1.00  0.00     0.046 A 
HETATM   19  C13 UNL     1      16.023  -2.525  52.494  1.00  0.00     0.138 A 
HETATM   20  F1  UNL     1      14.864  -3.178  52.152  1.00  0.00    -0.204 F 
HETATM   21  C14 UNL     1      16.849  -3.211  53.360  1.00  0.00     0.074 A 
HETATM   22 CL1  UNL     1      16.502  -4.799  54.007  1.00  0.00    -0.081 Cl
HETATM   23  C15 UNL     1      18.013  -2.550  53.702  1.00  0.00     0.056 A 
ENDBRANCH  14  16
ENDBRANCH  13  14
ENDBRANCH  12  13
ENDBRANCH   8  12
BRANCH  11  24
HETATM   24  O2  UNL     1      25.610  -1.147  55.302  1.00  0.00    -0.358 OA
HETATM   25  H17 UNL     1      26.334  -1.026  55.997  1.00  0.00     0.217 HD
ENDBRANCH  11  24
BRANCH   1  26
HETATM   26  O1  UNL     1      27.586   0.786  54.934  1.00  0.00    -0.353 OA
HETATM   27  C1  UNL     1      28.731   0.197  54.359  1.00  0.00     0.210 C 
ENDBRANCH   1  26
TORSDOF 6
ENDMDL
MODEL 8
REMARK VINA RESULT:      -7.1      4.312      6.888
REMARK  6 active torsions:
REMARK  status: ('A' for Active; 'I' for Inactive)
REMARK    1  A    between atoms: O1_2  and  C2_3 
REMARK    2  A    between atoms: C7_10  and  C8_11 
REMARK    3  A    between atoms: C8_11  and  C9_12 
REMARK    4  A    between atoms: C9_12  and  N3_13 
REMARK    5  A    between atoms: N3_13  and  C10_14 
REMARK    6  A    between atoms: C18_24  and  O2_25 
ROOT
HETATM    1  C2  UNL     1      27.174   0.334  53.088  1.00  0.00     0.098 A 
HETATM    2  C3  UNL     1      26.566   1.501  52.959  1.00  0.00     0.027 A 
HETATM    3  C4  UNL     1      25.135   1.863  52.889  1.00  0.00     0.086 A 
HETATM    4  C5  UNL     1      24.797   2.808  51.812  1.00  0.00     0.104 C 
HETATM    5  N1  UNL     1      23.570   3.153  51.580  1.00  0.00    -0.257 NA
HETATM    6  C6  UNL     1      22.341   2.763  52.227  1.00  0.00     0.232 C 
HETATM    7  N2  UNL     1      22.130   1.596  52.786  1.00  0.00    -0.246 NA
HETATM    8  C7  UNL     1      22.992   0.440  52.915  1.00  0.00     0.044 C 
HETATM    9  C16 UNL     1      24.318   0.654  52.954  1.00  0.00    -0.018 A 
HETATM   10  C17 UNL     1      24.947  -0.650  53.109  1.00  0.00     0.049 A 
HETATM   11  C18 UNL     1      26.259  -0.828  53.171  1.00  0.00     0.099 A 
ENDROOT
BRANCH   8  12
HETATM   12  C8  UNL     1      22.354  -0.873  52.967  1.00  0.00     0.079 C 
BRANCH  12  13
HETATM   13  C9  UNL     1      21.487  -1.115  54.187  1.00  0.00     0.126 C 
BRANCH  13  14
HETATM   14  N3  UNL     1      20.376  -0.179  54.226  1.00  0.00    -0.390 N 
HETATM   15  H12 UNL     1      20.309   0.721  54.759  1.00  0.00     0.159 HD
BRANCH  14  16
HETATM   16  C10 UNL     1      19.260  -0.551  53.440  1.00  0.00     0.029 A 
HETATM   17  C11 UNL     1      18.407  -1.576  53.853  1.00  0.00     0.032 A 
HETATM   18  C12 UNL     1      17.314  -1.919  53.054  1.00  0.00     0.046 A 
HETATM   19  C13 UNL     1      17.073  -1.263  51.873  1.00  0.00     0.138 A 
HETATM   20  F1  UNL     1      16.012  -1.568  51.056  1.00  0.00    -0.204 F 
HETATM   21  C14 UNL     1      17.886  -0.245  51.422  1.00  0.00     0.074 A 
HETATM   22 CL1  UNL     1      17.638   0.631  49.928  1.00  0.00    -0.081 Cl
HETATM   23  C15 UNL     1      18.953   0.058  52.247  1.00  0.00     0.056 A 
ENDBRANCH  14  16
ENDBRANCH  13  14
ENDBRANCH  12  13
ENDBRANCH   8  12
BRANCH  11  24
HETATM   24  O2  UNL     1      26.908  -2.057  53.313  1.00  0.00    -0.358 OA
HETATM   25  H17 UNL     1      27.896  -2.091  53.524  1.00  0.00     0.217 HD
ENDBRANCH  11  24
BRANCH   1  26
HETATM   26  O1  UNL     1      28.556   0.185  53.139  1.00  0.00    -0.353 OA
HETATM   27  C1  UNL     1      29.329   0.544  54.262  1.00  0.00     0.210 C 
ENDBRANCH   1  26
TORSDOF 6
ENDMDL
MODEL 9
REMARK VINA RESULT:      -7.1      2.905      3.712
REMARK  6 active torsions:
REMARK  status: ('A' for Active; 'I' for Inactive)
REMARK    1  A    between atoms: O1_2  and  C2_3 
REMARK    2  A    between atoms: C7_10  and  C8_11 
REMARK    3  A    between atoms: C8_11  and  C9_12 
REMARK    4  A    between atoms: C9_12  and  N3_13 
REMARK    5  A    between atoms: N3_13  and  C10_14 
REMARK    6  A    between atoms: C18_24  and  O2_25 
ROOT
HETATM    1  C2  UNL     1      26.373   0.877  54.055  1.00  0.00     0.098 A 
HETATM    2  C3  UNL     1      25.760  -0.187  54.544  1.00  0.00     0.027 A 
HETATM    3  C4  UNL     1      24.426  -0.765  54.277  1.00  0.00     0.086 A 
HETATM    4  C5  UNL     1      23.668  -1.132  55.483  1.00  0.00     0.104 C 
HETATM    5  N1  UNL     1      22.453  -1.576  55.406  1.00  0.00    -0.257 NA
HETATM    6  C6  UNL     1      21.604  -1.808  54.263  1.00  0.00     0.232 C 
HETATM    7  N2  UNL     1      21.649  -1.121  53.148  1.00  0.00    -0.246 NA
HETATM    8  C7  UNL     1      22.494  -0.012  52.754  1.00  0.00     0.044 C 
HETATM    9  C16 UNL     1      23.716   0.066  53.307  1.00  0.00    -0.018 A 
HETATM   10  C17 UNL     1      24.359   1.238  52.734  1.00  0.00     0.049 A 
HETATM   11  C18 UNL     1      25.581   1.638  53.061  1.00  0.00     0.099 A 
ENDROOT
BRANCH   8  12
HETATM   12  C8  UNL     1      21.941   0.950  51.805  1.00  0.00     0.079 C 
BRANCH  12  13
HETATM   13  C9  UNL     1      20.539   1.429  52.125  1.00  0.00     0.126 C 
BRANCH  13  14
HETATM   14  N3  UNL     1      20.574   2.708  52.816  1.00  0.00    -0.390 N 
HETATM   15  H12 UNL     1      20.408   2.895  53.834  1.00  0.00     0.159 HD
BRANCH  14  16
HETATM   16  C10 UNL     1      20.871   3.818  51.993  1.00  0.00     0.029 A 
HETATM   17  C11 UNL     1      19.967   4.249  51.022  1.00  0.00     0.032 A 
HETATM   18  C12 UNL     1      20.290   5.349  50.224  1.00  0.00     0.046 A 
HETATM   19  C13 UNL     1      21.484   6.007  50.386  1.00  0.00     0.138 A 
HETATM   20  F1  UNL     1      21.845   7.092  49.624  1.00  0.00    -0.204 F 
HETATM   21  C14 UNL     1      22.411   5.620  51.331  1.00  0.00     0.074 A 
HETATM   22 CL1  UNL     1      23.949   6.412  51.590  1.00  0.00    -0.081 Cl
HETATM   23  C15 UNL     1      22.044   4.528  52.094  1.00  0.00     0.056 A 
ENDBRANCH  14  16
ENDBRANCH  13  14
ENDBRANCH  12  13
ENDBRANCH   8  12
BRANCH  11  24
HETATM   24  O2  UNL     1      26.237   2.757  52.543  1.00  0.00    -0.358 OA
HETATM   25  H17 UNL     1      26.874   3.288  53.122  1.00  0.00     0.217 HD
ENDBRANCH  11  24
BRANCH   1  26
HETATM   26  O1  UNL     1      27.653   1.271  54.430  1.00  0.00    -0.353 OA
HETATM   27  C1  UNL     1      28.638   0.367  54.877  1.00  0.00     0.210 C 
ENDBRANCH   1  26
TORSDOF 6
ENDMDL
