MODEL 1
REMARK VINA RESULT:      -7.6      0.000      0.000
REMARK  5 active torsions:
REMARK  status: ('A' for Active; 'I' for Inactive)
REMARK    1  A    between atoms: N1_1  and  C1_2 
REMARK    2  A    between atoms: C1_2  and  C2_3 
REMARK    3  A    between atoms: C2_3  and  N2_4 
REMARK    4  A    between atoms: N2_4  and  C3_5 
REMARK    5  A    between atoms: C7_10  and  N3_11 
ROOT
HETATM    1  C2  UNL     1      25.017   1.754  52.521  1.00  0.00     0.051 C 
HETATM    2  C9  UNL     1      23.854   1.161  52.773  1.00  0.00     0.026 A 
HETATM    3  C10 UNL     1      22.677   0.474  53.287  1.00  0.00     0.007 A 
HETATM    4  C11 UNL     1      22.606   0.859  52.039  1.00  0.00     0.050 A 
HETATM    5  N4  UNL     1      21.538   0.710  51.080  1.00  0.00    -0.389 N 
HETATM    6  C12 UNL     1      20.135   0.569  51.012  1.00  0.00     0.122 C 
HETATM    7  C13 UNL     1      19.395   0.604  52.299  1.00  0.00     0.046 C 
HETATM    8  C14 UNL     1      19.823  -0.432  53.289  1.00  0.00     0.169 C 
HETATM    9  O1  UNL     1      20.531   0.232  54.290  1.00  0.00    -0.386 OA
HETATM   10  C15 UNL     1      21.829  -0.220  54.259  1.00  0.00     0.209 C 
HETATM   11  H11 UNL     1      21.905   0.701  50.082  1.00  0.00     0.159 HD
ENDROOT
BRANCH   1  12
HETATM   12  C1  UNL     1      25.504   2.387  51.269  1.00  0.00     0.324 C 
BRANCH  12  13
HETATM   13  N1  UNL     1      25.243   3.800  51.338  1.00  0.00     0.083 N 
HETATM   14  H1  UNL     1      26.056   4.359  51.674  1.00  0.00     0.313 HD
HETATM   15  H2  UNL     1      24.907   4.232  50.469  1.00  0.00     0.313 HD
ENDBRANCH  12  13
ENDBRANCH   1  12
BRANCH   1  16
HETATM   16  N2  UNL     1      25.810   1.706  53.695  1.00  0.00    -0.357 N 
HETATM   17  H5  UNL     1      25.703   2.219  54.606  1.00  0.00     0.166 HD
BRANCH  16  18
HETATM   18  C3  UNL     1      26.942   0.816  53.633  1.00  0.00     0.034 A 
HETATM   19  C4  UNL     1      28.227   1.278  53.872  1.00  0.00     0.032 A 
HETATM   20  C5  UNL     1      29.359   0.509  53.835  1.00  0.00     0.047 A 
HETATM   21  C6  UNL     1      29.221  -0.828  53.538  1.00  0.00     0.142 A 
HETATM   22  F1  UNL     1      30.357  -1.586  53.504  1.00  0.00    -0.204 F 
HETATM   23  C7  UNL     1      27.950  -1.331  53.292  1.00  0.00     0.067 A 
HETATM   24  C8  UNL     1      26.825  -0.540  53.335  1.00  0.00     0.061 A 
BRANCH  23  25
HETATM   25  N3  UNL     1      27.875  -2.717  52.991  1.00  0.00    -0.397 N 
HETATM   26  H8  UNL     1      28.759  -3.234  53.227  1.00  0.00     0.156 HD
HETATM   27  H9  UNL     1      27.292  -3.481  52.619  1.00  0.00     0.156 HD
ENDBRANCH  23  25
ENDBRANCH  16  18
ENDBRANCH   1  16
TORSDOF 5
ENDMDL
MODEL 2
REMARK VINA RESULT:      -7.2      2.017      2.264
REMARK  5 active torsions:
REMARK  status: ('A' for Active; 'I' for Inactive)
REMARK    1  A    between atoms: N1_1  and  C1_2 
REMARK    2  A    between atoms: C1_2  and  C2_3 
REMARK    3  A    between atoms: C2_3  and  N2_4 
REMARK    4  A    between atoms: N2_4  and  C3_5 
REMARK    5  A    between atoms: C7_10  and  N3_11 
ROOT
HETATM    1  C2  UNL     1      25.197   1.439  52.030  1.00  0.00     0.051 C 
HETATM    2  C9  UNL     1      23.927   1.819  51.936  1.00  0.00     0.026 A 
HETATM    3  C10 UNL     1      22.499   2.085  52.040  1.00  0.00     0.007 A 
HETATM    4  C11 UNL     1      23.115   2.689  51.058  1.00  0.00     0.050 A 
HETATM    5  N4  UNL     1      22.602   3.586  50.051  1.00  0.00    -0.389 N 
HETATM    6  C12 UNL     1      21.559   4.513  49.834  1.00  0.00     0.122 C 
HETATM    7  C13 UNL     1      20.630   4.754  50.968  1.00  0.00     0.046 C 
HETATM    8  C14 UNL     1      19.938   3.527  51.472  1.00  0.00     0.169 C 
HETATM    9  O1  UNL     1      20.512   3.216  52.704  1.00  0.00    -0.386 OA
HETATM   10  C15 UNL     1      21.140   2.000  52.581  1.00  0.00     0.209 C 
HETATM   11  H11 UNL     1      23.190   3.560  49.165  1.00  0.00     0.159 HD
ENDROOT
BRANCH   1  12
HETATM   12  C1  UNL     1      26.361   1.809  51.185  1.00  0.00     0.324 C 
BRANCH  12  13
HETATM   13  N1  UNL     1      26.592   3.222  51.317  1.00  0.00     0.083 N 
HETATM   14  H1  UNL     1      25.891   3.809  50.816  1.00  0.00     0.313 HD
HETATM   15  H2  UNL     1      26.658   3.573  52.280  1.00  0.00     0.313 HD
ENDBRANCH  12  13
ENDBRANCH   1  12
BRANCH   1  16
HETATM   16  N2  UNL     1      25.322   0.557  53.133  1.00  0.00    -0.357 N 
HETATM   17  H5  UNL     1      24.603   0.238  53.831  1.00  0.00     0.166 HD
BRANCH  16  18
HETATM   18  C3  UNL     1      26.640   0.011  53.335  1.00  0.00     0.034 A 
HETATM   19  C4  UNL     1      27.673   0.798  53.821  1.00  0.00     0.032 A 
HETATM   20  C5  UNL     1      28.954   0.368  54.042  1.00  0.00     0.047 A 
HETATM   21  C6  UNL     1      29.249  -0.947  53.763  1.00  0.00     0.142 A 
HETATM   22  F1  UNL     1      30.530  -1.366  53.988  1.00  0.00    -0.204 F 
HETATM   23  C7  UNL     1      28.242  -1.770  53.274  1.00  0.00     0.067 A 
HETATM   24  C8  UNL     1      26.962  -1.317  53.059  1.00  0.00     0.061 A 
BRANCH  23  25
HETATM   25  N3  UNL     1      28.612  -3.115  53.005  1.00  0.00    -0.397 N 
HETATM   26  H8  UNL     1      29.117  -3.224  52.091  1.00  0.00     0.156 HD
HETATM   27  H9  UNL     1      28.598  -4.089  53.342  1.00  0.00     0.156 HD
ENDBRANCH  23  25
ENDBRANCH  16  18
ENDBRANCH   1  16
TORSDOF 5
ENDMDL
MODEL 3
REMARK VINA RESULT:      -7.2      1.309      1.821
REMARK  5 active torsions:
REMARK  status: ('A' for Active; 'I' for Inactive)
REMARK    1  A    between atoms: N1_1  and  C1_2 
REMARK    2  A    between atoms: C1_2  and  C2_3 
REMARK    3  A    between atoms: C2_3  and  N2_4 
REMARK    4  A    between atoms: N2_4  and  C3_5 
REMARK    5  A    between atoms: C7_10  and  N3_11 
ROOT
HETATM    1  C2  UNL     1      24.342   0.808  52.760  1.00  0.00     0.051 C 
HETATM    2  C9  UNL     1      23.089   0.362  52.779  1.00  0.00     0.026 A 
HETATM    3  C10 UNL     1      21.783  -0.232  53.026  1.00  0.00     0.007 A 
HETATM    4  C11 UNL     1      21.896   0.437  51.909  1.00  0.00     0.050 A 
HETATM    5  N4  UNL     1      20.924   0.685  50.871  1.00  0.00    -0.389 N 
HETATM    6  C12 UNL     1      19.529   0.784  50.674  1.00  0.00     0.122 C 
HETATM    7  C13 UNL     1      18.670   0.636  51.877  1.00  0.00     0.046 C 
HETATM    8  C14 UNL     1      18.849  -0.657  52.608  1.00  0.00     0.169 C 
HETATM    9  O1  UNL     1      19.531  -0.362  53.788  1.00  0.00    -0.386 OA
HETATM   10  C15 UNL     1      20.753  -0.992  53.737  1.00  0.00     0.209 C 
HETATM   11  H11 UNL     1      21.389   0.851  49.929  1.00  0.00     0.159 HD
ENDROOT
BRANCH   1  12
HETATM   12  C1  UNL     1      25.039   1.630  51.739  1.00  0.00     0.324 C 
BRANCH  12  13
HETATM   13  N1  UNL     1      24.969   3.011  52.136  1.00  0.00     0.083 N 
HETATM   14  H1  UNL     1      25.763   3.311  52.743  1.00  0.00     0.313 HD
HETATM   15  H2  UNL     1      24.890   3.690  51.370  1.00  0.00     0.313 HD
ENDBRANCH  12  13
ENDBRANCH   1  12
BRANCH   1  16
HETATM   16  N2  UNL     1      24.994   0.365  53.939  1.00  0.00    -0.357 N 
HETATM   17  H5  UNL     1      24.597   0.100  54.875  1.00  0.00     0.166 HD
BRANCH  16  18
HETATM   18  C3  UNL     1      26.428   0.262  53.843  1.00  0.00     0.034 A 
HETATM   19  C4  UNL     1      27.029  -0.866  53.303  1.00  0.00     0.032 A 
HETATM   20  C5  UNL     1      28.378  -1.054  53.173  1.00  0.00     0.047 A 
HETATM   21  C6  UNL     1      29.213  -0.049  53.608  1.00  0.00     0.142 A 
HETATM   22  F1  UNL     1      30.558  -0.247  53.473  1.00  0.00    -0.204 F 
HETATM   23  C7  UNL     1      28.652   1.098  54.155  1.00  0.00     0.067 A 
HETATM   24  C8  UNL     1      27.292   1.265  54.277  1.00  0.00     0.061 A 
BRANCH  23  25
HETATM   25  N3  UNL     1      29.567   2.095  54.585  1.00  0.00    -0.397 N 
HETATM   26  H8  UNL     1      29.747   2.064  55.620  1.00  0.00     0.156 HD
HETATM   27  H9  UNL     1      30.168   2.883  54.302  1.00  0.00     0.156 HD
ENDBRANCH  23  25
ENDBRANCH  16  18
ENDBRANCH   1  16
TORSDOF 5
ENDMDL
MODEL 4
REMARK VINA RESULT:      -7.2      3.900      7.314
REMARK  5 active torsions:
REMARK  status: ('A' for Active; 'I' for Inactive)
REMARK    1  A    between atoms: N1_1  and  C1_2 
REMARK    2  A    between atoms: C1_2  and  C2_3 
REMARK    3  A    between atoms: C2_3  and  N2_4 
REMARK    4  A    between atoms: N2_4  and  C3_5 
REMARK    5  A    between atoms: C7_10  and  N3_11 
ROOT
HETATM    1  C2  UNL     1      23.924   2.802  52.673  1.00  0.00     0.051 C 
HETATM    2  C9  UNL     1      24.886   2.071  53.228  1.00  0.00     0.026 A 
HETATM    3  C10 UNL     1      25.757   1.086  53.855  1.00  0.00     0.007 A 
HETATM    4  C11 UNL     1      26.313   2.237  53.578  1.00  0.00     0.050 A 
HETATM    5  N4  UNL     1      27.665   2.693  53.796  1.00  0.00    -0.389 N 
HETATM    6  C12 UNL     1      28.982   2.200  53.926  1.00  0.00     0.122 C 
HETATM    7  C13 UNL     1      29.168   0.734  53.772  1.00  0.00     0.046 C 
HETATM    8  C14 UNL     1      28.367  -0.095  54.725  1.00  0.00     0.169 C 
HETATM    9  O1  UNL     1      27.343  -0.685  53.985  1.00  0.00    -0.386 OA
HETATM   10  C15 UNL     1      26.147  -0.192  54.453  1.00  0.00     0.209 C 
HETATM   11  H11 UNL     1      27.712   3.750  53.894  1.00  0.00     0.159 HD
ENDROOT
BRANCH   1  12
HETATM   12  C1  UNL     1      23.973   4.193  52.155  1.00  0.00     0.324 C 
BRANCH  12  13
HETATM   13  N1  UNL     1      23.722   5.097  53.246  1.00  0.00     0.083 N 
HETATM   14  H1  UNL     1      23.108   4.696  53.988  1.00  0.00     0.313 HD
HETATM   15  H2  UNL     1      24.557   5.479  53.707  1.00  0.00     0.313 HD
ENDBRANCH  12  13
ENDBRANCH   1  12
BRANCH   1  16
HETATM   16  N2  UNL     1      22.738   2.027  52.629  1.00  0.00    -0.357 N 
HETATM   17  H5  UNL     1      22.314   1.395  53.354  1.00  0.00     0.166 HD
BRANCH  16  18
HETATM   18  C3  UNL     1      21.994   2.116  51.398  1.00  0.00     0.034 A 
HETATM   19  C4  UNL     1      22.431   1.471  50.250  1.00  0.00     0.032 A 
HETATM   20  C5  UNL     1      21.793   1.500  49.040  1.00  0.00     0.047 A 
HETATM   21  C6  UNL     1      20.625   2.222  48.944  1.00  0.00     0.142 A 
HETATM   22  F1  UNL     1      19.997   2.243  47.731  1.00  0.00    -0.204 F 
HETATM   23  C7  UNL     1      20.153   2.883  50.070  1.00  0.00     0.067 A 
HETATM   24  C8  UNL     1      20.810   2.841  51.278  1.00  0.00     0.061 A 
BRANCH  23  25
HETATM   25  N3  UNL     1      18.944   3.611  49.905  1.00  0.00    -0.397 N 
HETATM   26  H8  UNL     1      18.859   4.050  48.954  1.00  0.00     0.156 HD
HETATM   27  H9  UNL     1      18.061   3.911  50.341  1.00  0.00     0.156 HD
ENDBRANCH  23  25
ENDBRANCH  16  18
ENDBRANCH   1  16
TORSDOF 5
ENDMDL
MODEL 5
REMARK VINA RESULT:      -7.2      3.424      6.879
REMARK  5 active torsions:
REMARK  status: ('A' for Active; 'I' for Inactive)
REMARK    1  A    between atoms: N1_1  and  C1_2 
REMARK    2  A    between atoms: C1_2  and  C2_3 
REMARK    3  A    between atoms: C2_3  and  N2_4 
REMARK    4  A    between atoms: N2_4  and  C3_5 
REMARK    5  A    between atoms: C7_10  and  N3_11 
ROOT
HETATM    1  C2  UNL     1      24.006   2.303  51.567  1.00  0.00     0.051 C 
HETATM    2  C9  UNL     1      24.980   1.593  52.129  1.00  0.00     0.026 A 
HETATM    3  C10 UNL     1      25.931   0.613  52.634  1.00  0.00     0.007 A 
HETATM    4  C11 UNL     1      26.156   1.852  52.988  1.00  0.00     0.050 A 
HETATM    5  N4  UNL     1      27.205   2.408  53.808  1.00  0.00    -0.389 N 
HETATM    6  C12 UNL     1      28.536   2.157  54.208  1.00  0.00     0.122 C 
HETATM    7  C13 UNL     1      29.196   0.961  53.626  1.00  0.00     0.046 C 
HETATM    8  C14 UNL     1      28.482  -0.328  53.887  1.00  0.00     0.169 C 
HETATM    9  O1  UNL     1      27.903  -0.721  52.681  1.00  0.00    -0.386 OA
HETATM   10  C15 UNL     1      26.538  -0.703  52.844  1.00  0.00     0.209 C 
HETATM   11  H11 UNL     1      26.899   3.311  54.279  1.00  0.00     0.159 HD
ENDROOT
BRANCH   1  12
HETATM   12  C1  UNL     1      23.749   3.765  51.619  1.00  0.00     0.324 C 
BRANCH  12  13
HETATM   13  N1  UNL     1      24.885   4.450  51.065  1.00  0.00     0.083 N 
HETATM   14  H1  UNL     1      24.901   4.457  50.022  1.00  0.00     0.313 HD
HETATM   15  H2  UNL     1      25.019   5.417  51.384  1.00  0.00     0.313 HD
ENDBRANCH  12  13
ENDBRANCH   1  12
BRANCH   1  16
HETATM   16  N2  UNL     1      23.165   1.419  50.845  1.00  0.00    -0.357 N 
HETATM   17  H5  UNL     1      23.247   1.057  49.861  1.00  0.00     0.166 HD
BRANCH  16  18
HETATM   18  C3  UNL     1      22.016   0.939  51.569  1.00  0.00     0.034 A 
HETATM   19  C4  UNL     1      20.830   0.645  50.913  1.00  0.00     0.032 A 
HETATM   20  C5  UNL     1      19.689   0.187  51.516  1.00  0.00     0.047 A 
HETATM   21  C6  UNL     1      19.712  -0.000  52.880  1.00  0.00     0.142 A 
HETATM   22  F1  UNL     1      18.569  -0.458  53.471  1.00  0.00    -0.204 F 
HETATM   23  C7  UNL     1      20.881   0.283  53.575  1.00  0.00     0.067 A 
HETATM   24  C8  UNL     1      22.016   0.743  52.949  1.00  0.00     0.061 A 
BRANCH  23  25
HETATM   25  N3  UNL     1      20.839   0.070  54.978  1.00  0.00    -0.397 N 
HETATM   26  H8  UNL     1      20.202   0.743  55.474  1.00  0.00     0.156 HD
HETATM   27  H9  UNL     1      21.184  -0.495  55.768  1.00  0.00     0.156 HD
ENDBRANCH  23  25
ENDBRANCH  16  18
ENDBRANCH   1  16
TORSDOF 5
ENDMDL
MODEL 6
REMARK VINA RESULT:      -7.1      1.547      1.955
REMARK  5 active torsions:
REMARK  status: ('A' for Active; 'I' for Inactive)
REMARK    1  A    between atoms: N1_1  and  C1_2 
REMARK    2  A    between atoms: C1_2  and  C2_3 
REMARK    3  A    between atoms: C2_3  and  N2_4 
REMARK    4  A    between atoms: N2_4  and  C3_5 
REMARK    5  A    between atoms: C7_10  and  N3_11 
ROOT
HETATM    1  C2  UNL     1      23.840   2.903  52.375  1.00  0.00     0.051 C 
HETATM    2  C9  UNL     1      23.151   1.829  52.748  1.00  0.00     0.026 A 
HETATM    3  C10 UNL     1      22.586   0.619  53.328  1.00  0.00     0.007 A 
HETATM    4  C11 UNL     1      21.896   1.153  52.354  1.00  0.00     0.050 A 
HETATM    5  N4  UNL     1      20.652   0.731  51.756  1.00  0.00    -0.389 N 
HETATM    6  C12 UNL     1      19.477   0.009  52.059  1.00  0.00     0.122 C 
HETATM    7  C13 UNL     1      19.350  -0.514  53.444  1.00  0.00     0.046 C 
HETATM    8  C14 UNL     1      20.462  -1.422  53.867  1.00  0.00     0.169 C 
HETATM    9  O1  UNL     1      21.242  -0.709  54.777  1.00  0.00    -0.386 OA
HETATM   10  C15 UNL     1      22.488  -0.538  54.221  1.00  0.00     0.209 C 
HETATM   11  H11 UNL     1      20.567   1.063  50.750  1.00  0.00     0.159 HD
ENDROOT
BRANCH   1  12
HETATM   12  C1  UNL     1      23.540   3.900  51.316  1.00  0.00     0.324 C 
BRANCH  12  13
HETATM   13  N1  UNL     1      22.807   4.988  51.905  1.00  0.00     0.083 N 
HETATM   14  H1  UNL     1      22.515   4.810  52.891  1.00  0.00     0.313 HD
HETATM   15  H2  UNL     1      23.272   5.903  51.880  1.00  0.00     0.313 HD
ENDBRANCH  12  13
ENDBRANCH   1  12
BRANCH   1  16
HETATM   16  N2  UNL     1      25.003   2.993  53.182  1.00  0.00    -0.357 N 
HETATM   17  H5  UNL     1      25.335   3.770  53.807  1.00  0.00     0.166 HD
BRANCH  16  18
HETATM   18  C3  UNL     1      25.867   1.841  53.142  1.00  0.00     0.034 A 
HETATM   19  C4  UNL     1      25.992   1.082  51.988  1.00  0.00     0.032 A 
HETATM   20  C5  UNL     1      26.785  -0.027  51.858  1.00  0.00     0.047 A 
HETATM   21  C6  UNL     1      27.520  -0.426  52.951  1.00  0.00     0.142 A 
HETATM   22  F1  UNL     1      28.307  -1.533  52.809  1.00  0.00    -0.204 F 
HETATM   23  C7  UNL     1      27.423   0.308  54.126  1.00  0.00     0.067 A 
HETATM   24  C8  UNL     1      26.619   1.419  54.236  1.00  0.00     0.061 A 
BRANCH  23  25
HETATM   25  N3  UNL     1      28.205  -0.157  55.217  1.00  0.00    -0.397 N 
HETATM   26  H8  UNL     1      27.630  -0.368  56.071  1.00  0.00     0.156 HD
HETATM   27  H9  UNL     1      29.151  -0.391  55.552  1.00  0.00     0.156 HD
ENDBRANCH  23  25
ENDBRANCH  16  18
ENDBRANCH   1  16
TORSDOF 5
ENDMDL
MODEL 7
REMARK VINA RESULT:      -7.0      3.437      6.849
REMARK  5 active torsions:
REMARK  status: ('A' for Active; 'I' for Inactive)
REMARK    1  A    between atoms: N1_1  and  C1_2 
REMARK    2  A    between atoms: C1_2  and  C2_3 
REMARK    3  A    between atoms: C2_3  and  N2_4 
REMARK    4  A    between atoms: N2_4  and  C3_5 
REMARK    5  A    between atoms: C7_10  and  N3_11 
ROOT
HETATM    1  C2  UNL     1      23.690   0.392  53.082  1.00  0.00     0.051 C 
HETATM    2  C9  UNL     1      24.999   0.625  53.121  1.00  0.00     0.026 A 
HETATM    3  C10 UNL     1      26.364   1.129  53.170  1.00  0.00     0.007 A 
HETATM    4  C11 UNL     1      26.245  -0.172  53.123  1.00  0.00     0.050 A 
HETATM    5  N4  UNL     1      27.260  -1.198  53.111  1.00  0.00    -0.389 N 
HETATM    6  C12 UNL     1      28.587  -1.434  53.530  1.00  0.00     0.122 C 
HETATM    7  C13 UNL     1      29.260  -0.339  54.274  1.00  0.00     0.046 C 
HETATM    8  C14 UNL     1      29.331   0.959  53.535  1.00  0.00     0.169 C 
HETATM    9  O1  UNL     1      28.422   1.822  54.146  1.00  0.00    -0.386 OA
HETATM   10  C15 UNL     1      27.441   2.120  53.230  1.00  0.00     0.209 C 
HETATM   11  H11 UNL     1      26.917  -2.084  52.633  1.00  0.00     0.159 HD
ENDROOT
BRANCH   1  12
HETATM   12  C1  UNL     1      22.961  -0.900  53.023  1.00  0.00     0.324 C 
BRANCH  12  13
HETATM   13  N1  UNL     1      21.856  -0.845  53.943  1.00  0.00     0.083 N 
HETATM   14  H1  UNL     1      20.985  -0.452  53.526  1.00  0.00     0.313 HD
HETATM   15  H2  UNL     1      21.610  -1.733  54.396  1.00  0.00     0.313 HD
ENDBRANCH  12  13
ENDBRANCH   1  12
BRANCH   1  16
HETATM   16  N2  UNL     1      23.011   1.636  53.105  1.00  0.00    -0.357 N 
HETATM   17  H5  UNL     1      22.329   2.023  53.805  1.00  0.00     0.166 HD
BRANCH  16  18
HETATM   18  C3  UNL     1      23.298   2.510  51.997  1.00  0.00     0.034 A 
HETATM   19  C4  UNL     1      23.061   2.110  50.690  1.00  0.00     0.032 A 
HETATM   20  C5  UNL     1      23.303   2.870  49.578  1.00  0.00     0.047 A 
HETATM   21  C6  UNL     1      23.821   4.132  49.759  1.00  0.00     0.142 A 
HETATM   22  F1  UNL     1      24.058   4.881  48.642  1.00  0.00    -0.204 F 
HETATM   23  C7  UNL     1      24.074   4.571  51.052  1.00  0.00     0.067 A 
HETATM   24  C8  UNL     1      23.824   3.791  52.157  1.00  0.00     0.061 A 
BRANCH  23  25
HETATM   25  N3  UNL     1      24.610   5.882  51.171  1.00  0.00    -0.397 N 
HETATM   26  H8  UNL     1      24.983   6.084  52.132  1.00  0.00     0.156 HD
HETATM   27  H9  UNL     1      24.802   6.773  50.692  1.00  0.00     0.156 HD
ENDBRANCH  23  25
ENDBRANCH  16  18
ENDBRANCH   1  16
TORSDOF 5
ENDMDL
MODEL 8
REMARK VINA RESULT:      -7.0      3.509      6.992
REMARK  5 active torsions:
REMARK  status: ('A' for Active; 'I' for Inactive)
REMARK    1  A    between atoms: N1_1  and  C1_2 
REMARK    2  A    between atoms: C1_2  and  C2_3 
REMARK    3  A    between atoms: C2_3  and  N2_4 
REMARK    4  A    between atoms: N2_4  and  C3_5 
REMARK    5  A    between atoms: C7_10  and  N3_11 
ROOT
HETATM    1  C2  UNL     1      23.216   0.085  53.178  1.00  0.00     0.051 C 
HETATM    2  C9  UNL     1      24.477   0.507  53.158  1.00  0.00     0.026 A 
HETATM    3  C10 UNL     1      25.756   1.197  53.069  1.00  0.00     0.007 A 
HETATM    4  C11 UNL     1      25.818  -0.065  53.406  1.00  0.00     0.050 A 
HETATM    5  N4  UNL     1      26.962  -0.893  53.705  1.00  0.00    -0.389 N 
HETATM    6  C12 UNL     1      28.286  -0.803  54.187  1.00  0.00     0.122 C 
HETATM    7  C13 UNL     1      28.765   0.547  54.583  1.00  0.00     0.046 C 
HETATM    8  C14 UNL     1      28.696   1.571  53.495  1.00  0.00     0.169 C 
HETATM    9  O1  UNL     1      27.648   2.433  53.817  1.00  0.00    -0.386 OA
HETATM   10  C15 UNL     1      26.684   2.307  52.845  1.00  0.00     0.209 C 
HETATM   11  H11 UNL     1      26.768  -1.919  53.506  1.00  0.00     0.159 HD
ENDROOT
BRANCH   1  12
HETATM   12  C1  UNL     1      22.672  -1.260  53.495  1.00  0.00     0.324 C 
BRANCH  12  13
HETATM   13  N1  UNL     1      22.348  -1.304  54.895  1.00  0.00     0.083 N 
HETATM   14  H1  UNL     1      22.365  -2.266  55.298  1.00  0.00     0.313 HD
HETATM   15  H2  UNL     1      22.918  -0.703  55.503  1.00  0.00     0.313 HD
ENDBRANCH  12  13
ENDBRANCH   1  12
BRANCH   1  16
HETATM   16  N2  UNL     1      22.374   1.171  52.828  1.00  0.00    -0.357 N 
HETATM   17  H5  UNL     1      21.758   1.773  53.431  1.00  0.00     0.166 HD
BRANCH  16  18
HETATM   18  C3  UNL     1      22.355   1.504  51.426  1.00  0.00     0.034 A 
HETATM   19  C4  UNL     1      21.618   0.752  50.523  1.00  0.00     0.032 A 
HETATM   20  C5  UNL     1      21.542   0.992  49.177  1.00  0.00     0.047 A 
HETATM   21  C6  UNL     1      22.247   2.060  48.671  1.00  0.00     0.142 A 
HETATM   22  F1  UNL     1      22.163   2.290  47.328  1.00  0.00    -0.204 F 
HETATM   23  C7  UNL     1      22.998   2.838  49.543  1.00  0.00     0.067 A 
HETATM   24  C8  UNL     1      23.061   2.580  50.892  1.00  0.00     0.061 A 
BRANCH  23  25
HETATM   25  N3  UNL     1      23.703   3.924  48.958  1.00  0.00    -0.397 N 
HETATM   26  H8  UNL     1      24.630   4.103  49.418  1.00  0.00     0.156 HD
HETATM   27  H9  UNL     1      23.697   4.656  48.233  1.00  0.00     0.156 HD
ENDBRANCH  23  25
ENDBRANCH  16  18
ENDBRANCH   1  16
TORSDOF 5
ENDMDL
MODEL 9
REMARK VINA RESULT:      -6.9      3.717      5.437
REMARK  5 active torsions:
REMARK  status: ('A' for Active; 'I' for Inactive)
REMARK    1  A    between atoms: N1_1  and  C1_2 
REMARK    2  A    between atoms: C1_2  and  C2_3 
REMARK    3  A    between atoms: C2_3  and  N2_4 
REMARK    4  A    between atoms: N2_4  and  C3_5 
REMARK    5  A    between atoms: C7_10  and  N3_11 
ROOT
HETATM    1  C2  UNL     1      24.801   2.864  51.707  1.00  0.00     0.051 C 
HETATM    2  C9  UNL     1      24.879   3.987  50.999  1.00  0.00     0.026 A 
HETATM    3  C10 UNL     1      25.132   5.085  50.077  1.00  0.00     0.007 A 
HETATM    4  C11 UNL     1      24.285   5.341  51.041  1.00  0.00     0.050 A 
HETATM    5  N4  UNL     1      23.555   6.549  51.340  1.00  0.00    -0.389 N 
HETATM    6  C12 UNL     1      23.035   7.702  50.712  1.00  0.00     0.122 C 
HETATM    7  C13 UNL     1      23.208   7.799  49.240  1.00  0.00     0.046 C 
HETATM    8  C14 UNL     1      24.630   7.736  48.779  1.00  0.00     0.169 C 
HETATM    9  O1  UNL     1      24.807   6.489  48.181  1.00  0.00    -0.386 OA
HETATM   10  C15 UNL     1      25.719   5.787  48.933  1.00  0.00     0.209 C 
HETATM   11  H11 UNL     1      23.315   6.618  52.373  1.00  0.00     0.159 HD
ENDROOT
BRANCH   1  12
HETATM   12  C1  UNL     1      23.994   2.562  52.916  1.00  0.00     0.324 C 
BRANCH  12  13
HETATM   13  N1  UNL     1      22.963   1.625  52.557  1.00  0.00     0.083 N 
HETATM   14  H1  UNL     1      23.136   1.141  51.649  1.00  0.00     0.313 HD
HETATM   15  H2  UNL     1      22.754   0.904  53.258  1.00  0.00     0.313 HD
ENDBRANCH  12  13
ENDBRANCH   1  12
BRANCH   1  16
HETATM   16  N2  UNL     1      25.658   1.901  51.118  1.00  0.00    -0.357 N 
HETATM   17  H5  UNL     1      25.690   1.534  50.133  1.00  0.00     0.166 HD
BRANCH  16  18
HETATM   18  C3  UNL     1      26.641   1.332  52.004  1.00  0.00     0.034 A 
HETATM   19  C4  UNL     1      26.736  -0.040  52.181  1.00  0.00     0.032 A 
HETATM   20  C5  UNL     1      27.635  -0.668  53.001  1.00  0.00     0.047 A 
HETATM   21  C6  UNL     1      28.518   0.115  53.708  1.00  0.00     0.142 A 
HETATM   22  F1  UNL     1      29.411  -0.522  54.523  1.00  0.00    -0.204 F 
HETATM   23  C7  UNL     1      28.457   1.495  53.560  1.00  0.00     0.067 A 
HETATM   24  C8  UNL     1      27.545   2.106  52.731  1.00  0.00     0.061 A 
BRANCH  23  25
HETATM   25  N3  UNL     1      29.394   2.245  54.318  1.00  0.00    -0.397 N 
HETATM   26  H8  UNL     1      30.390   1.978  54.116  1.00  0.00     0.156 HD
HETATM   27  H9  UNL     1      29.527   2.985  55.023  1.00  0.00     0.156 HD
ENDBRANCH  23  25
ENDBRANCH  16  18
ENDBRANCH   1  16
TORSDOF 5
ENDMDL
