MODEL 1
REMARK VINA RESULT:      -7.1      0.000      0.000
REMARK  5 active torsions:
REMARK  status: ('A' for Active; 'I' for Inactive)
REMARK    1  A    between atoms: O1_2  and  C2_3 
REMARK    2  A    between atoms: C5_6  and  C6_7 
REMARK    3  A    between atoms: C6_7  and  N1_9 
REMARK    4  A    between atoms: N1_9  and  C8_11 
REMARK    5  A    between atoms: C15_18  and  O2_19 
ROOT
HETATM    1  C2  UNL     1      26.703  -0.190  53.972  1.00  0.00     0.098 A 
HETATM    2  C3  UNL     1      25.608  -0.817  53.582  1.00  0.00     0.017 A 
HETATM    3  C4  UNL     1      24.286  -0.291  53.148  1.00  0.00     0.072 A 
HETATM    4  C5  UNL     1      24.358   1.188  53.212  1.00  0.00    -0.013 A 
HETATM    5  C14 UNL     1      25.515   1.935  53.626  1.00  0.00     0.050 A 
HETATM    6  C15 UNL     1      26.609   1.281  53.980  1.00  0.00     0.101 A 
ENDROOT
BRANCH   4   7
HETATM    7  C6  UNL     1      23.162   1.636  52.818  1.00  0.00     0.112 C 
HETATM    8 CL1  UNL     1      21.915   0.729  53.672  1.00  0.00    -0.064 Cl
BRANCH   7   9
HETATM    9  N1  UNL     1      22.801   2.651  51.889  1.00  0.00    -0.341 N 
HETATM   10  C7  UNL     1      22.689   4.002  52.383  1.00  0.00     0.157 C 
BRANCH   9  11
HETATM   11  C8  UNL     1      22.561   2.331  50.524  1.00  0.00     0.035 A 
HETATM   12  C9  UNL     1      21.705   1.304  50.201  1.00  0.00     0.029 A 
HETATM   13  C10 UNL     1      21.455   0.975  48.874  1.00  0.00     0.002 A 
HETATM   14  C11 UNL     1      22.125   1.746  47.927  1.00  0.00     0.000 A 
HETATM   15  C12 UNL     1      23.000   2.794  48.215  1.00  0.00     0.002 A 
HETATM   16  C13 UNL     1      23.193   3.056  49.539  1.00  0.00     0.029 A 
ENDBRANCH   9  11
ENDBRANCH   7   9
ENDBRANCH   4   7
BRANCH   6  17
HETATM   17  O2  UNL     1      27.682   2.083  54.366  1.00  0.00    -0.353 OA
HETATM   18  C16 UNL     1      28.678   2.562  53.515  1.00  0.00     0.210 C 
ENDBRANCH   6  17
BRANCH   1  19
HETATM   19  O1  UNL     1      27.913  -0.694  54.369  1.00  0.00    -0.353 OA
HETATM   20  C1  UNL     1      28.891  -1.146  53.471  1.00  0.00     0.210 C 
ENDBRANCH   1  19
TORSDOF 5
ENDMDL
MODEL 2
REMARK VINA RESULT:      -6.8      3.105      6.445
REMARK  5 active torsions:
REMARK  status: ('A' for Active; 'I' for Inactive)
REMARK    1  A    between atoms: O1_2  and  C2_3 
REMARK    2  A    between atoms: C5_6  and  C6_7 
REMARK    3  A    between atoms: C6_7  and  N1_9 
REMARK    4  A    between atoms: N1_9  and  C8_11 
REMARK    5  A    between atoms: C15_18  and  O2_19 
ROOT
HETATM    1  C2  UNL     1      21.132   0.423  52.126  1.00  0.00     0.098 A 
HETATM    2  C3  UNL     1      21.361  -0.169  53.284  1.00  0.00     0.017 A 
HETATM    3  C4  UNL     1      22.625  -0.381  54.038  1.00  0.00     0.072 A 
HETATM    4  C5  UNL     1      23.720   0.222  53.240  1.00  0.00    -0.013 A 
HETATM    5  C14 UNL     1      23.544   0.880  51.974  1.00  0.00     0.050 A 
HETATM    6  C15 UNL     1      22.328   0.970  51.459  1.00  0.00     0.101 A 
ENDROOT
BRANCH   4   7
HETATM    7  C6  UNL     1      24.842   0.019  53.936  1.00  0.00     0.112 C 
HETATM    8 CL1  UNL     1      24.487  -1.086  55.262  1.00  0.00    -0.064 Cl
BRANCH   7   9
HETATM    9  N1  UNL     1      26.158   0.530  53.761  1.00  0.00    -0.341 N 
HETATM   10  C7  UNL     1      26.328   1.964  53.784  1.00  0.00     0.157 C 
BRANCH   9  11
HETATM   11  C8  UNL     1      27.258  -0.351  53.570  1.00  0.00     0.035 A 
HETATM   12  C9  UNL     1      28.510   0.010  54.010  1.00  0.00     0.029 A 
HETATM   13  C10 UNL     1      29.599  -0.836  53.834  1.00  0.00     0.002 A 
HETATM   14  C11 UNL     1      29.325  -2.042  53.194  1.00  0.00     0.000 A 
HETATM   15  C12 UNL     1      28.071  -2.443  52.734  1.00  0.00     0.002 A 
HETATM   16  C13 UNL     1      27.054  -1.560  52.944  1.00  0.00     0.029 A 
ENDBRANCH   9  11
ENDBRANCH   7   9
ENDBRANCH   4   7
BRANCH   6  17
HETATM   17  O2  UNL     1      22.249   1.624  50.231  1.00  0.00    -0.353 OA
HETATM   18  C16 UNL     1      23.063   2.682  49.827  1.00  0.00     0.210 C 
ENDBRANCH   6  17
BRANCH   1  19
HETATM   19  O1  UNL     1      19.957   0.608  51.447  1.00  0.00    -0.353 OA
HETATM   20  C1  UNL     1      18.782  -0.101  51.735  1.00  0.00     0.210 C 
ENDBRANCH   1  19
TORSDOF 5
ENDMDL
MODEL 3
REMARK VINA RESULT:      -6.8      2.818      3.549
REMARK  5 active torsions:
REMARK  status: ('A' for Active; 'I' for Inactive)
REMARK    1  A    between atoms: O1_2  and  C2_3 
REMARK    2  A    between atoms: C5_6  and  C6_7 
REMARK    3  A    between atoms: C6_7  and  N1_9 
REMARK    4  A    between atoms: N1_9  and  C8_11 
REMARK    5  A    between atoms: C15_18  and  O2_19 
ROOT
HETATM    1  C2  UNL     1      26.210  -0.271  53.065  1.00  0.00     0.098 A 
HETATM    2  C3  UNL     1      24.942  -0.083  52.747  1.00  0.00     0.017 A 
HETATM    3  C4  UNL     1      24.248   1.097  52.167  1.00  0.00     0.072 A 
HETATM    4  C5  UNL     1      25.267   2.154  51.966  1.00  0.00    -0.013 A 
HETATM    5  C14 UNL     1      26.662   2.018  52.288  1.00  0.00     0.050 A 
HETATM    6  C15 UNL     1      27.095   0.879  52.803  1.00  0.00     0.101 A 
ENDROOT
BRANCH   4   7
HETATM    7  C6  UNL     1      24.621   3.200  51.445  1.00  0.00     0.112 C 
HETATM    8 CL1  UNL     1      23.815   4.068  52.751  1.00  0.00    -0.064 Cl
BRANCH   7   9
HETATM    9  N1  UNL     1      24.509   3.660  50.103  1.00  0.00    -0.341 N 
HETATM   10  C7  UNL     1      23.352   3.245  49.347  1.00  0.00     0.157 C 
BRANCH   9  11
HETATM   11  C8  UNL     1      25.511   4.496  49.539  1.00  0.00     0.035 A 
HETATM   12  C9  UNL     1      26.748   3.976  49.237  1.00  0.00     0.029 A 
HETATM   13  C10 UNL     1      27.742   4.776  48.684  1.00  0.00     0.002 A 
HETATM   14  C11 UNL     1      27.393   6.107  48.469  1.00  0.00     0.000 A 
HETATM   15  C12 UNL     1      26.151   6.670  48.761  1.00  0.00     0.002 A 
HETATM   16  C13 UNL     1      25.229   5.823  49.300  1.00  0.00     0.029 A 
ENDBRANCH   9  11
ENDBRANCH   7   9
ENDBRANCH   4   7
BRANCH   6  17
HETATM   17  O2  UNL     1      28.459   0.834  53.085  1.00  0.00    -0.353 OA
HETATM   18  C16 UNL     1      29.051   1.266  54.272  1.00  0.00     0.210 C 
ENDBRANCH   6  17
BRANCH   1  19
HETATM   19  O1  UNL     1      26.831  -1.368  53.600  1.00  0.00    -0.353 OA
HETATM   20  C1  UNL     1      27.418  -2.376  52.821  1.00  0.00     0.210 C 
ENDBRANCH   1  19
TORSDOF 5
ENDMDL
MODEL 4
REMARK VINA RESULT:      -6.8      1.245      2.324
REMARK  5 active torsions:
REMARK  status: ('A' for Active; 'I' for Inactive)
REMARK    1  A    between atoms: O1_2  and  C2_3 
REMARK    2  A    between atoms: C5_6  and  C6_7 
REMARK    3  A    between atoms: C6_7  and  N1_9 
REMARK    4  A    between atoms: N1_9  and  C8_11 
REMARK    5  A    between atoms: C15_18  and  O2_19 
ROOT
HETATM    1  C2  UNL     1      26.838  -0.073  54.110  1.00  0.00     0.098 A 
HETATM    2  C3  UNL     1      25.820  -0.805  53.693  1.00  0.00     0.017 A 
HETATM    3  C4  UNL     1      24.538  -0.415  53.049  1.00  0.00     0.072 A 
HETATM    4  C5  UNL     1      24.542   1.062  52.918  1.00  0.00    -0.013 A 
HETATM    5  C14 UNL     1      25.614   1.919  53.349  1.00  0.00     0.050 A 
HETATM    6  C15 UNL     1      26.685   1.379  53.907  1.00  0.00     0.101 A 
ENDROOT
BRANCH   4   7
HETATM    7  C6  UNL     1      23.384   1.388  52.339  1.00  0.00     0.112 C 
HETATM    8 CL1  UNL     1      22.067   0.866  53.389  1.00  0.00    -0.064 Cl
BRANCH   7   9
HETATM    9  N1  UNL     1      23.103   2.038  51.106  1.00  0.00    -0.341 N 
HETATM   10  C7  UNL     1      22.147   1.413  50.221  1.00  0.00     0.157 C 
BRANCH   9  11
HETATM   11  C8  UNL     1      23.748   3.259  50.767  1.00  0.00     0.035 A 
HETATM   12  C9  UNL     1      24.706   3.277  49.781  1.00  0.00     0.029 A 
HETATM   13  C10 UNL     1      25.350   4.460  49.433  1.00  0.00     0.002 A 
HETATM   14  C11 UNL     1      24.956   5.590  50.146  1.00  0.00     0.000 A 
HETATM   15  C12 UNL     1      23.990   5.612  51.152  1.00  0.00     0.002 A 
HETATM   16  C13 UNL     1      23.404   4.413  51.435  1.00  0.00     0.029 A 
ENDBRANCH   9  11
ENDBRANCH   7   9
ENDBRANCH   4   7
BRANCH   6  17
HETATM   17  O2  UNL     1      27.674   2.282  54.294  1.00  0.00    -0.353 OA
HETATM   18  C16 UNL     1      28.795   2.623  53.538  1.00  0.00     0.210 C 
ENDBRANCH   6  17
BRANCH   1  19
HETATM   19  O1  UNL     1      28.013  -0.454  54.701  1.00  0.00    -0.353 OA
HETATM   20  C1  UNL     1      29.132  -0.890  53.978  1.00  0.00     0.210 C 
ENDBRANCH   1  19
TORSDOF 5
ENDMDL
MODEL 5
REMARK VINA RESULT:      -6.7      2.830      4.847
REMARK  5 active torsions:
REMARK  status: ('A' for Active; 'I' for Inactive)
REMARK    1  A    between atoms: O1_2  and  C2_3 
REMARK    2  A    between atoms: C5_6  and  C6_7 
REMARK    3  A    between atoms: C6_7  and  N1_9 
REMARK    4  A    between atoms: N1_9  and  C8_11 
REMARK    5  A    between atoms: C15_18  and  O2_19 
ROOT
HETATM    1  C2  UNL     1      26.167   3.646  49.771  1.00  0.00     0.098 A 
HETATM    2  C3  UNL     1      24.996   3.859  49.197  1.00  0.00     0.017 A 
HETATM    3  C4  UNL     1      23.649   3.306  49.496  1.00  0.00     0.072 A 
HETATM    4  C5  UNL     1      23.797   2.384  50.647  1.00  0.00    -0.013 A 
HETATM    5  C14 UNL     1      25.037   2.106  51.320  1.00  0.00     0.050 A 
HETATM    6  C15 UNL     1      26.142   2.702  50.903  1.00  0.00     0.101 A 
ENDROOT
BRANCH   4   7
HETATM    7  C6  UNL     1      22.576   1.902  50.896  1.00  0.00     0.112 C 
HETATM    8 CL1  UNL     1      21.954   1.163  49.422  1.00  0.00    -0.064 Cl
BRANCH   7   9
HETATM    9  N1  UNL     1      21.790   1.907  52.082  1.00  0.00    -0.341 N 
HETATM   10  C7  UNL     1      21.084   3.122  52.413  1.00  0.00     0.157 C 
BRANCH   9  11
HETATM   11  C8  UNL     1      21.713   0.749  52.905  1.00  0.00     0.035 A 
HETATM   12  C9  UNL     1      22.851   0.252  53.497  1.00  0.00     0.029 A 
HETATM   13  C10 UNL     1      22.799  -0.878  54.306  1.00  0.00     0.002 A 
HETATM   14  C11 UNL     1      21.537  -1.448  54.460  1.00  0.00     0.000 A 
HETATM   15  C12 UNL     1      20.363  -0.974  53.877  1.00  0.00     0.002 A 
HETATM   16  C13 UNL     1      20.495   0.138  53.099  1.00  0.00     0.029 A 
ENDBRANCH   9  11
ENDBRANCH   7   9
ENDBRANCH   4   7
BRANCH   6  17
HETATM   17  O2  UNL     1      27.297   2.375  51.611  1.00  0.00    -0.353 OA
HETATM   18  C16 UNL     1      27.340   1.992  52.952  1.00  0.00     0.210 C 
ENDBRANCH   6  17
BRANCH   1  19
HETATM   19  O1  UNL     1      27.399   4.167  49.480  1.00  0.00    -0.353 OA
HETATM   20  C1  UNL     1      27.598   5.207  48.560  1.00  0.00     0.210 C 
ENDBRANCH   1  19
TORSDOF 5
ENDMDL
MODEL 6
REMARK VINA RESULT:      -6.7      2.996      4.141
REMARK  5 active torsions:
REMARK  status: ('A' for Active; 'I' for Inactive)
REMARK    1  A    between atoms: O1_2  and  C2_3 
REMARK    2  A    between atoms: C5_6  and  C6_7 
REMARK    3  A    between atoms: C6_7  and  N1_9 
REMARK    4  A    between atoms: N1_9  and  C8_11 
REMARK    5  A    between atoms: C15_18  and  O2_19 
ROOT
HETATM    1  C2  UNL     1      26.119  -0.264  52.845  1.00  0.00     0.098 A 
HETATM    2  C3  UNL     1      26.776   0.643  52.144  1.00  0.00     0.017 A 
HETATM    3  C4  UNL     1      26.314   1.903  51.505  1.00  0.00     0.072 A 
HETATM    4  C5  UNL     1      24.864   2.031  51.781  1.00  0.00    -0.013 A 
HETATM    5  C14 UNL     1      24.087   1.085  52.535  1.00  0.00     0.050 A 
HETATM    6  C15 UNL     1      24.683   0.012  53.030  1.00  0.00     0.101 A 
ENDROOT
BRANCH   4   7
HETATM    7  C6  UNL     1      24.473   3.168  51.198  1.00  0.00     0.112 C 
HETATM    8 CL1  UNL     1      23.888   4.266  52.447  1.00  0.00    -0.064 Cl
BRANCH   7   9
HETATM    9  N1  UNL     1      24.469   3.568  49.833  1.00  0.00    -0.341 N 
HETATM   10  C7  UNL     1      23.457   3.002  48.972  1.00  0.00     0.157 C 
BRANCH   9  11
HETATM   11  C8  UNL     1      25.435   4.491  49.346  1.00  0.00     0.035 A 
HETATM   12  C9  UNL     1      26.732   4.081  49.140  1.00  0.00     0.029 A 
HETATM   13  C10 UNL     1      27.692   4.967  48.664  1.00  0.00     0.002 A 
HETATM   14  C11 UNL     1      27.246   6.264  48.422  1.00  0.00     0.000 A 
HETATM   15  C12 UNL     1      25.941   6.717  48.618  1.00  0.00     0.002 A 
HETATM   16  C13 UNL     1      25.058   5.790  49.086  1.00  0.00     0.029 A 
ENDBRANCH   9  11
ENDBRANCH   7   9
ENDBRANCH   4   7
BRANCH   6  17
HETATM   17  O2  UNL     1      23.856  -0.851  53.746  1.00  0.00    -0.353 OA
HETATM   18  C16 UNL     1      22.520  -0.609  54.063  1.00  0.00     0.210 C 
ENDBRANCH   6  17
BRANCH   1  19
HETATM   19  O1  UNL     1      26.565  -1.421  53.427  1.00  0.00    -0.353 OA
HETATM   20  C1  UNL     1      27.320  -2.385  52.744  1.00  0.00     0.210 C 
ENDBRANCH   1  19
TORSDOF 5
ENDMDL
MODEL 7
REMARK VINA RESULT:      -6.7      3.140      4.436
REMARK  5 active torsions:
REMARK  status: ('A' for Active; 'I' for Inactive)
REMARK    1  A    between atoms: O1_2  and  C2_3 
REMARK    2  A    between atoms: C5_6  and  C6_7 
REMARK    3  A    between atoms: C6_7  and  N1_9 
REMARK    4  A    between atoms: N1_9  and  C8_11 
REMARK    5  A    between atoms: C15_18  and  O2_19 
ROOT
HETATM    1  C2  UNL     1      22.899  -0.146  53.088  1.00  0.00     0.098 A 
HETATM    2  C3  UNL     1      22.019   0.522  52.364  1.00  0.00     0.017 A 
HETATM    3  C4  UNL     1      22.188   1.679  51.447  1.00  0.00     0.072 A 
HETATM    4  C5  UNL     1      23.628   2.032  51.444  1.00  0.00    -0.013 A 
HETATM    5  C14 UNL     1      24.640   1.350  52.205  1.00  0.00     0.050 A 
HETATM    6  C15 UNL     1      24.290   0.331  52.973  1.00  0.00     0.101 A 
ENDROOT
BRANCH   4   7
HETATM    7  C6  UNL     1      23.755   3.071  50.615  1.00  0.00     0.112 C 
HETATM    8 CL1  UNL     1      23.117   2.611  49.037  1.00  0.00    -0.064 Cl
BRANCH   7   9
HETATM    9  N1  UNL     1      24.286   4.375  50.821  1.00  0.00    -0.341 N 
HETATM   10  C7  UNL     1      23.697   5.182  51.863  1.00  0.00     0.157 C 
BRANCH   9  11
HETATM   11  C8  UNL     1      25.359   4.855  50.020  1.00  0.00     0.035 A 
HETATM   12  C9  UNL     1      25.388   6.174  49.632  1.00  0.00     0.029 A 
HETATM   13  C10 UNL     1      26.428   6.664  48.849  1.00  0.00     0.002 A 
HETATM   14  C11 UNL     1      27.406   5.737  48.500  1.00  0.00     0.000 A 
HETATM   15  C12 UNL     1      27.412   4.393  48.873  1.00  0.00     0.002 A 
HETATM   16  C13 UNL     1      26.360   3.988  49.640  1.00  0.00     0.029 A 
ENDBRANCH   9  11
ENDBRANCH   7   9
ENDBRANCH   4   7
BRANCH   6  17
HETATM   17  O2  UNL     1      25.332  -0.271  53.675  1.00  0.00    -0.353 OA
HETATM   18  C16 UNL     1      26.231   0.393  54.510  1.00  0.00     0.210 C 
ENDBRANCH   6  17
BRANCH   1  19
HETATM   19  O1  UNL     1      22.722  -1.212  53.929  1.00  0.00    -0.353 OA
HETATM   20  C1  UNL     1      21.469  -1.603  54.422  1.00  0.00     0.210 C 
ENDBRANCH   1  19
TORSDOF 5
ENDMDL
MODEL 8
REMARK VINA RESULT:      -6.6      1.933      2.888
REMARK  5 active torsions:
REMARK  status: ('A' for Active; 'I' for Inactive)
REMARK    1  A    between atoms: O1_2  and  C2_3 
REMARK    2  A    between atoms: C5_6  and  C6_7 
REMARK    3  A    between atoms: C6_7  and  N1_9 
REMARK    4  A    between atoms: N1_9  and  C8_11 
REMARK    5  A    between atoms: C15_18  and  O2_19 
ROOT
HETATM    1  C2  UNL     1      27.665   0.266  53.724  1.00  0.00     0.098 A 
HETATM    2  C3  UNL     1      27.909   1.162  52.784  1.00  0.00     0.017 A 
HETATM    3  C4  UNL     1      26.990   2.026  51.999  1.00  0.00     0.072 A 
HETATM    4  C5  UNL     1      25.610   1.727  52.451  1.00  0.00    -0.013 A 
HETATM    5  C14 UNL     1      25.272   0.767  53.467  1.00  0.00     0.050 A 
HETATM    6  C15 UNL     1      26.241   0.087  54.058  1.00  0.00     0.101 A 
ENDROOT
BRANCH   4   7
HETATM    7  C6  UNL     1      24.804   2.514  51.733  1.00  0.00     0.112 C 
HETATM    8 CL1  UNL     1      25.666   3.024  50.283  1.00  0.00    -0.064 Cl
BRANCH   7   9
HETATM    9  N1  UNL     1      23.470   2.951  51.966  1.00  0.00    -0.341 N 
HETATM   10  C7  UNL     1      23.284   4.278  52.504  1.00  0.00     0.157 C 
BRANCH   9  11
HETATM   11  C8  UNL     1      22.369   2.100  51.676  1.00  0.00     0.035 A 
HETATM   12  C9  UNL     1      21.379   1.915  52.613  1.00  0.00     0.029 A 
HETATM   13  C10 UNL     1      20.293   1.088  52.351  1.00  0.00     0.002 A 
HETATM   14  C11 UNL     1      20.290   0.479  51.098  1.00  0.00     0.000 A 
HETATM   15  C12 UNL     1      21.274   0.641  50.122  1.00  0.00     0.002 A 
HETATM   16  C13 UNL     1      22.306   1.467  50.454  1.00  0.00     0.029 A 
ENDBRANCH   9  11
ENDBRANCH   7   9
ENDBRANCH   4   7
BRANCH   6  17
HETATM   17  O2  UNL     1      25.823  -0.820  55.030  1.00  0.00    -0.353 OA
HETATM   18  C16 UNL     1      24.503  -1.208  55.257  1.00  0.00     0.210 C 
ENDBRANCH   6  17
BRANCH   1  19
HETATM   19  O1  UNL     1      28.529  -0.521  54.436  1.00  0.00    -0.353 OA
HETATM   20  C1  UNL     1      29.701  -1.067  53.892  1.00  0.00     0.210 C 
ENDBRANCH   1  19
TORSDOF 5
ENDMDL
MODEL 9
REMARK VINA RESULT:      -6.6      3.147      6.141
REMARK  5 active torsions:
REMARK  status: ('A' for Active; 'I' for Inactive)
REMARK    1  A    between atoms: O1_2  and  C2_3 
REMARK    2  A    between atoms: C5_6  and  C6_7 
REMARK    3  A    between atoms: C6_7  and  N1_9 
REMARK    4  A    between atoms: N1_9  and  C8_11 
REMARK    5  A    between atoms: C15_18  and  O2_19 
ROOT
HETATM    1  C2  UNL     1      21.114   0.393  51.640  1.00  0.00     0.098 A 
HETATM    2  C3  UNL     1      21.673   1.352  50.924  1.00  0.00     0.017 A 
HETATM    3  C4  UNL     1      22.970   2.061  51.088  1.00  0.00     0.072 A 
HETATM    4  C5  UNL     1      23.632   1.496  52.287  1.00  0.00    -0.013 A 
HETATM    5  C14 UNL     1      23.083   0.453  53.111  1.00  0.00     0.050 A 
HETATM    6  C15 UNL     1      21.903  -0.058  52.801  1.00  0.00     0.101 A 
ENDROOT
BRANCH   4   7
HETATM    7  C6  UNL     1      24.792   2.147  52.413  1.00  0.00     0.112 C 
HETATM    8 CL1  UNL     1      24.550   3.518  53.494  1.00  0.00    -0.064 Cl
BRANCH   7   9
HETATM    9  N1  UNL     1      26.072   1.900  51.843  1.00  0.00    -0.341 N 
HETATM   10  C7  UNL     1      26.450   2.675  50.685  1.00  0.00     0.157 C 
BRANCH   9  11
HETATM   11  C8  UNL     1      26.937   0.920  52.403  1.00  0.00     0.035 A 
HETATM   12  C9  UNL     1      26.665  -0.416  52.226  1.00  0.00     0.029 A 
HETATM   13  C10 UNL     1      27.498  -1.391  52.764  1.00  0.00     0.002 A 
HETATM   14  C11 UNL     1      28.596  -0.917  53.477  1.00  0.00     0.000 A 
HETATM   15  C12 UNL     1      28.905   0.428  53.678  1.00  0.00     0.002 A 
HETATM   16  C13 UNL     1      28.042   1.324  53.119  1.00  0.00     0.029 A 
ENDBRANCH   9  11
ENDBRANCH   7   9
ENDBRANCH   4   7
BRANCH   6  17
HETATM   17  O2  UNL     1      21.447  -1.063  53.652  1.00  0.00    -0.353 OA
HETATM   18  C16 UNL     1      22.156  -1.587  54.733  1.00  0.00     0.210 C 
ENDBRANCH   6  17
BRANCH   1  19
HETATM   19  O1  UNL     1      19.916  -0.249  51.471  1.00  0.00    -0.353 OA
HETATM   20  C1  UNL     1      18.680   0.336  51.780  1.00  0.00     0.210 C 
ENDBRANCH   1  19
TORSDOF 5
ENDMDL
