MODEL 1
REMARK VINA RESULT:      -8.0      0.000      0.000
REMARK  4 active torsions:
REMARK  status: ('A' for Active; 'I' for Inactive)
REMARK    1  A    between atoms: O1_2  and  C2_3 
REMARK    2  A    between atoms: C5_6  and  N1_7 
REMARK    3  A    between atoms: N1_7  and  C6_8 
REMARK    4  A    between atoms: C15_21  and  O2_22 
ROOT
HETATM    1  C2  UNL     1      22.744   0.914  52.902  1.00  0.00     0.103 A 
HETATM    2  C3  UNL     1      24.109   1.113  53.061  1.00  0.00     0.057 A 
HETATM    3  C4  UNL     1      24.873   1.789  52.139  1.00  0.00     0.042 A 
HETATM    4  C5  UNL     1      26.221   1.934  52.387  1.00  0.00     0.141 A 
HETATM    5  N2  UNL     1      27.017   2.587  51.520  1.00  0.00    -0.224 NA
HETATM    6  C11 UNL     1      26.436   3.094  50.394  1.00  0.00     0.236 A 
HETATM    7  N3  UNL     1      25.111   2.954  50.146  1.00  0.00    -0.240 NA
HETATM    8  C12 UNL     1      24.294   2.305  50.997  1.00  0.00     0.081 A 
HETATM    9  C13 UNL     1      22.940   2.126  50.806  1.00  0.00     0.004 A 
HETATM   10  C14 UNL     1      22.324   2.684  49.578  1.00  0.00     0.054 C 
HETATM   11  C15 UNL     1      22.183   1.446  51.737  1.00  0.00     0.109 A 
ENDROOT
BRANCH   4  12
HETATM   12  N1  UNL     1      26.891   1.434  53.536  1.00  0.00    -0.342 N 
HETATM   13  H5  UNL     1      26.731   1.608  54.552  1.00  0.00     0.167 HD
BRANCH  12  14
HETATM   14  C6  UNL     1      27.989   0.531  53.527  1.00  0.00     0.039 A 
HETATM   15  C7  UNL     1      27.775  -0.732  53.202  1.00  0.00     0.095 A 
HETATM   16 CL1  UNL     1      26.298  -1.565  52.749  1.00  0.00    -0.079 Cl
HETATM   17  C8  UNL     1      29.064  -1.451  53.270  1.00  0.00     0.136 A 
HETATM   18  F1  UNL     1      29.290  -2.778  53.008  1.00  0.00    -0.205 F 
HETATM   19  C9  UNL     1      30.014  -0.596  53.633  1.00  0.00     0.023 A 
HETATM   20  C10 UNL     1      29.428   0.756  53.835  1.00  0.00     0.089 A 
ENDBRANCH  12  14
ENDBRANCH   4  12
BRANCH   1  21
HETATM   21  O1  UNL     1      21.959   0.230  53.829  1.00  0.00    -0.353 OA
HETATM   22  C1  UNL     1      22.196  -1.181  53.891  1.00  0.00     0.210 C 
ENDBRANCH   1  21
BRANCH  11  23
HETATM   23  O2  UNL     1      20.818   1.253  51.570  1.00  0.00    -0.352 OA
HETATM   24  C16 UNL     1      19.938   2.205  52.168  1.00  0.00     0.210 C 
ENDBRANCH  11  23
TORSDOF 4
ENDMDL
MODEL 2
REMARK VINA RESULT:      -7.8      2.067      3.630
REMARK  4 active torsions:
REMARK  status: ('A' for Active; 'I' for Inactive)
REMARK    1  A    between atoms: O1_2  and  C2_3 
REMARK    2  A    between atoms: C5_6  and  N1_7 
REMARK    3  A    between atoms: N1_7  and  C6_8 
REMARK    4  A    between atoms: C15_21  and  O2_22 
ROOT
HETATM    1  C2  UNL     1      22.761   1.335  51.514  1.00  0.00     0.103 A 
HETATM    2  C3  UNL     1      23.895   0.910  52.194  1.00  0.00     0.057 A 
HETATM    3  C4  UNL     1      23.836   0.130  53.325  1.00  0.00     0.042 A 
HETATM    4  C5  UNL     1      25.019  -0.240  53.927  1.00  0.00     0.141 A 
HETATM    5  N2  UNL     1      25.020  -1.002  55.036  1.00  0.00    -0.224 NA
HETATM    6  C11 UNL     1      23.810  -1.391  55.533  1.00  0.00     0.236 A 
HETATM    7  N3  UNL     1      22.644  -1.029  54.943  1.00  0.00    -0.240 NA
HETATM    8  C12 UNL     1      22.616  -0.266  53.835  1.00  0.00     0.081 A 
HETATM    9  C13 UNL     1      21.468   0.136  53.185  1.00  0.00     0.004 A 
HETATM   10  C14 UNL     1      20.161  -0.294  53.737  1.00  0.00     0.054 C 
HETATM   11  C15 UNL     1      21.539   0.919  52.052  1.00  0.00     0.109 A 
ENDROOT
BRANCH   4  12
HETATM   12  N1  UNL     1      26.312   0.127  53.465  1.00  0.00    -0.342 N 
HETATM   13  H5  UNL     1      26.682   1.039  53.121  1.00  0.00     0.167 HD
BRANCH  12  14
HETATM   14  C6  UNL     1      27.436  -0.738  53.377  1.00  0.00     0.039 A 
HETATM   15  C7  UNL     1      28.592  -0.337  53.877  1.00  0.00     0.095 A 
HETATM   16 CL1  UNL     1      29.035   1.159  54.682  1.00  0.00    -0.079 Cl
HETATM   17  C8  UNL     1      29.586  -1.407  53.658  1.00  0.00     0.136 A 
HETATM   18  F1  UNL     1      30.908  -1.399  54.023  1.00  0.00    -0.205 F 
HETATM   19  C9  UNL     1      28.996  -2.420  53.034  1.00  0.00     0.023 A 
HETATM   20  C10 UNL     1      27.565  -2.100  52.790  1.00  0.00     0.089 A 
ENDBRANCH  12  14
ENDBRANCH   4  12
BRANCH   1  21
HETATM   21  O1  UNL     1      22.809   2.126  50.368  1.00  0.00    -0.353 OA
HETATM   22  C1  UNL     1      23.550   3.344  50.509  1.00  0.00     0.210 C 
ENDBRANCH   1  21
BRANCH  11  23
HETATM   23  O2  UNL     1      20.399   1.338  51.379  1.00  0.00    -0.352 OA
HETATM   24  C16 UNL     1      19.814   2.577  51.780  1.00  0.00     0.210 C 
ENDBRANCH  11  23
TORSDOF 4
ENDMDL
MODEL 3
REMARK VINA RESULT:      -7.4      4.124      6.422
REMARK  4 active torsions:
REMARK  status: ('A' for Active; 'I' for Inactive)
REMARK    1  A    between atoms: O1_2  and  C2_3 
REMARK    2  A    between atoms: C5_6  and  N1_7 
REMARK    3  A    between atoms: N1_7  and  C6_8 
REMARK    4  A    between atoms: C15_21  and  O2_22 
ROOT
HETATM    1  C2  UNL     1      25.700   1.864  53.657  1.00  0.00     0.103 A 
HETATM    2  C3  UNL     1      25.076   3.021  53.211  1.00  0.00     0.057 A 
HETATM    3  C4  UNL     1      23.782   3.035  52.744  1.00  0.00     0.042 A 
HETATM    4  C5  UNL     1      23.253   4.237  52.323  1.00  0.00     0.141 A 
HETATM    5  N2  UNL     1      21.992   4.309  51.856  1.00  0.00    -0.224 NA
HETATM    6  C11 UNL     1      21.269   3.153  51.817  1.00  0.00     0.236 A 
HETATM    7  N3  UNL     1      21.786   1.969  52.230  1.00  0.00    -0.240 NA
HETATM    8  C12 UNL     1      23.043   1.870  52.700  1.00  0.00     0.081 A 
HETATM    9  C13 UNL     1      23.631   0.701  53.136  1.00  0.00     0.004 A 
HETATM   10  C14 UNL     1      22.832  -0.547  53.088  1.00  0.00     0.054 C 
HETATM   11  C15 UNL     1      24.929   0.698  53.603  1.00  0.00     0.109 A 
ENDROOT
BRANCH   4  12
HETATM   12  N1  UNL     1      23.946   5.476  52.335  1.00  0.00    -0.342 N 
HETATM   13  H5  UNL     1      24.425   5.984  53.110  1.00  0.00     0.167 HD
BRANCH  12  14
HETATM   14  C6  UNL     1      24.140   6.328  51.214  1.00  0.00     0.039 A 
HETATM   15  C7  UNL     1      24.942   5.932  50.241  1.00  0.00     0.095 A 
HETATM   16 CL1  UNL     1      25.877   4.458  50.054  1.00  0.00    -0.079 Cl
HETATM   17  C8  UNL     1      24.971   6.988  49.208  1.00  0.00     0.136 A 
HETATM   18  F1  UNL     1      25.677   6.980  48.033  1.00  0.00    -0.205 F 
HETATM   19  C9  UNL     1      24.184   7.986  49.592  1.00  0.00     0.023 A 
HETATM   20  C10 UNL     1      23.572   7.670  50.910  1.00  0.00     0.089 A 
ENDBRANCH  12  14
ENDBRANCH   4  12
BRANCH   1  21
HETATM   21  O1  UNL     1      27.009   1.836  54.133  1.00  0.00    -0.353 OA
HETATM   22  C1  UNL     1      28.003   2.224  53.177  1.00  0.00     0.210 C 
ENDBRANCH   1  21
BRANCH  11  23
HETATM   23  O2  UNL     1      25.544  -0.465  54.048  1.00  0.00    -0.352 OA
HETATM   24  C16 UNL     1      26.338  -1.191  53.110  1.00  0.00     0.210 C 
ENDBRANCH  11  23
TORSDOF 4
ENDMDL
MODEL 4
REMARK VINA RESULT:      -7.3      2.190      3.463
REMARK  4 active torsions:
REMARK  status: ('A' for Active; 'I' for Inactive)
REMARK    1  A    between atoms: O1_2  and  C2_3 
REMARK    2  A    between atoms: C5_6  and  N1_7 
REMARK    3  A    between atoms: N1_7  and  C6_8 
REMARK    4  A    between atoms: C15_21  and  O2_22 
ROOT
HETATM    1  C2  UNL     1      23.644   3.446  50.618  1.00  0.00     0.103 A 
HETATM    2  C3  UNL     1      24.426   2.397  51.085  1.00  0.00     0.057 A 
HETATM    3  C4  UNL     1      23.974   1.491  52.015  1.00  0.00     0.042 A 
HETATM    4  C5  UNL     1      24.827   0.484  52.415  1.00  0.00     0.141 A 
HETATM    5  N2  UNL     1      24.438  -0.430  53.322  1.00  0.00    -0.224 NA
HETATM    6  C11 UNL     1      23.174  -0.319  53.824  1.00  0.00     0.236 A 
HETATM    7  N3  UNL     1      22.332   0.669  53.434  1.00  0.00    -0.240 NA
HETATM    8  C12 UNL     1      22.697   1.596  52.529  1.00  0.00     0.081 A 
HETATM    9  C13 UNL     1      21.892   2.626  52.088  1.00  0.00     0.004 A 
HETATM   10  C14 UNL     1      20.522   2.733  52.642  1.00  0.00     0.054 C 
HETATM   11  C15 UNL     1      22.355   3.529  51.155  1.00  0.00     0.109 A 
ENDROOT
BRANCH   4  12
HETATM   12  N1  UNL     1      26.152   0.308  51.935  1.00  0.00    -0.342 N 
HETATM   13  H5  UNL     1      26.512   0.103  50.978  1.00  0.00     0.167 HD
BRANCH  12  14
HETATM   14  C6  UNL     1      27.335   0.384  52.720  1.00  0.00     0.039 A 
HETATM   15  C7  UNL     1      27.965  -0.734  53.038  1.00  0.00     0.095 A 
HETATM   16 CL1  UNL     1      27.597  -2.406  52.650  1.00  0.00    -0.079 Cl
HETATM   17  C8  UNL     1      29.148  -0.382  53.849  1.00  0.00     0.136 A 
HETATM   18  F1  UNL     1      30.073  -1.242  54.383  1.00  0.00    -0.205 F 
HETATM   19  C9  UNL     1      29.194   0.937  53.993  1.00  0.00     0.023 A 
HETATM   20  C10 UNL     1      28.044   1.563  53.289  1.00  0.00     0.089 A 
ENDBRANCH  12  14
ENDBRANCH   4  12
BRANCH   1  21
HETATM   21  O1  UNL     1      24.090   4.371  49.677  1.00  0.00    -0.353 OA
HETATM   22  C1  UNL     1      25.509   4.391  49.480  1.00  0.00     0.210 C 
ENDBRANCH   1  21
BRANCH  11  23
HETATM   23  O2  UNL     1      21.566   4.575  50.694  1.00  0.00    -0.352 OA
HETATM   24  C16 UNL     1      21.714   5.844  51.330  1.00  0.00     0.210 C 
ENDBRANCH  11  23
TORSDOF 4
ENDMDL
MODEL 5
REMARK VINA RESULT:      -7.3      3.441      5.493
REMARK  4 active torsions:
REMARK  status: ('A' for Active; 'I' for Inactive)
REMARK    1  A    between atoms: O1_2  and  C2_3 
REMARK    2  A    between atoms: C5_6  and  N1_7 
REMARK    3  A    between atoms: N1_7  and  C6_8 
REMARK    4  A    between atoms: C15_21  and  O2_22 
ROOT
HETATM    1  C2  UNL     1      22.658   0.719  52.040  1.00  0.00     0.103 A 
HETATM    2  C3  UNL     1      23.563   1.553  51.397  1.00  0.00     0.057 A 
HETATM    3  C4  UNL     1      24.883   1.650  51.774  1.00  0.00     0.042 A 
HETATM    4  C5  UNL     1      25.702   2.508  51.072  1.00  0.00     0.141 A 
HETATM    5  N2  UNL     1      27.001   2.642  51.397  1.00  0.00    -0.224 NA
HETATM    6  C11 UNL     1      27.467   1.898  52.441  1.00  0.00     0.236 A 
HETATM    7  N3  UNL     1      26.665   1.052  53.134  1.00  0.00    -0.240 NA
HETATM    8  C12 UNL     1      25.363   0.901  52.830  1.00  0.00     0.081 A 
HETATM    9  C13 UNL     1      24.492   0.061  53.491  1.00  0.00     0.004 A 
HETATM   10  C14 UNL     1      25.014  -0.741  54.624  1.00  0.00     0.054 C 
HETATM   11  C15 UNL     1      23.171  -0.028  53.106  1.00  0.00     0.109 A 
ENDROOT
BRANCH   4  12
HETATM   12  N1  UNL     1      25.285   3.310  49.977  1.00  0.00    -0.342 N 
HETATM   13  H5  UNL     1      24.751   3.067  49.114  1.00  0.00     0.167 HD
BRANCH  12  14
HETATM   14  C6  UNL     1      25.527   4.703  49.830  1.00  0.00     0.039 A 
HETATM   15  C7  UNL     1      24.800   5.556  50.531  1.00  0.00     0.095 A 
HETATM   16 CL1  UNL     1      23.506   5.281  51.685  1.00  0.00    -0.079 Cl
HETATM   17  C8  UNL     1      25.246   6.925  50.199  1.00  0.00     0.136 A 
HETATM   18  F1  UNL     1      24.757   8.102  50.703  1.00  0.00    -0.205 F 
HETATM   19  C9  UNL     1      26.229   6.852  49.309  1.00  0.00     0.023 A 
HETATM   20  C10 UNL     1      26.511   5.429  48.981  1.00  0.00     0.089 A 
ENDBRANCH  12  14
ENDBRANCH   4  12
BRANCH   1  21
HETATM   21  O1  UNL     1      21.319   0.613  51.669  1.00  0.00    -0.353 OA
HETATM   22  C1  UNL     1      20.546   1.803  51.864  1.00  0.00     0.210 C 
ENDBRANCH   1  21
BRANCH  11  23
HETATM   23  O2  UNL     1      22.274  -0.866  53.754  1.00  0.00    -0.352 OA
HETATM   24  C16 UNL     1      21.485  -0.304  54.804  1.00  0.00     0.210 C 
ENDBRANCH  11  23
TORSDOF 4
ENDMDL
MODEL 6
REMARK VINA RESULT:      -7.0      2.532      3.797
REMARK  4 active torsions:
REMARK  status: ('A' for Active; 'I' for Inactive)
REMARK    1  A    between atoms: O1_2  and  C2_3 
REMARK    2  A    between atoms: C5_6  and  N1_7 
REMARK    3  A    between atoms: N1_7  and  C6_8 
REMARK    4  A    between atoms: C15_21  and  O2_22 
ROOT
HETATM    1  C2  UNL     1      24.126   2.465  51.147  1.00  0.00     0.103 A 
HETATM    2  C3  UNL     1      24.207   1.331  51.945  1.00  0.00     0.057 A 
HETATM    3  C4  UNL     1      23.176   0.917  52.756  1.00  0.00     0.042 A 
HETATM    4  C5  UNL     1      23.354  -0.222  53.511  1.00  0.00     0.141 A 
HETATM    5  N2  UNL     1      22.379  -0.672  54.322  1.00  0.00    -0.224 NA
HETATM    6  C11 UNL     1      21.218   0.042  54.365  1.00  0.00     0.236 A 
HETATM    7  N3  UNL     1      21.038   1.163  53.624  1.00  0.00    -0.240 NA
HETATM    8  C12 UNL     1      21.997   1.634  52.806  1.00  0.00     0.081 A 
HETATM    9  C13 UNL     1      21.881   2.766  52.026  1.00  0.00     0.004 A 
HETATM   10  C14 UNL     1      20.612   3.531  52.084  1.00  0.00     0.054 C 
HETATM   11  C15 UNL     1      22.921   3.171  51.217  1.00  0.00     0.109 A 
ENDROOT
BRANCH   4  12
HETATM   12  N1  UNL     1      24.534  -1.013  53.516  1.00  0.00    -0.342 N 
HETATM   13  H5  UNL     1      24.680  -2.025  53.308  1.00  0.00     0.167 HD
BRANCH  12  14
HETATM   14  C6  UNL     1      25.841  -0.550  53.826  1.00  0.00     0.039 A 
HETATM   15  C7  UNL     1      26.876  -1.097  53.211  1.00  0.00     0.095 A 
HETATM   16 CL1  UNL     1      26.951  -2.371  52.006  1.00  0.00    -0.079 Cl
HETATM   17  C8  UNL     1      28.105  -0.445  53.707  1.00  0.00     0.136 A 
HETATM   18  F1  UNL     1      29.396  -0.712  53.330  1.00  0.00    -0.205 F 
HETATM   19  C9  UNL     1      27.771   0.476  54.604  1.00  0.00     0.023 A 
HETATM   20  C10 UNL     1      26.294   0.505  54.774  1.00  0.00     0.089 A 
ENDBRANCH  12  14
ENDBRANCH   4  12
BRANCH   1  21
HETATM   21  O1  UNL     1      25.163   2.893  50.322  1.00  0.00    -0.353 OA
HETATM   22  C1  UNL     1      26.478   2.635  50.827  1.00  0.00     0.210 C 
ENDBRANCH   1  21
BRANCH  11  23
HETATM   23  O2  UNL     1      22.831   4.307  50.422  1.00  0.00    -0.352 OA
HETATM   24  C16 UNL     1      23.290   5.539  50.976  1.00  0.00     0.210 C 
ENDBRANCH  11  23
TORSDOF 4
ENDMDL
MODEL 7
REMARK VINA RESULT:      -7.0      3.774      5.342
REMARK  4 active torsions:
REMARK  status: ('A' for Active; 'I' for Inactive)
REMARK    1  A    between atoms: O1_2  and  C2_3 
REMARK    2  A    between atoms: C5_6  and  N1_7 
REMARK    3  A    between atoms: N1_7  and  C6_8 
REMARK    4  A    between atoms: C15_21  and  O2_22 
ROOT
HETATM    1  C2  UNL     1      23.745   0.367  52.925  1.00  0.00     0.103 A 
HETATM    2  C3  UNL     1      23.933   1.688  52.542  1.00  0.00     0.057 A 
HETATM    3  C4  UNL     1      22.902   2.494  52.118  1.00  0.00     0.042 A 
HETATM    4  C5  UNL     1      23.193   3.793  51.759  1.00  0.00     0.141 A 
HETATM    5  N2  UNL     1      22.223   4.625  51.337  1.00  0.00    -0.224 NA
HETATM    6  C11 UNL     1      20.952   4.132  51.281  1.00  0.00     0.236 A 
HETATM    7  N3  UNL     1      20.662   2.855  51.633  1.00  0.00    -0.240 NA
HETATM    8  C12 UNL     1      21.614   2.003  52.057  1.00  0.00     0.081 A 
HETATM    9  C13 UNL     1      21.389   0.694  52.431  1.00  0.00     0.004 A 
HETATM   10  C14 UNL     1      20.002   0.174  52.364  1.00  0.00     0.054 C 
HETATM   11  C15 UNL     1      22.430  -0.104  52.854  1.00  0.00     0.109 A 
ENDROOT
BRANCH   4  12
HETATM   12  N1  UNL     1      24.490   4.371  51.794  1.00  0.00    -0.342 N 
HETATM   13  H5  UNL     1      25.015   4.826  52.571  1.00  0.00     0.167 HD
BRANCH  12  14
HETATM   14  C6  UNL     1      25.392   4.449  50.698  1.00  0.00     0.039 A 
HETATM   15  C7  UNL     1      25.471   5.577  50.014  1.00  0.00     0.095 A 
HETATM   16 CL1  UNL     1      24.620   7.100  50.212  1.00  0.00    -0.079 Cl
HETATM   17  C8  UNL     1      26.469   5.397  48.940  1.00  0.00     0.136 A 
HETATM   18  F1  UNL     1      26.857   6.320  48.004  1.00  0.00    -0.205 F 
HETATM   19  C9  UNL     1      26.960   4.165  49.012  1.00  0.00     0.023 A 
HETATM   20  C10 UNL     1      26.325   3.432  50.140  1.00  0.00     0.089 A 
ENDBRANCH  12  14
ENDBRANCH   4  12
BRANCH   1  21
HETATM   21  O1  UNL     1      24.781  -0.459  53.356  1.00  0.00    -0.353 OA
HETATM   22  C1  UNL     1      25.779   0.193  54.150  1.00  0.00     0.210 C 
ENDBRANCH   1  21
BRANCH  11  23
HETATM   23  O2  UNL     1      22.231  -1.425  53.235  1.00  0.00    -0.352 OA
HETATM   24  C16 UNL     1      21.897  -1.675  54.601  1.00  0.00     0.210 C 
ENDBRANCH  11  23
TORSDOF 4
ENDMDL
MODEL 8
REMARK VINA RESULT:      -7.0      3.539      6.255
REMARK  4 active torsions:
REMARK  status: ('A' for Active; 'I' for Inactive)
REMARK    1  A    between atoms: O1_2  and  C2_3 
REMARK    2  A    between atoms: C5_6  and  N1_7 
REMARK    3  A    between atoms: N1_7  and  C6_8 
REMARK    4  A    between atoms: C15_21  and  O2_22 
ROOT
HETATM    1  C2  UNL     1      25.111   1.364  53.124  1.00  0.00     0.103 A 
HETATM    2  C3  UNL     1      23.774   1.700  52.953  1.00  0.00     0.057 A 
HETATM    3  C4  UNL     1      23.322   2.428  51.876  1.00  0.00     0.042 A 
HETATM    4  C5  UNL     1      21.975   2.710  51.798  1.00  0.00     0.141 A 
HETATM    5  N2  UNL     1      21.478   3.418  50.767  1.00  0.00    -0.224 NA
HETATM    6  C11 UNL     1      22.356   3.841  49.813  1.00  0.00     0.236 A 
HETATM    7  N3  UNL     1      23.682   3.565  49.887  1.00  0.00    -0.240 NA
HETATM    8  C12 UNL     1      24.204   2.860  50.907  1.00  0.00     0.081 A 
HETATM    9  C13 UNL     1      25.540   2.544  51.044  1.00  0.00     0.004 A 
HETATM   10  C14 UNL     1      26.482   3.011  49.999  1.00  0.00     0.054 C 
HETATM   11  C15 UNL     1      25.982   1.814  52.127  1.00  0.00     0.109 A 
ENDROOT
BRANCH   4  12
HETATM   12  N1  UNL     1      21.005   2.302  52.752  1.00  0.00    -0.342 N 
HETATM   13  H5  UNL     1      20.765   2.689  53.691  1.00  0.00     0.167 HD
BRANCH  12  14
HETATM   14  C6  UNL     1      20.106   1.212  52.606  1.00  0.00     0.039 A 
HETATM   15  C7  UNL     1      20.186   0.199  53.451  1.00  0.00     0.095 A 
HETATM   16 CL1  UNL     1      21.262  -0.077  54.811  1.00  0.00    -0.079 Cl
HETATM   17  C8  UNL     1      19.153  -0.792  53.085  1.00  0.00     0.136 A 
HETATM   18  F1  UNL     1      18.894  -1.987  53.704  1.00  0.00    -0.205 F 
HETATM   19  C9  UNL     1      18.482  -0.343  52.030  1.00  0.00     0.023 A 
HETATM   20  C10 UNL     1      19.019   0.980  51.615  1.00  0.00     0.089 A 
ENDBRANCH  12  14
ENDBRANCH   4  12
BRANCH   1  21
HETATM   21  O1  UNL     1      25.581   0.628  54.209  1.00  0.00    -0.353 OA
HETATM   22  C1  UNL     1      25.259  -0.768  54.172  1.00  0.00     0.210 C 
ENDBRANCH   1  21
BRANCH  11  23
HETATM   23  O2  UNL     1      27.321   1.483  52.289  1.00  0.00    -0.352 OA
HETATM   24  C16 UNL     1      28.103   2.302  53.159  1.00  0.00     0.210 C 
ENDBRANCH  11  23
TORSDOF 4
ENDMDL
MODEL 9
REMARK VINA RESULT:      -6.9      4.304      7.406
REMARK  4 active torsions:
REMARK  status: ('A' for Active; 'I' for Inactive)
REMARK    1  A    between atoms: O1_2  and  C2_3 
REMARK    2  A    between atoms: C5_6  and  N1_7 
REMARK    3  A    between atoms: N1_7  and  C6_8 
REMARK    4  A    between atoms: C15_21  and  O2_22 
ROOT
HETATM    1  C2  UNL     1      24.326   1.867  51.667  1.00  0.00     0.103 A 
HETATM    2  C3  UNL     1      23.049   1.671  52.176  1.00  0.00     0.057 A 
HETATM    3  C4  UNL     1      22.761   0.703  53.110  1.00  0.00     0.042 A 
HETATM    4  C5  UNL     1      21.460   0.588  53.552  1.00  0.00     0.141 A 
HETATM    5  N2  UNL     1      21.122  -0.342  54.465  1.00  0.00    -0.224 NA
HETATM    6  C11 UNL     1      22.113  -1.156  54.930  1.00  0.00     0.236 A 
HETATM    7  N3  UNL     1      23.393  -1.046  54.498  1.00  0.00    -0.240 NA
HETATM    8  C12 UNL     1      23.757  -0.126  53.585  1.00  0.00     0.081 A 
HETATM    9  C13 UNL     1      25.039   0.041  53.102  1.00  0.00     0.004 A 
HETATM   10  C14 UNL     1      26.104  -0.852  53.617  1.00  0.00     0.054 C 
HETATM   11  C15 UNL     1      25.316   1.014  52.166  1.00  0.00     0.109 A 
ENDROOT
BRANCH   4  12
HETATM   12  N1  UNL     1      20.381   1.400  53.114  1.00  0.00    -0.342 N 
HETATM   13  H5  UNL     1      20.029   2.318  53.463  1.00  0.00     0.167 HD
BRANCH  12  14
HETATM   14  C6  UNL     1      19.505   1.102  52.035  1.00  0.00     0.039 A 
HETATM   15  C7  UNL     1      19.405   1.963  51.036  1.00  0.00     0.095 A 
HETATM   16 CL1  UNL     1      20.198   3.506  50.770  1.00  0.00    -0.079 Cl
HETATM   17  C8  UNL     1      18.440   1.423  50.057  1.00  0.00     0.136 A 
HETATM   18  F1  UNL     1      18.046   1.999  48.876  1.00  0.00    -0.205 F 
HETATM   19  C9  UNL     1      17.990   0.253  50.496  1.00  0.00     0.023 A 
HETATM   20  C10 UNL     1      18.622  -0.074  51.802  1.00  0.00     0.089 A 
ENDBRANCH  12  14
ENDBRANCH   4  12
BRANCH   1  21
HETATM   21  O1  UNL     1      24.630   2.843  50.721  1.00  0.00    -0.353 OA
HETATM   22  C1  UNL     1      24.139   4.153  51.031  1.00  0.00     0.210 C 
ENDBRANCH   1  21
BRANCH  11  23
HETATM   23  O2  UNL     1      26.597   1.203  51.664  1.00  0.00    -0.352 OA
HETATM   24  C16 UNL     1      27.454   2.105  52.364  1.00  0.00     0.210 C 
ENDBRANCH  11  23
TORSDOF 4
ENDMDL
