MODEL 1
REMARK VINA RESULT:      -7.8      0.000      0.000
REMARK  10 active torsions:
REMARK  status: ('A' for Active; 'I' for Inactive)
REMARK    1  A    between atoms: O1_2  and  C2_3 
REMARK    2  A    between atoms: C5_6  and  C6_7 
REMARK    3  A    between atoms: C6_7  and  O2_8 
REMARK    4  A    between atoms: O2_8  and  C7_9 
REMARK    5  A    between atoms: C10_12  and  C11_13 
REMARK    6  A    between atoms: C11_13  and  C12_14 
REMARK    7  A    between atoms: C14_17  and  N2_18 
REMARK    8  A    between atoms: C15_20  and  N4_21 
REMARK    9  A    between atoms: C17_23  and  O3_24 
REMARK   10  A    between atoms: O3_24  and  P1_25 
ROOT
HETATM    1  C7  UNL     1      24.854   3.241  50.091  1.00  0.00     0.102 A 
HETATM    2  C8  UNL     1      26.169   3.055  50.441  1.00  0.00     0.040 A 
HETATM    3  C9  UNL     1      26.609   2.516  51.625  1.00  0.00     0.010 A 
HETATM    4  C10 UNL     1      25.648   2.132  52.534  1.00  0.00    -0.051 A 
HETATM    5  C16 UNL     1      24.281   2.280  52.273  1.00  0.00     0.047 A 
HETATM    6  C17 UNL     1      23.899   2.839  51.042  1.00  0.00     0.107 A 
ENDROOT
BRANCH   4   7
HETATM    7  C11 UNL     1      26.062   1.542  53.830  1.00  0.00     0.082 C 
BRANCH   7   8
HETATM    8  C12 UNL     1      26.887   0.330  53.710  1.00  0.00     0.010 A 
HETATM    9  C13 UNL     1      26.252  -0.763  53.106  1.00  0.00     0.147 A 
HETATM   10  N1  UNL     1      26.919  -1.944  52.936  1.00  0.00    -0.075 NA
HETATM   11  C14 UNL     1      28.199  -2.052  53.356  1.00  0.00     0.721 A 
HETATM   12  N3  UNL     1      28.828  -1.015  53.939  1.00  0.00    -0.045 NA
HETATM   13  C15 UNL     1      28.189   0.180  54.124  1.00  0.00     0.148 A 
BRANCH  11  14
HETATM   14  N2  UNL     1      28.802  -3.320  53.133  1.00  0.00    -0.231 N 
HETATM   15  H13 UNL     1      28.437  -4.275  52.956  1.00  0.00     0.174 HD
HETATM   16  H14 UNL     1      29.834  -3.536  53.105  1.00  0.00     0.174 HD
ENDBRANCH  11  14
BRANCH  13  17
HETATM   17  N4  UNL     1      28.831   1.286  54.740  1.00  0.00    -0.383 N 
HETATM   18  H15 UNL     1      28.903   1.645  55.737  1.00  0.00     0.157 HD
HETATM   19  H16 UNL     1      29.295   1.774  53.950  1.00  0.00     0.157 HD
ENDBRANCH  13  17
ENDBRANCH   7   8
ENDBRANCH   4   7
BRANCH   6  20
HETATM   20  O3  UNL     1      22.493   2.909  50.957  1.00  0.00    -0.325 OA
BRANCH  20  21
HETATM   21  P1  UNL     1      21.656   4.062  51.983  1.00  0.00     0.016 P 
HETATM   22  C18 UNL     1      21.133   5.524  50.972  1.00  0.00     0.072 C 
HETATM   23  H18 UNL     1      22.559   4.535  53.021  1.00  0.00     0.087 HD
ENDBRANCH  20  21
ENDBRANCH   6  20
BRANCH   1  24
HETATM   24  O2  UNL     1      24.170   3.728  49.032  1.00  0.00    -0.344 OA
BRANCH  24  25
HETATM   25  C6  UNL     1      23.823   5.000  48.623  1.00  0.00     0.214 C 
BRANCH  25  26
HETATM   26  C5  UNL     1      24.880   5.979  48.946  1.00  0.00    -0.034 A 
HETATM   27  C4  UNL     1      26.150   6.182  48.489  1.00  0.00     0.012 A 
HETATM   28  C3  UNL     1      26.942   7.193  48.946  1.00  0.00     0.037 A 
HETATM   29  C2  UNL     1      26.525   8.085  49.901  1.00  0.00     0.068 A 
HETATM   30  C20 UNL     1      25.258   7.927  50.397  1.00  0.00     0.037 A 
HETATM   31  C19 UNL     1      24.469   6.894  49.919  1.00  0.00     0.012 A 
BRANCH  29  32
HETATM   32  O1  UNL     1      27.336   9.102  50.354  1.00  0.00    -0.356 OA
HETATM   33  C1  UNL     1      28.460   9.527  49.601  1.00  0.00     0.210 C 
ENDBRANCH  29  32
ENDBRANCH  25  26
ENDBRANCH  24  25
ENDBRANCH   1  24
TORSDOF 10
ENDMDL
MODEL 2
REMARK VINA RESULT:      -7.7      3.105      3.861
REMARK  10 active torsions:
REMARK  status: ('A' for Active; 'I' for Inactive)
REMARK    1  A    between atoms: O1_2  and  C2_3 
REMARK    2  A    between atoms: C5_6  and  C6_7 
REMARK    3  A    between atoms: C6_7  and  O2_8 
REMARK    4  A    between atoms: O2_8  and  C7_9 
REMARK    5  A    between atoms: C10_12  and  C11_13 
REMARK    6  A    between atoms: C11_13  and  C12_14 
REMARK    7  A    between atoms: C14_17  and  N2_18 
REMARK    8  A    between atoms: C15_20  and  N4_21 
REMARK    9  A    between atoms: C17_23  and  O3_24 
REMARK   10  A    between atoms: O3_24  and  P1_25 
ROOT
HETATM    1  C7  UNL     1      25.254   3.296  51.199  1.00  0.00     0.102 A 
HETATM    2  C8  UNL     1      26.059   2.188  51.090  1.00  0.00     0.040 A 
HETATM    3  C9  UNL     1      25.972   1.061  51.868  1.00  0.00     0.010 A 
HETATM    4  C10 UNL     1      24.994   1.043  52.838  1.00  0.00    -0.051 A 
HETATM    5  C16 UNL     1      24.123   2.122  53.031  1.00  0.00     0.047 A 
HETATM    6  C17 UNL     1      24.267   3.244  52.200  1.00  0.00     0.107 A 
ENDROOT
BRANCH   4   7
HETATM    7  C11 UNL     1      24.850  -0.149  53.709  1.00  0.00     0.082 C 
BRANCH   7   8
HETATM    8  C12 UNL     1      23.460  -0.584  53.918  1.00  0.00     0.010 A 
HETATM    9  C13 UNL     1      22.579  -0.279  52.873  1.00  0.00     0.147 A 
HETATM   10  N1  UNL     1      21.261  -0.636  52.951  1.00  0.00    -0.075 NA
HETATM   11  C14 UNL     1      20.812  -1.287  54.046  1.00  0.00     0.721 A 
HETATM   12  N3  UNL     1      21.641  -1.590  55.062  1.00  0.00    -0.045 NA
HETATM   13  C15 UNL     1      22.964  -1.247  55.016  1.00  0.00     0.148 A 
BRANCH  11  14
HETATM   14  N2  UNL     1      19.429  -1.612  54.030  1.00  0.00    -0.231 N 
HETATM   15  H13 UNL     1      18.558  -1.071  53.867  1.00  0.00     0.174 HD
HETATM   16  H14 UNL     1      18.997  -2.560  54.196  1.00  0.00     0.174 HD
ENDBRANCH  11  14
BRANCH  13  17
HETATM   17  N4  UNL     1      23.856  -1.552  56.077  1.00  0.00    -0.383 N 
HETATM   18  H15 UNL     1      23.793  -1.517  57.136  1.00  0.00     0.157 HD
HETATM   19  H16 UNL     1      24.719  -1.865  55.592  1.00  0.00     0.157 HD
ENDBRANCH  13  17
ENDBRANCH   7   8
ENDBRANCH   4   7
BRANCH   6  20
HETATM   20  O3  UNL     1      23.309   4.223  52.539  1.00  0.00    -0.325 OA
BRANCH  20  21
HETATM   21  P1  UNL     1      21.658   3.994  51.987  1.00  0.00     0.016 P 
HETATM   22  C18 UNL     1      21.667   3.429  50.223  1.00  0.00     0.072 C 
HETATM   23  H18 UNL     1      20.945   5.261  52.048  1.00  0.00     0.087 HD
ENDBRANCH  20  21
ENDBRANCH   6  20
BRANCH   1  24
HETATM   24  O2  UNL     1      25.127   4.493  50.587  1.00  0.00    -0.344 OA
BRANCH  24  25
HETATM   25  C6  UNL     1      25.163   4.900  49.268  1.00  0.00     0.214 C 
BRANCH  25  26
HETATM   26  C5  UNL     1      26.497   5.409  48.896  1.00  0.00    -0.034 A 
HETATM   27  C4  UNL     1      27.697   4.811  48.637  1.00  0.00     0.012 A 
HETATM   28  C3  UNL     1      28.809   5.517  48.287  1.00  0.00     0.037 A 
HETATM   29  C2  UNL     1      28.809   6.885  48.166  1.00  0.00     0.068 A 
HETATM   30  C20 UNL     1      27.630   7.536  48.416  1.00  0.00     0.037 A 
HETATM   31  C19 UNL     1      26.513   6.801  48.770  1.00  0.00     0.012 A 
BRANCH  29  32
HETATM   32  O1  UNL     1      29.940   7.586  47.812  1.00  0.00    -0.356 OA
HETATM   33  C1  UNL     1      30.789   8.147  48.800  1.00  0.00     0.210 C 
ENDBRANCH  29  32
ENDBRANCH  25  26
ENDBRANCH  24  25
ENDBRANCH   1  24
TORSDOF 10
ENDMDL
MODEL 3
REMARK VINA RESULT:      -7.6      4.089      7.849
REMARK  10 active torsions:
REMARK  status: ('A' for Active; 'I' for Inactive)
REMARK    1  A    between atoms: O1_2  and  C2_3 
REMARK    2  A    between atoms: C5_6  and  C6_7 
REMARK    3  A    between atoms: C6_7  and  O2_8 
REMARK    4  A    between atoms: O2_8  and  C7_9 
REMARK    5  A    between atoms: C10_12  and  C11_13 
REMARK    6  A    between atoms: C11_13  and  C12_14 
REMARK    7  A    between atoms: C14_17  and  N2_18 
REMARK    8  A    between atoms: C15_20  and  N4_21 
REMARK    9  A    between atoms: C17_23  and  O3_24 
REMARK   10  A    between atoms: O3_24  and  P1_25 
ROOT
HETATM    1  C7  UNL     1      25.205   3.863  50.828  1.00  0.00     0.102 A 
HETATM    2  C8  UNL     1      26.313   3.572  50.070  1.00  0.00     0.040 A 
HETATM    3  C9  UNL     1      26.881   4.404  49.137  1.00  0.00     0.010 A 
HETATM    4  C10 UNL     1      26.287   5.632  48.949  1.00  0.00    -0.051 A 
HETATM    5  C16 UNL     1      25.153   6.025  49.671  1.00  0.00     0.047 A 
HETATM    6  C17 UNL     1      24.623   5.125  50.610  1.00  0.00     0.107 A 
ENDROOT
BRANCH   4   7
HETATM    7  C11 UNL     1      26.856   6.576  47.956  1.00  0.00     0.082 C 
BRANCH   7   8
HETATM    8  C12 UNL     1      27.925   7.439  48.481  1.00  0.00     0.010 A 
HETATM    9  C13 UNL     1      27.486   8.575  49.173  1.00  0.00     0.147 A 
HETATM   10  N1  UNL     1      28.387   9.451  49.711  1.00  0.00    -0.075 NA
HETATM   11  C14 UNL     1      29.709   9.214  49.570  1.00  0.00     0.721 A 
HETATM   12  N3  UNL     1      30.154   8.129  48.909  1.00  0.00    -0.045 NA
HETATM   13  C15 UNL     1      29.279   7.234  48.359  1.00  0.00     0.148 A 
BRANCH  11  14
HETATM   14  N2  UNL     1      30.563  10.183  50.163  1.00  0.00    -0.231 N 
HETATM   15  H13 UNL     1      31.028  11.046  49.821  1.00  0.00     0.174 HD
HETATM   16  H14 UNL     1      30.909  10.201  51.159  1.00  0.00     0.174 HD
ENDBRANCH  11  14
BRANCH  13  17
HETATM   17  N4  UNL     1      29.725   6.085  47.654  1.00  0.00    -0.383 N 
HETATM   18  H15 UNL     1      29.681   5.039  47.831  1.00  0.00     0.157 HD
HETATM   19  H16 UNL     1      30.172   6.476  46.803  1.00  0.00     0.157 HD
ENDBRANCH  13  17
ENDBRANCH   7   8
ENDBRANCH   4   7
BRANCH   6  20
HETATM   20  O3  UNL     1      23.492   5.689  51.236  1.00  0.00    -0.325 OA
BRANCH  20  21
HETATM   21  P1  UNL     1      22.011   5.830  50.303  1.00  0.00     0.016 P 
HETATM   22  C18 UNL     1      21.320   7.539  50.491  1.00  0.00     0.072 C 
HETATM   23  H18 UNL     1      21.025   4.889  50.813  1.00  0.00     0.087 HD
ENDBRANCH  20  21
ENDBRANCH   6  20
BRANCH   1  24
HETATM   24  O2  UNL     1      24.467   3.252  51.780  1.00  0.00    -0.344 OA
BRANCH  24  25
HETATM   25  C6  UNL     1      24.730   2.832  53.068  1.00  0.00     0.214 C 
BRANCH  25  26
HETATM   26  C5  UNL     1      25.556   1.609  53.080  1.00  0.00    -0.034 A 
HETATM   27  C4  UNL     1      25.366   0.338  52.621  1.00  0.00     0.012 A 
HETATM   28  C3  UNL     1      26.314  -0.635  52.740  1.00  0.00     0.037 A 
HETATM   29  C2  UNL     1      27.533  -0.413  53.330  1.00  0.00     0.068 A 
HETATM   30  C20 UNL     1      27.776   0.847  53.810  1.00  0.00     0.037 A 
HETATM   31  C19 UNL     1      26.801   1.821  53.679  1.00  0.00     0.012 A 
BRANCH  29  32
HETATM   32  O1  UNL     1      28.481  -1.405  53.444  1.00  0.00    -0.356 OA
HETATM   33  C1  UNL     1      29.840  -1.088  53.696  1.00  0.00     0.210 C 
ENDBRANCH  29  32
ENDBRANCH  25  26
ENDBRANCH  24  25
ENDBRANCH   1  24
TORSDOF 10
ENDMDL
MODEL 4
REMARK VINA RESULT:      -7.5      4.388      7.769
REMARK  10 active torsions:
REMARK  status: ('A' for Active; 'I' for Inactive)
REMARK    1  A    between atoms: O1_2  and  C2_3 
REMARK    2  A    between atoms: C5_6  and  C6_7 
REMARK    3  A    between atoms: C6_7  and  O2_8 
REMARK    4  A    between atoms: O2_8  and  C7_9 
REMARK    5  A    between atoms: C10_12  and  C11_13 
REMARK    6  A    between atoms: C11_13  and  C12_14 
REMARK    7  A    between atoms: C14_17  and  N2_18 
REMARK    8  A    between atoms: C15_20  and  N4_21 
REMARK    9  A    between atoms: C17_23  and  O3_24 
REMARK   10  A    between atoms: O3_24  and  P1_25 
ROOT
HETATM    1  C7  UNL     1      25.785   4.355  50.184  1.00  0.00     0.102 A 
HETATM    2  C8  UNL     1      26.859   4.008  49.401  1.00  0.00     0.040 A 
HETATM    3  C9  UNL     1      27.561   4.862  48.587  1.00  0.00     0.010 A 
HETATM    4  C10 UNL     1      27.150   6.176  48.556  1.00  0.00    -0.051 A 
HETATM    5  C16 UNL     1      26.066   6.632  49.316  1.00  0.00     0.047 A 
HETATM    6  C17 UNL     1      25.392   5.705  50.127  1.00  0.00     0.107 A 
ENDROOT
BRANCH   4   7
HETATM    7  C11 UNL     1      27.871   7.148  47.697  1.00  0.00     0.082 C 
BRANCH   7   8
HETATM    8  C12 UNL     1      29.267   7.390  48.092  1.00  0.00     0.010 A 
HETATM    9  C13 UNL     1      30.221   6.638  47.393  1.00  0.00     0.147 A 
HETATM   10  N1  UNL     1      31.552   6.779  47.670  1.00  0.00    -0.075 NA
HETATM   11  C14 UNL     1      31.944   7.650  48.625  1.00  0.00     0.721 A 
HETATM   12  N3  UNL     1      31.045   8.382  49.308  1.00  0.00    -0.045 NA
HETATM   13  C15 UNL     1      29.707   8.266  49.056  1.00  0.00     0.148 A 
BRANCH  11  14
HETATM   14  N2  UNL     1      33.348   7.722  48.836  1.00  0.00    -0.231 N 
HETATM   15  H13 UNL     1      34.110   7.019  48.892  1.00  0.00     0.174 HD
HETATM   16  H14 UNL     1      33.924   8.592  48.988  1.00  0.00     0.174 HD
ENDBRANCH  11  14
BRANCH  13  17
HETATM   17  N4  UNL     1      28.740   9.024  49.767  1.00  0.00    -0.383 N 
HETATM   18  H15 UNL     1      28.068   9.804  49.508  1.00  0.00     0.157 HD
HETATM   19  H16 UNL     1      28.792   8.646  50.732  1.00  0.00     0.157 HD
ENDBRANCH  13  17
ENDBRANCH   7   8
ENDBRANCH   4   7
BRANCH   6  20
HETATM   20  O3  UNL     1      24.337   6.340  50.814  1.00  0.00    -0.325 OA
BRANCH  20  21
HETATM   21  P1  UNL     1      23.024   7.024  49.869  1.00  0.00     0.016 P 
HETATM   22  C18 UNL     1      22.043   5.659  49.093  1.00  0.00     0.072 C 
HETATM   23  H18 UNL     1      23.571   7.846  48.801  1.00  0.00     0.087 HD
ENDBRANCH  20  21
ENDBRANCH   6  20
BRANCH   1  24
HETATM   24  O2  UNL     1      24.946   3.739  51.044  1.00  0.00    -0.344 OA
BRANCH  24  25
HETATM   25  C6  UNL     1      24.597   2.421  51.259  1.00  0.00     0.214 C 
BRANCH  25  26
HETATM   26  C5  UNL     1      25.490   1.780  52.244  1.00  0.00    -0.034 A 
HETATM   27  C4  UNL     1      25.743   1.993  53.568  1.00  0.00     0.012 A 
HETATM   28  C3  UNL     1      26.624   1.233  54.279  1.00  0.00     0.037 A 
HETATM   29  C2  UNL     1      27.325   0.195  53.719  1.00  0.00     0.068 A 
HETATM   30  C20 UNL     1      27.110  -0.063  52.391  1.00  0.00     0.037 A 
HETATM   31  C19 UNL     1      26.211   0.720  51.687  1.00  0.00     0.012 A 
BRANCH  29  32
HETATM   32  O1  UNL     1      28.212  -0.565  54.449  1.00  0.00    -0.356 OA
HETATM   33  C1  UNL     1      29.518  -0.827  53.963  1.00  0.00     0.210 C 
ENDBRANCH  29  32
ENDBRANCH  25  26
ENDBRANCH  24  25
ENDBRANCH   1  24
TORSDOF 10
ENDMDL
MODEL 5
REMARK VINA RESULT:      -7.5      4.519      7.891
REMARK  10 active torsions:
REMARK  status: ('A' for Active; 'I' for Inactive)
REMARK    1  A    between atoms: O1_2  and  C2_3 
REMARK    2  A    between atoms: C5_6  and  C6_7 
REMARK    3  A    between atoms: C6_7  and  O2_8 
REMARK    4  A    between atoms: O2_8  and  C7_9 
REMARK    5  A    between atoms: C10_12  and  C11_13 
REMARK    6  A    between atoms: C11_13  and  C12_14 
REMARK    7  A    between atoms: C14_17  and  N2_18 
REMARK    8  A    between atoms: C15_20  and  N4_21 
REMARK    9  A    between atoms: C17_23  and  O3_24 
REMARK   10  A    between atoms: O3_24  and  P1_25 
ROOT
HETATM    1  C7  UNL     1      24.849   3.320  50.511  1.00  0.00     0.102 A 
HETATM    2  C8  UNL     1      26.116   3.650  50.097  1.00  0.00     0.040 A 
HETATM    3  C9  UNL     1      26.447   4.748  49.342  1.00  0.00     0.010 A 
HETATM    4  C10 UNL     1      25.418   5.585  48.971  1.00  0.00    -0.051 A 
HETATM    5  C16 UNL     1      24.091   5.337  49.341  1.00  0.00     0.047 A 
HETATM    6  C17 UNL     1      23.823   4.196  50.114  1.00  0.00     0.107 A 
ENDROOT
BRANCH   4   7
HETATM    7  C11 UNL     1      25.713   6.789  48.156  1.00  0.00     0.082 C 
BRANCH   7   8
HETATM    8  C12 UNL     1      26.754   7.663  48.718  1.00  0.00     0.010 A 
HETATM    9  C13 UNL     1      27.998   7.593  48.077  1.00  0.00     0.147 A 
HETATM   10  N1  UNL     1      29.043   8.362  48.508  1.00  0.00    -0.075 NA
HETATM   11  C14 UNL     1      28.869   9.193  49.558  1.00  0.00     0.721 A 
HETATM   12  N3  UNL     1      27.683   9.276  50.188  1.00  0.00    -0.045 NA
HETATM   13  C15 UNL     1      26.617   8.521  49.783  1.00  0.00     0.148 A 
BRANCH  11  14
HETATM   14  N2  UNL     1      30.015   9.948  49.927  1.00  0.00    -0.231 N 
HETATM   15  H13 UNL     1      30.348  10.910  49.720  1.00  0.00     0.174 HD
HETATM   16  H14 UNL     1      30.813   9.633  50.541  1.00  0.00     0.174 HD
ENDBRANCH  11  14
BRANCH  13  17
HETATM   17  N4  UNL     1      25.358   8.589  50.435  1.00  0.00    -0.383 N 
HETATM   18  H15 UNL     1      24.973   8.216  51.352  1.00  0.00     0.157 HD
HETATM   19  H16 UNL     1      24.773   9.145  49.783  1.00  0.00     0.157 HD
ENDBRANCH  13  17
ENDBRANCH   7   8
ENDBRANCH   4   7
BRANCH   6  20
HETATM   20  O3  UNL     1      22.442   4.111  50.389  1.00  0.00    -0.325 OA
BRANCH  20  21
HETATM   21  P1  UNL     1      21.375   3.543  49.115  1.00  0.00     0.016 P 
HETATM   22  C18 UNL     1      22.119   2.054  48.301  1.00  0.00     0.072 C 
HETATM   23  H18 UNL     1      21.230   4.580  48.105  1.00  0.00     0.087 HD
ENDBRANCH  20  21
ENDBRANCH   6  20
BRANCH   1  24
HETATM   24  O2  UNL     1      24.267   2.338  51.234  1.00  0.00    -0.344 OA
BRANCH  24  25
HETATM   25  C6  UNL     1      24.262   2.014  52.575  1.00  0.00     0.214 C 
BRANCH  25  26
HETATM   26  C5  UNL     1      25.494   1.301  52.963  1.00  0.00    -0.034 A 
HETATM   27  C4  UNL     1      26.614   1.660  53.657  1.00  0.00     0.012 A 
HETATM   28  C3  UNL     1      27.634   0.791  53.905  1.00  0.00     0.037 A 
HETATM   29  C2  UNL     1      27.616  -0.514  53.479  1.00  0.00     0.068 A 
HETATM   30  C20 UNL     1      26.515  -0.928  52.777  1.00  0.00     0.037 A 
HETATM   31  C19 UNL     1      25.489  -0.030  52.535  1.00  0.00     0.012 A 
BRANCH  29  32
HETATM   32  O1  UNL     1      28.653  -1.381  53.737  1.00  0.00    -0.356 OA
HETATM   33  C1  UNL     1      29.997  -0.927  53.749  1.00  0.00     0.210 C 
ENDBRANCH  29  32
ENDBRANCH  25  26
ENDBRANCH  24  25
ENDBRANCH   1  24
TORSDOF 10
ENDMDL
MODEL 6
REMARK VINA RESULT:      -7.4      4.586      8.319
REMARK  10 active torsions:
REMARK  status: ('A' for Active; 'I' for Inactive)
REMARK    1  A    between atoms: O1_2  and  C2_3 
REMARK    2  A    between atoms: C5_6  and  C6_7 
REMARK    3  A    between atoms: C6_7  and  O2_8 
REMARK    4  A    between atoms: O2_8  and  C7_9 
REMARK    5  A    between atoms: C10_12  and  C11_13 
REMARK    6  A    between atoms: C11_13  and  C12_14 
REMARK    7  A    between atoms: C14_17  and  N2_18 
REMARK    8  A    between atoms: C15_20  and  N4_21 
REMARK    9  A    between atoms: C17_23  and  O3_24 
REMARK   10  A    between atoms: O3_24  and  P1_25 
ROOT
HETATM    1  C7  UNL     1      25.678   3.208  50.570  1.00  0.00     0.102 A 
HETATM    2  C8  UNL     1      26.707   3.409  49.682  1.00  0.00     0.040 A 
HETATM    3  C9  UNL     1      26.900   4.541  48.930  1.00  0.00     0.010 A 
HETATM    4  C10 UNL     1      25.982   5.556  49.080  1.00  0.00    -0.051 A 
HETATM    5  C16 UNL     1      24.896   5.450  49.957  1.00  0.00     0.047 A 
HETATM    6  C17 UNL     1      24.758   4.265  50.697  1.00  0.00     0.107 A 
ENDROOT
BRANCH   4   7
HETATM    7  C11 UNL     1      26.138   6.805  48.294  1.00  0.00     0.082 C 
BRANCH   7   8
HETATM    8  C12 UNL     1      27.162   7.725  48.813  1.00  0.00     0.010 A 
HETATM    9  C13 UNL     1      28.436   7.573  48.251  1.00  0.00     0.147 A 
HETATM   10  N1  UNL     1      29.469   8.374  48.651  1.00  0.00    -0.075 NA
HETATM   11  C14 UNL     1      29.254   9.316  49.594  1.00  0.00     0.721 A 
HETATM   12  N3  UNL     1      28.038   9.479  50.147  1.00  0.00    -0.045 NA
HETATM   13  C15 UNL     1      26.983   8.695  49.770  1.00  0.00     0.148 A 
BRANCH  11  14
HETATM   14  N2  UNL     1      30.392  10.095  49.940  1.00  0.00    -0.231 N 
HETATM   15  H13 UNL     1      31.106  10.042  50.692  1.00  0.00     0.174 HD
HETATM   16  H14 UNL     1      30.749  10.953  49.442  1.00  0.00     0.174 HD
ENDBRANCH  11  14
BRANCH  13  17
HETATM   17  N4  UNL     1      25.693   8.846  50.343  1.00  0.00    -0.383 N 
HETATM   18  H15 UNL     1      24.757   9.198  49.987  1.00  0.00     0.157 HD
HETATM   19  H16 UNL     1      25.815   8.509  51.317  1.00  0.00     0.157 HD
ENDBRANCH  13  17
ENDBRANCH   7   8
ENDBRANCH   4   7
BRANCH   6  20
HETATM   20  O3  UNL     1      23.616   4.339  51.522  1.00  0.00    -0.325 OA
BRANCH  20  21
HETATM   21  P1  UNL     1      22.046   4.503  50.753  1.00  0.00     0.016 P 
HETATM   22  C18 UNL     1      21.441   6.242  50.945  1.00  0.00     0.072 C 
HETATM   23  H18 UNL     1      21.091   3.620  51.405  1.00  0.00     0.087 HD
ENDBRANCH  20  21
ENDBRANCH   6  20
BRANCH   1  24
HETATM   24  O2  UNL     1      25.267   2.229  51.406  1.00  0.00    -0.344 OA
BRANCH  24  25
HETATM   25  C6  UNL     1      25.924   1.363  52.257  1.00  0.00     0.214 C 
BRANCH  25  26
HETATM   26  C5  UNL     1      24.973   0.577  53.066  1.00  0.00    -0.034 A 
HETATM   27  C4  UNL     1      25.119  -0.388  54.022  1.00  0.00     0.012 A 
HETATM   28  C3  UNL     1      24.056  -0.964  54.651  1.00  0.00     0.037 A 
HETATM   29  C2  UNL     1      22.756  -0.620  54.375  1.00  0.00     0.068 A 
HETATM   30  C20 UNL     1      22.552   0.344  53.423  1.00  0.00     0.037 A 
HETATM   31  C19 UNL     1      23.644   0.916  52.795  1.00  0.00     0.012 A 
BRANCH  29  32
HETATM   32  O1  UNL     1      21.692  -1.210  55.019  1.00  0.00    -0.356 OA
HETATM   33  C1  UNL     1      20.607  -1.753  54.285  1.00  0.00     0.210 C 
ENDBRANCH  29  32
ENDBRANCH  25  26
ENDBRANCH  24  25
ENDBRANCH   1  24
TORSDOF 10
ENDMDL
MODEL 7
REMARK VINA RESULT:      -7.3      6.286      9.203
REMARK  10 active torsions:
REMARK  status: ('A' for Active; 'I' for Inactive)
REMARK    1  A    between atoms: O1_2  and  C2_3 
REMARK    2  A    between atoms: C5_6  and  C6_7 
REMARK    3  A    between atoms: C6_7  and  O2_8 
REMARK    4  A    between atoms: O2_8  and  C7_9 
REMARK    5  A    between atoms: C10_12  and  C11_13 
REMARK    6  A    between atoms: C11_13  and  C12_14 
REMARK    7  A    between atoms: C14_17  and  N2_18 
REMARK    8  A    between atoms: C15_20  and  N4_21 
REMARK    9  A    between atoms: C17_23  and  O3_24 
REMARK   10  A    between atoms: O3_24  and  P1_25 
ROOT
HETATM    1  C7  UNL     1      21.736   1.469  52.341  1.00  0.00     0.102 A 
HETATM    2  C8  UNL     1      21.217   1.721  51.094  1.00  0.00     0.040 A 
HETATM    3  C9  UNL     1      20.033   1.224  50.610  1.00  0.00     0.010 A 
HETATM    4  C10 UNL     1      19.309   0.405  51.446  1.00  0.00    -0.051 A 
HETATM    5  C16 UNL     1      19.751   0.085  52.735  1.00  0.00     0.047 A 
HETATM    6  C17 UNL     1      20.972   0.627  53.169  1.00  0.00     0.107 A 
ENDROOT
BRANCH   4   7
HETATM    7  C11 UNL     1      18.019  -0.162  50.979  1.00  0.00     0.082 C 
BRANCH   7   8
HETATM    8  C12 UNL     1      16.840   0.330  51.708  1.00  0.00     0.010 A 
HETATM    9  C13 UNL     1      16.451   1.639  51.394  1.00  0.00     0.147 A 
HETATM   10  N1  UNL     1      15.367   2.205  52.004  1.00  0.00    -0.075 NA
HETATM   11  C14 UNL     1      14.670   1.492  52.916  1.00  0.00     0.721 A 
HETATM   12  N3  UNL     1      15.026   0.234  53.233  1.00  0.00    -0.045 NA
HETATM   13  C15 UNL     1      16.105  -0.362  52.641  1.00  0.00     0.148 A 
BRANCH  11  14
HETATM   14  N2  UNL     1      13.561   2.170  53.492  1.00  0.00    -0.231 N 
HETATM   15  H13 UNL     1      13.446   2.819  54.295  1.00  0.00     0.174 HD
HETATM   16  H14 UNL     1      12.557   2.131  53.174  1.00  0.00     0.174 HD
ENDBRANCH  11  14
BRANCH  13  17
HETATM   17  N4  UNL     1      16.501  -1.686  52.962  1.00  0.00    -0.383 N 
HETATM   18  H15 UNL     1      17.404  -2.237  52.867  1.00  0.00     0.157 HD
HETATM   19  H16 UNL     1      15.645  -2.108  53.370  1.00  0.00     0.157 HD
ENDBRANCH  13  17
ENDBRANCH   7   8
ENDBRANCH   4   7
BRANCH   6  20
HETATM   20  O3  UNL     1      21.252   0.199  54.483  1.00  0.00    -0.325 OA
BRANCH  20  21
HETATM   21  P1  UNL     1      21.852  -1.435  54.713  1.00  0.00     0.016 P 
HETATM   22  C18 UNL     1      23.474  -1.380  55.606  1.00  0.00     0.072 C 
HETATM   23  H18 UNL     1      22.074  -2.058  53.418  1.00  0.00     0.087 HD
ENDBRANCH  20  21
ENDBRANCH   6  20
BRANCH   1  24
HETATM   24  O2  UNL     1      22.836   1.816  53.045  1.00  0.00    -0.344 OA
BRANCH  24  25
HETATM   25  C6  UNL     1      24.095   2.258  52.693  1.00  0.00     0.214 C 
BRANCH  25  26
HETATM   26  C5  UNL     1      25.121   1.227  52.946  1.00  0.00    -0.034 A 
HETATM   27  C4  UNL     1      25.226  -0.096  52.630  1.00  0.00     0.012 A 
HETATM   28  C3  UNL     1      26.310  -0.849  52.971  1.00  0.00     0.037 A 
HETATM   29  C2  UNL     1      27.381  -0.335  53.659  1.00  0.00     0.068 A 
HETATM   30  C20 UNL     1      27.327   0.990  54.003  1.00  0.00     0.037 A 
HETATM   31  C19 UNL     1      26.217   1.737  53.647  1.00  0.00     0.012 A 
BRANCH  29  32
HETATM   32  O1  UNL     1      28.470  -1.106  53.998  1.00  0.00    -0.356 OA
HETATM   33  C1  UNL     1      29.790  -0.658  53.735  1.00  0.00     0.210 C 
ENDBRANCH  29  32
ENDBRANCH  25  26
ENDBRANCH  24  25
ENDBRANCH   1  24
TORSDOF 10
ENDMDL
MODEL 8
REMARK VINA RESULT:      -7.2      4.280      7.652
REMARK  10 active torsions:
REMARK  status: ('A' for Active; 'I' for Inactive)
REMARK    1  A    between atoms: O1_2  and  C2_3 
REMARK    2  A    between atoms: C5_6  and  C6_7 
REMARK    3  A    between atoms: C6_7  and  O2_8 
REMARK    4  A    between atoms: O2_8  and  C7_9 
REMARK    5  A    between atoms: C10_12  and  C11_13 
REMARK    6  A    between atoms: C11_13  and  C12_14 
REMARK    7  A    between atoms: C14_17  and  N2_18 
REMARK    8  A    between atoms: C15_20  and  N4_21 
REMARK    9  A    between atoms: C17_23  and  O3_24 
REMARK   10  A    between atoms: O3_24  and  P1_25 
ROOT
HETATM    1  C7  UNL     1      25.708   4.627  49.910  1.00  0.00     0.102 A 
HETATM    2  C8  UNL     1      26.792   4.006  49.339  1.00  0.00     0.040 A 
HETATM    3  C9  UNL     1      27.778   4.630  48.615  1.00  0.00     0.010 A 
HETATM    4  C10 UNL     1      27.666   5.992  48.451  1.00  0.00    -0.051 A 
HETATM    5  C16 UNL     1      26.600   6.719  48.993  1.00  0.00     0.047 A 
HETATM    6  C17 UNL     1      25.625   6.019  49.722  1.00  0.00     0.107 A 
ENDROOT
BRANCH   4   7
HETATM    7  C11 UNL     1      28.702   6.723  47.680  1.00  0.00     0.082 C 
BRANCH   7   8
HETATM    8  C12 UNL     1      30.078   6.504  48.152  1.00  0.00     0.010 A 
HETATM    9  C13 UNL     1      30.702   5.354  47.652  1.00  0.00     0.147 A 
HETATM   10  N1  UNL     1      31.983   5.046  48.017  1.00  0.00    -0.075 NA
HETATM   11  C14 UNL     1      32.647   5.861  48.865  1.00  0.00     0.721 A 
HETATM   12  N3  UNL     1      32.067   6.972  49.357  1.00  0.00    -0.045 NA
HETATM   13  C15 UNL     1      30.787   7.308  49.012  1.00  0.00     0.148 A 
BRANCH  11  14
HETATM   14  N2  UNL     1      33.971   5.454  49.181  1.00  0.00    -0.231 N 
HETATM   15  H13 UNL     1      34.604   4.709  48.830  1.00  0.00     0.174 HD
HETATM   16  H14 UNL     1      34.612   5.880  49.901  1.00  0.00     0.174 HD
ENDBRANCH  11  14
BRANCH  13  17
HETATM   17  N4  UNL     1      30.154   8.472  49.522  1.00  0.00    -0.383 N 
HETATM   18  H15 UNL     1      30.492   9.345  50.023  1.00  0.00     0.157 HD
HETATM   19  H16 UNL     1      29.151   8.324  49.300  1.00  0.00     0.157 HD
ENDBRANCH  13  17
ENDBRANCH   7   8
ENDBRANCH   4   7
BRANCH   6  20
HETATM   20  O3  UNL     1      24.636   6.909  50.188  1.00  0.00    -0.325 OA
BRANCH  20  21
HETATM   21  P1  UNL     1      24.452   8.450  49.366  1.00  0.00     0.016 P 
HETATM   22  C18 UNL     1      23.267   8.262  47.955  1.00  0.00     0.072 C 
HETATM   23  H18 UNL     1      25.736   8.866  48.822  1.00  0.00     0.087 HD
ENDBRANCH  20  21
ENDBRANCH   6  20
BRANCH   1  24
HETATM   24  O2  UNL     1      24.633   4.268  50.645  1.00  0.00    -0.344 OA
BRANCH  24  25
HETATM   25  C6  UNL     1      23.622   3.345  50.470  1.00  0.00     0.214 C 
BRANCH  25  26
HETATM   26  C5  UNL     1      23.710   2.252  51.458  1.00  0.00    -0.034 A 
HETATM   27  C4  UNL     1      24.700   1.805  52.285  1.00  0.00     0.012 A 
HETATM   28  C3  UNL     1      24.526   0.759  53.141  1.00  0.00     0.037 A 
HETATM   29  C2  UNL     1      23.341   0.074  53.240  1.00  0.00     0.068 A 
HETATM   30  C20 UNL     1      22.312   0.480  52.431  1.00  0.00     0.037 A 
HETATM   31  C19 UNL     1      22.510   1.544  51.568  1.00  0.00     0.012 A 
BRANCH  29  32
HETATM   32  O1  UNL     1      23.178  -0.981  54.109  1.00  0.00    -0.356 OA
HETATM   33  C1  UNL     1      21.903  -1.291  54.648  1.00  0.00     0.210 C 
ENDBRANCH  29  32
ENDBRANCH  25  26
ENDBRANCH  24  25
ENDBRANCH   1  24
TORSDOF 10
ENDMDL
MODEL 9
REMARK VINA RESULT:      -7.1      6.620      9.325
REMARK  10 active torsions:
REMARK  status: ('A' for Active; 'I' for Inactive)
REMARK    1  A    between atoms: O1_2  and  C2_3 
REMARK    2  A    between atoms: C5_6  and  C6_7 
REMARK    3  A    between atoms: C6_7  and  O2_8 
REMARK    4  A    between atoms: O2_8  and  C7_9 
REMARK    5  A    between atoms: C10_12  and  C11_13 
REMARK    6  A    between atoms: C11_13  and  C12_14 
REMARK    7  A    between atoms: C14_17  and  N2_18 
REMARK    8  A    between atoms: C15_20  and  N4_21 
REMARK    9  A    between atoms: C17_23  and  O3_24 
REMARK   10  A    between atoms: O3_24  and  P1_25 
ROOT
HETATM    1  C7  UNL     1      20.858  -0.170  52.890  1.00  0.00     0.102 A 
HETATM    2  C8  UNL     1      19.781  -0.796  53.470  1.00  0.00     0.040 A 
HETATM    3  C9  UNL     1      18.513  -0.850  52.946  1.00  0.00     0.010 A 
HETATM    4  C10 UNL     1      18.308  -0.221  51.738  1.00  0.00    -0.051 A 
HETATM    5  C16 UNL     1      19.339   0.445  51.065  1.00  0.00     0.047 A 
HETATM    6  C17 UNL     1      20.613   0.462  51.657  1.00  0.00     0.107 A 
ENDROOT
BRANCH   4   7
HETATM    7  C11 UNL     1      16.960  -0.246  51.121  1.00  0.00     0.082 C 
BRANCH   7   8
HETATM    8  C12 UNL     1      15.939   0.512  51.860  1.00  0.00     0.010 A 
HETATM    9  C13 UNL     1      16.000   1.903  51.701  1.00  0.00     0.147 A 
HETATM   10  N1  UNL     1      15.101   2.713  52.336  1.00  0.00    -0.075 NA
HETATM   11  C14 UNL     1      14.149   2.163  53.121  1.00  0.00     0.721 A 
HETATM   12  N3  UNL     1      14.072   0.830  53.288  1.00  0.00    -0.045 NA
HETATM   13  C15 UNL     1      14.955  -0.008  52.667  1.00  0.00     0.148 A 
BRANCH  11  14
HETATM   14  N2  UNL     1      13.264   3.090  53.736  1.00  0.00    -0.231 N 
HETATM   15  H13 UNL     1      12.243   3.265  53.678  1.00  0.00     0.174 HD
HETATM   16  H14 UNL     1      13.515   3.841  54.433  1.00  0.00     0.174 HD
ENDBRANCH  11  14
BRANCH  13  17
HETATM   17  N4  UNL     1      14.896  -1.417  52.833  1.00  0.00    -0.383 N 
HETATM   18  H15 UNL     1      15.154  -2.250  52.226  1.00  0.00     0.157 HD
HETATM   19  H16 UNL     1      14.501  -1.537  53.785  1.00  0.00     0.157 HD
ENDBRANCH  13  17
ENDBRANCH   7   8
ENDBRANCH   4   7
BRANCH   6  20
HETATM   20  O3  UNL     1      21.517   1.174  50.842  1.00  0.00    -0.325 OA
BRANCH  20  21
HETATM   21  P1  UNL     1      21.252   2.895  50.615  1.00  0.00     0.016 P 
HETATM   22  C18 UNL     1      22.071   3.833  51.986  1.00  0.00     0.072 C 
HETATM   23  H18 UNL     1      19.826   3.178  50.667  1.00  0.00     0.087 HD
ENDBRANCH  20  21
ENDBRANCH   6  20
BRANCH   1  24
HETATM   24  O2  UNL     1      22.163   0.026  53.178  1.00  0.00    -0.344 OA
BRANCH  24  25
HETATM   25  C6  UNL     1      23.186  -0.804  53.588  1.00  0.00     0.214 C 
BRANCH  25  26
HETATM   26  C5  UNL     1      24.508  -0.208  53.316  1.00  0.00    -0.034 A 
HETATM   27  C4  UNL     1      25.750  -0.729  53.094  1.00  0.00     0.012 A 
HETATM   28  C3  UNL     1      26.839   0.051  52.842  1.00  0.00     0.037 A 
HETATM   29  C2  UNL     1      26.773   1.421  52.793  1.00  0.00     0.068 A 
HETATM   30  C20 UNL     1      25.549   1.998  53.010  1.00  0.00     0.037 A 
HETATM   31  C19 UNL     1      24.455   1.188  53.263  1.00  0.00     0.012 A 
BRANCH  29  32
HETATM   32  O1  UNL     1      27.881   2.198  52.538  1.00  0.00    -0.356 OA
HETATM   33  C1  UNL     1      28.806   2.507  53.567  1.00  0.00     0.210 C 
ENDBRANCH  29  32
ENDBRANCH  25  26
ENDBRANCH  24  25
ENDBRANCH   1  24
TORSDOF 10
ENDMDL
