MODEL 1
REMARK VINA RESULT:      -8.3      0.000      0.000
REMARK  4 active torsions:
REMARK  status: ('A' for Active; 'I' for Inactive)
REMARK    1  A    between atoms: C6_6  and  C7_7 
REMARK    2  A    between atoms: C10_11  and  N2_12 
REMARK    3  A    between atoms: N2_12  and  C11_13 
REMARK    4  A    between atoms: C17_21  and  N4_22 
ROOT
HETATM    1  C7  UNL     1      22.754   0.135  52.305  1.00  0.00     0.173 A 
HETATM    2  N1  UNL     1      22.040   0.830  51.272  1.00  0.00    -0.288 NA
HETATM    3  C8  UNL     1      22.660   1.896  50.910  1.00  0.00     0.128 A 
HETATM    4  C9  UNL     1      23.917   2.074  51.671  1.00  0.00     0.055 A 
HETATM    5  C10 UNL     1      24.883   3.059  51.618  1.00  0.00     0.161 A 
HETATM    6  N3  UNL     1      25.900   2.890  52.471  1.00  0.00    -0.044 NA
HETATM    7  C17 UNL     1      25.987   1.854  53.313  1.00  0.00     0.722 A 
HETATM    8  N5  UNL     1      25.027   0.902  53.346  1.00  0.00    -0.065 NA
HETATM    9  C18 UNL     1      23.950   0.989  52.513  1.00  0.00     0.095 A 
ENDROOT
BRANCH   5  10
HETATM   10  N2  UNL     1      24.727   4.128  50.700  1.00  0.00    -0.340 N 
HETATM   11  H10 UNL     1      23.758   4.524  50.585  1.00  0.00     0.167 HD
BRANCH  10  12
HETATM   12  C11 UNL     1      25.731   4.737  49.907  1.00  0.00     0.035 A 
HETATM   13  C12 UNL     1      26.827   4.114  49.367  1.00  0.00     0.029 A 
HETATM   14  C13 UNL     1      27.790   4.725  48.600  1.00  0.00     0.004 A 
HETATM   15  C14 UNL     1      27.668   6.073  48.337  1.00  0.00     0.019 A 
HETATM   16  C15 UNL     1      26.584   6.746  48.858  1.00  0.00     0.013 A 
HETATM   17 BR1  UNL     1      26.408   8.605  48.501  1.00  0.00    -0.051 Br
HETATM   18  C16 UNL     1      25.661   6.083  49.612  1.00  0.00     0.048 A 
ENDBRANCH  10  12
ENDBRANCH   5  10
BRANCH   7  19
HETATM   19  N4  UNL     1      27.147   1.848  54.145  1.00  0.00    -0.231 N 
HETATM   20  H15 UNL     1      27.880   1.291  53.632  1.00  0.00     0.174 HD
HETATM   21  H16 UNL     1      27.141   2.343  55.067  1.00  0.00     0.174 HD
ENDBRANCH   7  19
BRANCH   1  22
HETATM   22  C6  UNL     1      21.974   0.095  53.577  1.00  0.00     0.067 A 
HETATM   23  C2  UNL     1      20.628  -0.491  53.427  1.00  0.00    -0.074 A 
HETATM   24  C1  UNL     1      19.470  -0.069  52.602  1.00  0.00     0.044 C 
HETATM   25  C3  UNL     1      20.517  -1.584  54.202  1.00  0.00     0.003 A 
HETATM   26  C4  UNL     1      21.771  -1.805  54.917  1.00  0.00    -0.003 A 
HETATM   27  C5  UNL     1      22.598  -0.837  54.552  1.00  0.00    -0.015 A 
ENDBRANCH   1  22
TORSDOF 4
ENDMDL
MODEL 2
REMARK VINA RESULT:      -8.2      1.417      3.078
REMARK  4 active torsions:
REMARK  status: ('A' for Active; 'I' for Inactive)
REMARK    1  A    between atoms: C6_6  and  C7_7 
REMARK    2  A    between atoms: C10_11  and  N2_12 
REMARK    3  A    between atoms: N2_12  and  C11_13 
REMARK    4  A    between atoms: C17_21  and  N4_22 
ROOT
HETATM    1  C7  UNL     1      23.291   1.537  52.957  1.00  0.00     0.173 A 
HETATM    2  N1  UNL     1      24.652   1.782  53.338  1.00  0.00    -0.288 NA
HETATM    3  C8  UNL     1      25.329   2.277  52.363  1.00  0.00     0.128 A 
HETATM    4  C9  UNL     1      24.492   2.438  51.153  1.00  0.00     0.055 A 
HETATM    5  C10 UNL     1      24.793   2.921  49.895  1.00  0.00     0.161 A 
HETATM    6  N3  UNL     1      23.766   2.918  49.036  1.00  0.00    -0.044 NA
HETATM    7  C17 UNL     1      22.541   2.485  49.358  1.00  0.00     0.722 A 
HETATM    8  N5  UNL     1      22.273   2.017  50.597  1.00  0.00    -0.065 NA
HETATM    9  C18 UNL     1      23.257   1.980  51.542  1.00  0.00     0.095 A 
ENDROOT
BRANCH   5  10
HETATM   10  N2  UNL     1      26.112   3.363  49.624  1.00  0.00    -0.340 N 
HETATM   11  H10 UNL     1      26.882   2.649  49.697  1.00  0.00     0.167 HD
BRANCH  10  12
HETATM   12  C11 UNL     1      26.525   4.669  49.262  1.00  0.00     0.035 A 
HETATM   13  C12 UNL     1      27.644   4.996  48.539  1.00  0.00     0.029 A 
HETATM   14  C13 UNL     1      28.025   6.271  48.198  1.00  0.00     0.004 A 
HETATM   15  C14 UNL     1      27.236   7.327  48.604  1.00  0.00     0.019 A 
HETATM   16  C15 UNL     1      26.100   7.053  49.333  1.00  0.00     0.013 A 
HETATM   17 BR1  UNL     1      25.007   8.502  49.897  1.00  0.00    -0.051 Br
HETATM   18  C16 UNL     1      25.775   5.764  49.640  1.00  0.00     0.048 A 
ENDBRANCH  10  12
ENDBRANCH   5  10
BRANCH   7  19
HETATM   19  N4  UNL     1      21.580   2.562  48.306  1.00  0.00    -0.231 N 
HETATM   20  H15 UNL     1      20.736   2.021  48.632  1.00  0.00     0.174 HD
HETATM   21  H16 UNL     1      21.796   3.088  47.427  1.00  0.00     0.174 HD
ENDBRANCH   7  19
BRANCH   1  22
HETATM   22  C6  UNL     1      22.964   0.082  53.005  1.00  0.00     0.067 A 
HETATM   23  C2  UNL     1      23.566  -0.623  54.154  1.00  0.00    -0.074 A 
HETATM   24  C1  UNL     1      24.985  -0.817  54.540  1.00  0.00     0.044 C 
HETATM   25  C3  UNL     1      22.599  -1.147  54.926  1.00  0.00     0.003 A 
HETATM   26  C4  UNL     1      21.292  -0.832  54.355  1.00  0.00    -0.003 A 
HETATM   27  C5  UNL     1      21.514  -0.128  53.255  1.00  0.00    -0.015 A 
ENDBRANCH   1  22
TORSDOF 4
ENDMDL
MODEL 3
REMARK VINA RESULT:      -8.2      3.835      5.251
REMARK  4 active torsions:
REMARK  status: ('A' for Active; 'I' for Inactive)
REMARK    1  A    between atoms: C6_6  and  C7_7 
REMARK    2  A    between atoms: C10_11  and  N2_12 
REMARK    3  A    between atoms: N2_12  and  C11_13 
REMARK    4  A    between atoms: C17_21  and  N4_22 
ROOT
HETATM    1  C7  UNL     1      20.127   0.644  52.944  1.00  0.00     0.173 A 
HETATM    2  N1  UNL     1      20.582  -0.098  54.085  1.00  0.00    -0.288 NA
HETATM    3  C8  UNL     1      21.866  -0.135  54.137  1.00  0.00     0.128 A 
HETATM    4  C9  UNL     1      22.473   0.599  53.005  1.00  0.00     0.055 A 
HETATM    5  C10 UNL     1      23.793   0.818  52.662  1.00  0.00     0.161 A 
HETATM    6  N3  UNL     1      23.969   1.539  51.550  1.00  0.00    -0.044 NA
HETATM    7  C17 UNL     1      22.956   2.018  50.818  1.00  0.00     0.722 A 
HETATM    8  N5  UNL     1      21.672   1.790  51.174  1.00  0.00    -0.065 NA
HETATM    9  C18 UNL     1      21.393   1.063  52.294  1.00  0.00     0.095 A 
ENDROOT
BRANCH   5  10
HETATM   10  N2  UNL     1      24.815   0.281  53.485  1.00  0.00    -0.340 N 
HETATM   11  H10 UNL     1      24.544  -0.495  54.143  1.00  0.00     0.167 HD
BRANCH  10  12
HETATM   12  C11 UNL     1      26.177   0.668  53.529  1.00  0.00     0.035 A 
HETATM   13  C12 UNL     1      26.654   1.952  53.591  1.00  0.00     0.029 A 
HETATM   14  C13 UNL     1      27.982   2.305  53.633  1.00  0.00     0.004 A 
HETATM   15  C14 UNL     1      28.932   1.307  53.613  1.00  0.00     0.019 A 
HETATM   16  C15 UNL     1      28.505  -0.002  53.552  1.00  0.00     0.013 A 
HETATM   17 BR1  UNL     1      29.808  -1.386  53.523  1.00  0.00    -0.051 Br
HETATM   18  C16 UNL     1      27.172  -0.288  53.512  1.00  0.00     0.048 A 
ENDBRANCH  10  12
ENDBRANCH   5  10
BRANCH   7  19
HETATM   19  N4  UNL     1      23.346   2.765  49.665  1.00  0.00    -0.231 N 
HETATM   20  H15 UNL     1      24.344   3.064  49.826  1.00  0.00     0.174 HD
HETATM   21  H16 UNL     1      22.673   2.915  48.878  1.00  0.00     0.174 HD
ENDBRANCH   7  19
BRANCH   1  22
HETATM   22  C6  UNL     1      19.371  -0.224  51.994  1.00  0.00     0.067 A 
HETATM   23  C2  UNL     1      18.238  -0.936  52.615  1.00  0.00    -0.074 A 
HETATM   24  C1  UNL     1      18.198  -1.925  53.720  1.00  0.00     0.044 C 
HETATM   25  C3  UNL     1      17.089  -0.571  52.021  1.00  0.00     0.003 A 
HETATM   26  C4  UNL     1      17.369   0.403  50.970  1.00  0.00    -0.003 A 
HETATM   27  C5  UNL     1      18.680   0.594  50.963  1.00  0.00    -0.015 A 
ENDBRANCH   1  22
TORSDOF 4
ENDMDL
MODEL 4
REMARK VINA RESULT:      -8.2      3.587      6.548
REMARK  4 active torsions:
REMARK  status: ('A' for Active; 'I' for Inactive)
REMARK    1  A    between atoms: C6_6  and  C7_7 
REMARK    2  A    between atoms: C10_11  and  N2_12 
REMARK    3  A    between atoms: N2_12  and  C11_13 
REMARK    4  A    between atoms: C17_21  and  N4_22 
ROOT
HETATM    1  C7  UNL     1      26.497  -0.502  52.910  1.00  0.00     0.173 A 
HETATM    2  N1  UNL     1      25.270  -0.979  53.483  1.00  0.00    -0.288 NA
HETATM    3  C8  UNL     1      24.301  -0.164  53.259  1.00  0.00     0.128 A 
HETATM    4  C9  UNL     1      24.753   1.011  52.481  1.00  0.00     0.055 A 
HETATM    5  C10 UNL     1      24.068   2.118  52.022  1.00  0.00     0.161 A 
HETATM    6  N3  UNL     1      24.816   2.995  51.341  1.00  0.00    -0.044 NA
HETATM    7  C17 UNL     1      26.124   2.824  51.116  1.00  0.00     0.722 A 
HETATM    8  N5  UNL     1      26.772   1.730  51.577  1.00  0.00    -0.065 NA
HETATM    9  C18 UNL     1      26.093   0.781  52.282  1.00  0.00     0.095 A 
ENDROOT
BRANCH   5  10
HETATM   10  N2  UNL     1      22.682   2.234  52.297  1.00  0.00    -0.340 N 
HETATM   11  H10 UNL     1      22.409   2.721  53.189  1.00  0.00     0.167 HD
BRANCH  10  12
HETATM   12  C11 UNL     1      21.605   1.766  51.504  1.00  0.00     0.035 A 
HETATM   13  C12 UNL     1      21.446   1.958  50.156  1.00  0.00     0.029 A 
HETATM   14  C13 UNL     1      20.392   1.494  49.407  1.00  0.00     0.004 A 
HETATM   15  C14 UNL     1      19.399   0.774  50.037  1.00  0.00     0.019 A 
HETATM   16  C15 UNL     1      19.511   0.553  51.392  1.00  0.00     0.013 A 
HETATM   17 BR1  UNL     1      18.148  -0.439  52.270  1.00  0.00    -0.051 Br
HETATM   18  C16 UNL     1      20.583   1.039  52.081  1.00  0.00     0.048 A 
ENDBRANCH  10  12
ENDBRANCH   5  10
BRANCH   7  19
HETATM   19  N4  UNL     1      26.749   3.869  50.370  1.00  0.00    -0.231 N 
HETATM   20  H15 UNL     1      27.611   4.146  50.909  1.00  0.00     0.174 HD
HETATM   21  H16 UNL     1      26.328   4.204  49.472  1.00  0.00     0.174 HD
ENDBRANCH   7  19
BRANCH   1  22
HETATM   22  C6  UNL     1      27.515  -0.213  53.963  1.00  0.00     0.067 A 
HETATM   23  C2  UNL     1      28.875  -0.665  53.610  1.00  0.00    -0.074 A 
HETATM   24  C1  UNL     1      29.404  -2.019  53.315  1.00  0.00     0.044 C 
HETATM   25  C3  UNL     1      29.710   0.387  53.573  1.00  0.00     0.003 A 
HETATM   26  C4  UNL     1      28.974   1.607  53.895  1.00  0.00    -0.003 A 
HETATM   27  C5  UNL     1      27.718   1.251  54.116  1.00  0.00    -0.015 A 
ENDBRANCH   1  22
TORSDOF 4
ENDMDL
MODEL 5
REMARK VINA RESULT:      -8.2      1.711      3.357
REMARK  4 active torsions:
REMARK  status: ('A' for Active; 'I' for Inactive)
REMARK    1  A    between atoms: C6_6  and  C7_7 
REMARK    2  A    between atoms: C10_11  and  N2_12 
REMARK    3  A    between atoms: N2_12  and  C11_13 
REMARK    4  A    between atoms: C17_21  and  N4_22 
ROOT
HETATM    1  C7  UNL     1      23.460   1.706  52.930  1.00  0.00     0.173 A 
HETATM    2  N1  UNL     1      24.848   1.881  53.247  1.00  0.00    -0.288 NA
HETATM    3  C8  UNL     1      25.499   2.367  52.250  1.00  0.00     0.128 A 
HETATM    4  C9  UNL     1      24.612   2.594  51.087  1.00  0.00     0.055 A 
HETATM    5  C10 UNL     1      24.873   3.092  49.826  1.00  0.00     0.161 A 
HETATM    6  N3  UNL     1      23.807   3.155  49.019  1.00  0.00    -0.044 NA
HETATM    7  C17 UNL     1      22.581   2.770  49.392  1.00  0.00     0.722 A 
HETATM    8  N5  UNL     1      22.352   2.285  50.633  1.00  0.00    -0.065 NA
HETATM    9  C18 UNL     1      23.377   2.183  51.527  1.00  0.00     0.095 A 
ENDROOT
BRANCH   5  10
HETATM   10  N2  UNL     1      26.197   3.481  49.500  1.00  0.00    -0.340 N 
HETATM   11  H10 UNL     1      26.954   2.761  49.627  1.00  0.00     0.167 HD
BRANCH  10  12
HETATM   12  C11 UNL     1      26.630   4.740  49.016  1.00  0.00     0.035 A 
HETATM   13  C12 UNL     1      25.853   5.859  48.857  1.00  0.00     0.029 A 
HETATM   14  C13 UNL     1      26.295   7.072  48.386  1.00  0.00     0.004 A 
HETATM   15  C14 UNL     1      27.622   7.202  48.037  1.00  0.00     0.019 A 
HETATM   16  C15 UNL     1      28.446   6.106  48.176  1.00  0.00     0.013 A 
HETATM   17 BR1  UNL     1      30.277   6.275  47.697  1.00  0.00    -0.051 Br
HETATM   18  C16 UNL     1      27.948   4.929  48.651  1.00  0.00     0.048 A 
ENDBRANCH  10  12
ENDBRANCH   5  10
BRANCH   7  19
HETATM   19  N4  UNL     1      21.574   2.914  48.391  1.00  0.00    -0.231 N 
HETATM   20  H15 UNL     1      20.833   2.197  48.607  1.00  0.00     0.174 HD
HETATM   21  H16 UNL     1      21.673   3.635  47.639  1.00  0.00     0.174 HD
ENDBRANCH   7  19
BRANCH   1  22
HETATM   22  C6  UNL     1      23.069   0.265  52.963  1.00  0.00     0.067 A 
HETATM   23  C2  UNL     1      23.796  -0.521  53.978  1.00  0.00    -0.074 A 
HETATM   24  C1  UNL     1      25.244  -0.797  54.141  1.00  0.00     0.044 C 
HETATM   25  C3  UNL     1      22.926  -1.040  54.862  1.00  0.00     0.003 A 
HETATM   26  C4  UNL     1      21.568  -0.639  54.505  1.00  0.00    -0.003 A 
HETATM   27  C5  UNL     1      21.662   0.108  53.415  1.00  0.00    -0.015 A 
ENDBRANCH   1  22
TORSDOF 4
ENDMDL
MODEL 6
REMARK VINA RESULT:      -8.2      2.701      5.011
REMARK  4 active torsions:
REMARK  status: ('A' for Active; 'I' for Inactive)
REMARK    1  A    between atoms: C6_6  and  C7_7 
REMARK    2  A    between atoms: C10_11  and  N2_12 
REMARK    3  A    between atoms: N2_12  and  C11_13 
REMARK    4  A    between atoms: C17_21  and  N4_22 
ROOT
HETATM    1  C7  UNL     1      26.931   0.329  53.917  1.00  0.00     0.173 A 
HETATM    2  N1  UNL     1      27.395   1.686  53.941  1.00  0.00    -0.288 NA
HETATM    3  C8  UNL     1      26.454   2.508  53.635  1.00  0.00     0.128 A 
HETATM    4  C9  UNL     1      25.188   1.796  53.353  1.00  0.00     0.055 A 
HETATM    5  C10 UNL     1      23.940   2.264  52.991  1.00  0.00     0.161 A 
HETATM    6  N3  UNL     1      23.016   1.313  52.816  1.00  0.00    -0.044 NA
HETATM    7  C17 UNL     1      23.266   0.008  52.977  1.00  0.00     0.722 A 
HETATM    8  N5  UNL     1      24.497  -0.425  53.332  1.00  0.00    -0.065 NA
HETATM    9  C18 UNL     1      25.505   0.472  53.532  1.00  0.00     0.095 A 
ENDROOT
BRANCH   5  10
HETATM   10  N2  UNL     1      23.746   3.661  52.839  1.00  0.00    -0.340 N 
HETATM   11  H10 UNL     1      23.562   4.217  53.714  1.00  0.00     0.167 HD
BRANCH  10  12
HETATM   12  C11 UNL     1      23.770   4.408  51.636  1.00  0.00     0.035 A 
HETATM   13  C12 UNL     1      22.710   5.064  51.066  1.00  0.00     0.029 A 
HETATM   14  C13 UNL     1      22.757   5.784  49.897  1.00  0.00     0.004 A 
HETATM   15  C14 UNL     1      23.955   5.870  49.221  1.00  0.00     0.019 A 
HETATM   16  C15 UNL     1      25.053   5.228  49.751  1.00  0.00     0.013 A 
HETATM   17 BR1  UNL     1      26.710   5.340  48.827  1.00  0.00    -0.051 Br
HETATM   18  C16 UNL     1      24.943   4.528  50.917  1.00  0.00     0.048 A 
ENDBRANCH  10  12
ENDBRANCH   5  10
BRANCH   7  19
HETATM   19  N4  UNL     1      22.151  -0.853  52.746  1.00  0.00    -0.231 N 
HETATM   20  H15 UNL     1      21.638  -0.930  53.663  1.00  0.00     0.174 HD
HETATM   21  H16 UNL     1      21.986  -1.263  51.797  1.00  0.00     0.174 HD
ENDBRANCH   7  19
BRANCH   1  22
HETATM   22  C6  UNL     1      27.628  -0.468  52.865  1.00  0.00     0.067 A 
HETATM   23  C2  UNL     1      28.981  -0.908  53.255  1.00  0.00    -0.074 A 
HETATM   24  C1  UNL     1      30.189  -0.129  53.619  1.00  0.00     0.044 C 
HETATM   25  C3  UNL     1      29.043  -2.251  53.253  1.00  0.00     0.003 A 
HETATM   26  C4  UNL     1      27.746  -2.800  52.866  1.00  0.00    -0.003 A 
HETATM   27  C5  UNL     1      26.943  -1.769  52.646  1.00  0.00    -0.015 A 
ENDBRANCH   1  22
TORSDOF 4
ENDMDL
MODEL 7
REMARK VINA RESULT:      -8.0      1.989      3.648
REMARK  4 active torsions:
REMARK  status: ('A' for Active; 'I' for Inactive)
REMARK    1  A    between atoms: C6_6  and  C7_7 
REMARK    2  A    between atoms: C10_11  and  N2_12 
REMARK    3  A    between atoms: N2_12  and  C11_13 
REMARK    4  A    between atoms: C17_21  and  N4_22 
ROOT
HETATM    1  C7  UNL     1      23.547   1.557  52.824  1.00  0.00     0.173 A 
HETATM    2  N1  UNL     1      24.350   2.670  53.243  1.00  0.00    -0.288 NA
HETATM    3  C8  UNL     1      24.433   3.561  52.320  1.00  0.00     0.128 A 
HETATM    4  C9  UNL     1      23.675   3.160  51.114  1.00  0.00     0.055 A 
HETATM    5  C10 UNL     1      23.488   3.795  49.902  1.00  0.00     0.161 A 
HETATM    6  N3  UNL     1      22.728   3.122  49.030  1.00  0.00    -0.044 NA
HETATM    7  C17 UNL     1      22.186   1.928  49.299  1.00  0.00     0.722 A 
HETATM    8  N5  UNL     1      22.385   1.327  50.494  1.00  0.00    -0.065 NA
HETATM    9  C18 UNL     1      23.146   1.937  51.447  1.00  0.00     0.095 A 
ENDROOT
BRANCH   5  10
HETATM   10  N2  UNL     1      24.092   5.060  49.687  1.00  0.00    -0.340 N 
HETATM   11  H10 UNL     1      23.515   5.912  49.909  1.00  0.00     0.167 HD
BRANCH  10  12
HETATM   12  C11 UNL     1      25.398   5.319  49.202  1.00  0.00     0.035 A 
HETATM   13  C12 UNL     1      26.457   4.449  49.218  1.00  0.00     0.029 A 
HETATM   14  C13 UNL     1      27.717   4.722  48.741  1.00  0.00     0.004 A 
HETATM   15  C14 UNL     1      27.963   5.965  48.198  1.00  0.00     0.019 A 
HETATM   16  C15 UNL     1      26.931   6.878  48.159  1.00  0.00     0.013 A 
HETATM   17 BR1  UNL     1      27.260   8.594  47.413  1.00  0.00    -0.051 Br
HETATM   18  C16 UNL     1      25.702   6.546  48.648  1.00  0.00     0.048 A 
ENDBRANCH  10  12
ENDBRANCH   5  10
BRANCH   7  19
HETATM   19  N4  UNL     1      21.407   1.369  48.242  1.00  0.00    -0.231 N 
HETATM   20  H15 UNL     1      20.803   0.623  48.677  1.00  0.00     0.174 HD
HETATM   21  H16 UNL     1      21.510   1.723  47.262  1.00  0.00     0.174 HD
ENDBRANCH   7  19
BRANCH   1  22
HETATM   22  C6  UNL     1      24.350   0.301  52.753  1.00  0.00     0.067 A 
HETATM   23  C2  UNL     1      25.807   0.531  52.720  1.00  0.00    -0.074 A 
HETATM   24  C1  UNL     1      26.655   1.257  51.743  1.00  0.00     0.044 C 
HETATM   25  C3  UNL     1      26.385  -0.049  53.786  1.00  0.00     0.003 A 
HETATM   26  C4  UNL     1      25.365  -0.700  54.602  1.00  0.00    -0.003 A 
HETATM   27  C5  UNL     1      24.202  -0.494  54.000  1.00  0.00    -0.015 A 
ENDBRANCH   1  22
TORSDOF 4
ENDMDL
MODEL 8
REMARK VINA RESULT:      -7.9      2.781      8.152
REMARK  4 active torsions:
REMARK  status: ('A' for Active; 'I' for Inactive)
REMARK    1  A    between atoms: C6_6  and  C7_7 
REMARK    2  A    between atoms: C10_11  and  N2_12 
REMARK    3  A    between atoms: N2_12  and  C11_13 
REMARK    4  A    between atoms: C17_21  and  N4_22 
ROOT
HETATM    1  C7  UNL     1      26.139   5.209  48.756  1.00  0.00     0.173 A 
HETATM    2  N1  UNL     1      26.886   4.042  49.126  1.00  0.00    -0.288 NA
HETATM    3  C8  UNL     1      26.385   3.477  50.168  1.00  0.00     0.128 A 
HETATM    4  C9  UNL     1      25.196   4.208  50.658  1.00  0.00     0.055 A 
HETATM    5  C10 UNL     1      24.356   3.970  51.727  1.00  0.00     0.161 A 
HETATM    6  N3  UNL     1      23.365   4.858  51.869  1.00  0.00    -0.044 NA
HETATM    7  C17 UNL     1      23.191   5.899  51.046  1.00  0.00     0.722 A 
HETATM    8  N5  UNL     1      24.028   6.111  50.006  1.00  0.00    -0.065 NA
HETATM    9  C18 UNL     1      25.068   5.258  49.781  1.00  0.00     0.095 A 
ENDROOT
BRANCH   5  10
HETATM   10  N2  UNL     1      24.600   2.846  52.558  1.00  0.00    -0.340 N 
HETATM   11  H10 UNL     1      25.464   2.873  53.159  1.00  0.00     0.167 HD
BRANCH  10  12
HETATM   12  C11 UNL     1      23.811   1.676  52.677  1.00  0.00     0.035 A 
HETATM   13  C12 UNL     1      24.147   0.537  53.364  1.00  0.00     0.029 A 
HETATM   14  C13 UNL     1      23.364  -0.588  53.467  1.00  0.00     0.004 A 
HETATM   15  C14 UNL     1      22.137  -0.599  52.838  1.00  0.00     0.019 A 
HETATM   16  C15 UNL     1      21.752   0.521  52.133  1.00  0.00     0.013 A 
HETATM   17 BR1  UNL     1      20.063   0.514  51.263  1.00  0.00    -0.051 Br
HETATM   18  C16 UNL     1      22.574   1.608  52.069  1.00  0.00     0.048 A 
ENDBRANCH  10  12
ENDBRANCH   5  10
BRANCH   7  19
HETATM   19  N4  UNL     1      22.077   6.735  51.361  1.00  0.00    -0.231 N 
HETATM   20  H15 UNL     1      22.379   7.345  52.165  1.00  0.00     0.174 HD
HETATM   21  H16 UNL     1      21.185   6.657  50.818  1.00  0.00     0.174 HD
ENDBRANCH   7  19
BRANCH   1  22
HETATM   22  C6  UNL     1      26.965   6.447  48.875  1.00  0.00     0.067 A 
HETATM   23  C2  UNL     1      28.224   6.395  48.107  1.00  0.00    -0.074 A 
HETATM   24  C1  UNL     1      29.386   5.478  48.206  1.00  0.00     0.044 C 
HETATM   25  C3  UNL     1      28.239   7.375  47.188  1.00  0.00     0.003 A 
HETATM   26  C4  UNL     1      27.002   8.146  47.275  1.00  0.00    -0.003 A 
HETATM   27  C5  UNL     1      26.279   7.605  48.245  1.00  0.00    -0.015 A 
ENDBRANCH   1  22
TORSDOF 4
ENDMDL
MODEL 9
REMARK VINA RESULT:      -7.5      3.428      8.249
REMARK  4 active torsions:
REMARK  status: ('A' for Active; 'I' for Inactive)
REMARK    1  A    between atoms: C6_6  and  C7_7 
REMARK    2  A    between atoms: C10_11  and  N2_12 
REMARK    3  A    between atoms: N2_12  and  C11_13 
REMARK    4  A    between atoms: C17_21  and  N4_22 
ROOT
HETATM    1  C7  UNL     1      26.033   6.612  48.908  1.00  0.00     0.173 A 
HETATM    2  N1  UNL     1      27.007   5.656  48.465  1.00  0.00    -0.288 NA
HETATM    3  C8  UNL     1      26.849   4.521  49.049  1.00  0.00     0.128 A 
HETATM    4  C9  UNL     1      25.712   4.557  49.996  1.00  0.00     0.055 A 
HETATM    5  C10 UNL     1      25.187   3.586  50.826  1.00  0.00     0.161 A 
HETATM    6  N3  UNL     1      24.138   3.984  51.556  1.00  0.00    -0.044 NA
HETATM    7  C17 UNL     1      23.628   5.220  51.495  1.00  0.00     0.722 A 
HETATM    8  N5  UNL     1      24.161   6.152  50.674  1.00  0.00    -0.065 NA
HETATM    9  C18 UNL     1      25.233   5.840  49.891  1.00  0.00     0.095 A 
ENDROOT
BRANCH   5  10
HETATM   10  N2  UNL     1      25.778   2.297  50.839  1.00  0.00    -0.340 N 
HETATM   11  H10 UNL     1      26.208   1.958  49.940  1.00  0.00     0.167 HD
BRANCH  10  12
HETATM   12  C11 UNL     1      25.860   1.399  51.931  1.00  0.00     0.035 A 
HETATM   13  C12 UNL     1      24.807   0.783  52.556  1.00  0.00     0.029 A 
HETATM   14  C13 UNL     1      24.911  -0.088  53.615  1.00  0.00     0.004 A 
HETATM   15  C14 UNL     1      26.164  -0.382  54.108  1.00  0.00     0.019 A 
HETATM   16  C15 UNL     1      27.257   0.212  53.515  1.00  0.00     0.013 A 
HETATM   17 BR1  UNL     1      28.989  -0.188  54.187  1.00  0.00    -0.051 Br
HETATM   18  C16 UNL     1      27.089   1.067  52.465  1.00  0.00     0.048 A 
ENDBRANCH  10  12
ENDBRANCH   5  10
BRANCH   7  19
HETATM   19  N4  UNL     1      22.508   5.452  52.350  1.00  0.00    -0.231 N 
HETATM   20  H15 UNL     1      21.940   6.216  51.897  1.00  0.00     0.174 HD
HETATM   21  H16 UNL     1      22.390   4.900  53.231  1.00  0.00     0.174 HD
ENDBRANCH   7  19
BRANCH   1  22
HETATM   22  C6  UNL     1      26.676   7.758  49.616  1.00  0.00     0.067 A 
HETATM   23  C2  UNL     1      27.806   8.352  48.877  1.00  0.00    -0.074 A 
HETATM   24  C1  UNL     1      29.093   7.765  48.431  1.00  0.00     0.044 C 
HETATM   25  C3  UNL     1      27.545   9.642  48.603  1.00  0.00     0.003 A 
HETATM   26  C4  UNL     1      26.232   9.998  49.134  1.00  0.00    -0.003 A 
HETATM   27  C5  UNL     1      25.743   8.911  49.713  1.00  0.00    -0.015 A 
ENDBRANCH   1  22
TORSDOF 4
ENDMDL
