MODEL 1
REMARK VINA RESULT:      -8.0      0.000      0.000
REMARK  7 active torsions:
REMARK  status: ('A' for Active; 'I' for Inactive)
REMARK    1  A    between atoms: O1_2  and  C2_3 
REMARK    2  A    between atoms: C7_8  and  O2_9 
REMARK    3  A    between atoms: N2_12  and  O3_13 
REMARK    4  A    between atoms: N3_14  and  C9_15 
REMARK    5  A    between atoms: C13_19  and  C14_20 
REMARK    6  A    between atoms: C14_20  and  O4_21 
REMARK    7  A    between atoms: C15_22  and  O5_23 
ROOT
HETATM    1  C2  UNL     1      26.278   1.588  52.157  1.00  0.00     0.102 A 
HETATM    2  C3  UNL     1      24.929   1.369  51.990  1.00  0.00     0.055 A 
HETATM    3  C4  UNL     1      24.170   0.566  52.814  1.00  0.00     0.015 A 
HETATM    4  C5  UNL     1      24.853  -0.032  53.858  1.00  0.00     0.095 A 
HETATM    5  C6  UNL     1      26.201   0.147  54.079  1.00  0.00     0.074 A 
HETATM    6  C7  UNL     1      26.901   0.963  53.217  1.00  0.00     0.103 A 
HETATM    7  N1  UNL     1      24.222  -0.799  54.678  1.00  0.00    -0.128 NA
HETATM    8  N2  UNL     1      22.852  -1.028  54.515  1.00  0.00    -0.064 N 
HETATM    9  N3  UNL     1      22.095  -0.463  53.492  1.00  0.00    -0.224 N 
HETATM   10  C18 UNL     1      22.874   0.367  52.639  1.00  0.00     0.134 A 
ENDROOT
BRANCH   9  11
HETATM   11  C9  UNL     1      20.707  -0.622  53.259  1.00  0.00     0.063 A 
HETATM   12  C10 UNL     1      19.919  -1.678  53.648  1.00  0.00     0.039 A 
HETATM   13  C11 UNL     1      18.586  -1.798  53.392  1.00  0.00    -0.049 A 
HETATM   14  C12 UNL     1      17.786  -2.969  53.842  1.00  0.00     0.049 C 
HETATM   15  C13 UNL     1      17.934  -0.790  52.682  1.00  0.00     0.005 A 
HETATM   16  C15 UNL     1      18.697   0.296  52.272  1.00  0.00     0.079 A 
HETATM   17  C17 UNL     1      20.045   0.362  52.561  1.00  0.00     0.069 A 
BRANCH  15  18
HETATM   18  C14 UNL     1      16.484  -0.920  52.405  1.00  0.00     0.206 C 
BRANCH  18  19
HETATM   19  O4  UNL     1      15.784  -0.158  53.367  1.00  0.00    -0.396 OA
HETATM   20  H16 UNL     1      16.215   0.735  53.452  1.00  0.00     0.209 HD
ENDBRANCH  18  19
ENDBRANCH  15  18
BRANCH  16  21
HETATM   21  O5  UNL     1      17.975   1.246  51.578  1.00  0.00    -0.355 OA
HETATM   22  C16 UNL     1      18.283   2.599  51.456  1.00  0.00     0.210 C 
ENDBRANCH  16  21
ENDBRANCH   9  11
BRANCH   8  23
HETATM   23  O3  UNL     1      22.256  -1.848  55.404  1.00  0.00    -0.251 OA
HETATM   24  H9  UNL     1      21.755  -2.539  54.868  1.00  0.00     0.248 HD
ENDBRANCH   8  23
BRANCH   1  25
HETATM   25  O1  UNL     1      27.052   2.392  51.338  1.00  0.00    -0.353 OA
HETATM   26  C1  UNL     1      26.457   3.150  50.308  1.00  0.00     0.210 C 
ENDBRANCH   1  25
BRANCH   6  27
HETATM   27  O2  UNL     1      28.280   1.154  53.433  1.00  0.00    -0.353 OA
HETATM   28  C8  UNL     1      28.960   0.224  54.262  1.00  0.00     0.210 C 
ENDBRANCH   6  27
TORSDOF 7
ENDMDL
MODEL 2
REMARK VINA RESULT:      -7.8      3.712      6.247
REMARK  7 active torsions:
REMARK  status: ('A' for Active; 'I' for Inactive)
REMARK    1  A    between atoms: O1_2  and  C2_3 
REMARK    2  A    between atoms: C7_8  and  O2_9 
REMARK    3  A    between atoms: N2_12  and  O3_13 
REMARK    4  A    between atoms: N3_14  and  C9_15 
REMARK    5  A    between atoms: C13_19  and  C14_20 
REMARK    6  A    between atoms: C14_20  and  O4_21 
REMARK    7  A    between atoms: C15_22  and  O5_23 
ROOT
HETATM    1  C2  UNL     1      27.028   5.990  48.748  1.00  0.00     0.102 A 
HETATM    2  C3  UNL     1      26.479   4.836  49.260  1.00  0.00     0.055 A 
HETATM    3  C4  UNL     1      25.448   4.812  50.174  1.00  0.00     0.015 A 
HETATM    4  C5  UNL     1      24.972   6.049  50.569  1.00  0.00     0.095 A 
HETATM    5  C6  UNL     1      25.479   7.240  50.094  1.00  0.00     0.074 A 
HETATM    6  C7  UNL     1      26.510   7.192  49.182  1.00  0.00     0.103 A 
HETATM    7  N1  UNL     1      24.009   6.121  51.421  1.00  0.00    -0.128 NA
HETATM    8  N2  UNL     1      23.445   4.955  51.946  1.00  0.00    -0.064 N 
HETATM    9  N3  UNL     1      23.867   3.673  51.600  1.00  0.00    -0.224 N 
HETATM   10  C18 UNL     1      24.931   3.693  50.656  1.00  0.00     0.134 A 
ENDROOT
BRANCH   9  11
HETATM   11  C9  UNL     1      23.348   2.441  52.064  1.00  0.00     0.063 A 
HETATM   12  C10 UNL     1      22.095   1.930  51.827  1.00  0.00     0.039 A 
HETATM   13  C11 UNL     1      21.629   0.742  52.305  1.00  0.00    -0.049 A 
HETATM   14  C12 UNL     1      20.258   0.242  52.012  1.00  0.00     0.049 C 
HETATM   15  C13 UNL     1      22.461  -0.048  53.100  1.00  0.00     0.005 A 
HETATM   16  C15 UNL     1      23.737   0.435  53.361  1.00  0.00     0.079 A 
HETATM   17  C17 UNL     1      24.153   1.647  52.850  1.00  0.00     0.069 A 
BRANCH  15  18
HETATM   18  C14 UNL     1      21.955  -1.340  53.618  1.00  0.00     0.206 C 
BRANCH  18  19
HETATM   19  O4  UNL     1      21.798  -1.220  55.017  1.00  0.00    -0.396 OA
HETATM   20  H16 UNL     1      21.864  -0.261  55.271  1.00  0.00     0.209 HD
ENDBRANCH  18  19
ENDBRANCH  15  18
BRANCH  16  21
HETATM   21  O5  UNL     1      24.493  -0.407  54.153  1.00  0.00    -0.355 OA
HETATM   22  C16 UNL     1      25.872  -0.592  54.089  1.00  0.00     0.210 C 
ENDBRANCH  16  21
ENDBRANCH   9  11
BRANCH   8  23
HETATM   23  O3  UNL     1      22.446   5.103  52.839  1.00  0.00    -0.251 OA
HETATM   24  H9  UNL     1      22.692   5.890  53.419  1.00  0.00     0.248 HD
ENDBRANCH   8  23
BRANCH   1  25
HETATM   25  O1  UNL     1      28.064   6.029  47.830  1.00  0.00    -0.353 OA
HETATM   26  C1  UNL     1      29.364   5.620  48.197  1.00  0.00     0.210 C 
ENDBRANCH   1  25
BRANCH   6  27
HETATM   27  O2  UNL     1      27.036   8.403  48.689  1.00  0.00    -0.353 OA
HETATM   28  C8  UNL     1      27.876   9.162  49.544  1.00  0.00     0.210 C 
ENDBRANCH   6  27
TORSDOF 7
ENDMDL
MODEL 3
REMARK VINA RESULT:      -7.7      0.887      2.140
REMARK  7 active torsions:
REMARK  status: ('A' for Active; 'I' for Inactive)
REMARK    1  A    between atoms: O1_2  and  C2_3 
REMARK    2  A    between atoms: C7_8  and  O2_9 
REMARK    3  A    between atoms: N2_12  and  O3_13 
REMARK    4  A    between atoms: N3_14  and  C9_15 
REMARK    5  A    between atoms: C13_19  and  C14_20 
REMARK    6  A    between atoms: C14_20  and  O4_21 
REMARK    7  A    between atoms: C15_22  and  O5_23 
ROOT
HETATM    1  C2  UNL     1      26.170   1.258  52.169  1.00  0.00     0.102 A 
HETATM    2  C3  UNL     1      24.817   1.173  51.931  1.00  0.00     0.055 A 
HETATM    3  C4  UNL     1      23.941   0.448  52.707  1.00  0.00     0.015 A 
HETATM    4  C5  UNL     1      24.506  -0.219  53.780  1.00  0.00     0.095 A 
HETATM    5  C6  UNL     1      25.852  -0.174  54.072  1.00  0.00     0.074 A 
HETATM    6  C7  UNL     1      26.672   0.571  53.254  1.00  0.00     0.103 A 
HETATM    7  N1  UNL     1      23.760  -0.922  54.561  1.00  0.00    -0.128 NA
HETATM    8  N2  UNL     1      22.385  -1.013  54.326  1.00  0.00    -0.064 N 
HETATM    9  N3  UNL     1      21.741  -0.373  53.269  1.00  0.00    -0.224 N 
HETATM   10  C18 UNL     1      22.642   0.378  52.465  1.00  0.00     0.134 A 
ENDROOT
BRANCH   9  11
HETATM   11  C9  UNL     1      20.359  -0.394  52.964  1.00  0.00     0.063 A 
HETATM   12  C10 UNL     1      19.682   0.469  52.137  1.00  0.00     0.039 A 
HETATM   13  C11 UNL     1      18.345   0.422  51.880  1.00  0.00    -0.049 A 
HETATM   14  C12 UNL     1      17.668   1.387  50.971  1.00  0.00     0.049 C 
HETATM   15  C13 UNL     1      17.567  -0.567  52.485  1.00  0.00     0.005 A 
HETATM   16  C15 UNL     1      18.217  -1.459  53.329  1.00  0.00     0.079 A 
HETATM   17  C17 UNL     1      19.575  -1.361  53.551  1.00  0.00     0.069 A 
BRANCH  15  18
HETATM   18  C14 UNL     1      16.113  -0.618  52.204  1.00  0.00     0.206 C 
BRANCH  18  19
HETATM   19  O4  UNL     1      15.425  -0.317  53.401  1.00  0.00    -0.396 OA
HETATM   20  H16 UNL     1      15.884   0.437  53.860  1.00  0.00     0.209 HD
ENDBRANCH  18  19
ENDBRANCH  15  18
BRANCH  16  21
HETATM   21  O5  UNL     1      17.375  -2.402  53.884  1.00  0.00    -0.355 OA
HETATM   22  C16 UNL     1      17.339  -3.763  53.585  1.00  0.00     0.210 C 
ENDBRANCH  16  21
ENDBRANCH   9  11
BRANCH   8  23
HETATM   23  O3  UNL     1      21.665  -1.773  55.176  1.00  0.00    -0.251 OA
HETATM   24  H9  UNL     1      21.473  -2.638  54.697  1.00  0.00     0.248 HD
ENDBRANCH   8  23
BRANCH   1  25
HETATM   25  O1  UNL     1      27.062   1.983  51.397  1.00  0.00    -0.353 OA
HETATM   26  C1  UNL     1      26.626   3.108  50.665  1.00  0.00     0.210 C 
ENDBRANCH   1  25
BRANCH   6  27
HETATM   27  O2  UNL     1      28.051   0.623  53.543  1.00  0.00    -0.353 OA
HETATM   28  C8  UNL     1      28.491   0.111  54.791  1.00  0.00     0.210 C 
ENDBRANCH   6  27
TORSDOF 7
ENDMDL
MODEL 4
REMARK VINA RESULT:      -7.6      1.941      8.068
REMARK  7 active torsions:
REMARK  status: ('A' for Active; 'I' for Inactive)
REMARK    1  A    between atoms: O1_2  and  C2_3 
REMARK    2  A    between atoms: C7_8  and  O2_9 
REMARK    3  A    between atoms: N2_12  and  O3_13 
REMARK    4  A    between atoms: N3_14  and  C9_15 
REMARK    5  A    between atoms: C13_19  and  C14_20 
REMARK    6  A    between atoms: C14_20  and  O4_21 
REMARK    7  A    between atoms: C15_22  and  O5_23 
ROOT
HETATM    1  C2  UNL     1      16.673  -0.155  50.746  1.00  0.00     0.102 A 
HETATM    2  C3  UNL     1      17.989   0.239  50.827  1.00  0.00     0.055 A 
HETATM    3  C4  UNL     1      18.847  -0.138  51.837  1.00  0.00     0.015 A 
HETATM    4  C5  UNL     1      18.302  -0.964  52.805  1.00  0.00     0.095 A 
HETATM    5  C6  UNL     1      16.993  -1.394  52.780  1.00  0.00     0.074 A 
HETATM    6  C7  UNL     1      16.190  -0.979  51.742  1.00  0.00     0.103 A 
HETATM    7  N1  UNL     1      19.032  -1.366  53.787  1.00  0.00    -0.128 NA
HETATM    8  N2  UNL     1      20.370  -0.970  53.877  1.00  0.00    -0.064 N 
HETATM    9  N3  UNL     1      20.991  -0.142  52.945  1.00  0.00    -0.224 N 
HETATM   10  C18 UNL     1      20.110   0.249  51.900  1.00  0.00     0.134 A 
ENDROOT
BRANCH   9  11
HETATM   11  C9  UNL     1      22.338   0.295  52.945  1.00  0.00     0.063 A 
HETATM   12  C10 UNL     1      23.460  -0.484  53.087  1.00  0.00     0.039 A 
HETATM   13  C11 UNL     1      24.742  -0.020  53.094  1.00  0.00    -0.049 A 
HETATM   14  C12 UNL     1      25.919  -0.917  53.252  1.00  0.00     0.049 C 
HETATM   15  C13 UNL     1      24.973   1.349  52.946  1.00  0.00     0.005 A 
HETATM   16  C15 UNL     1      23.862   2.169  52.799  1.00  0.00     0.079 A 
HETATM   17  C17 UNL     1      22.588   1.642  52.800  1.00  0.00     0.069 A 
BRANCH  15  18
HETATM   18  C14 UNL     1      26.366   1.852  52.952  1.00  0.00     0.206 C 
BRANCH  18  19
HETATM   19  O4  UNL     1      26.527   2.684  54.083  1.00  0.00    -0.396 OA
HETATM   20  H16 UNL     1      25.730   2.592  54.672  1.00  0.00     0.209 HD
ENDBRANCH  18  19
ENDBRANCH  15  18
BRANCH  16  21
HETATM   21  O5  UNL     1      24.180   3.506  52.659  1.00  0.00    -0.355 OA
HETATM   22  C16 UNL     1      23.761   4.357  51.639  1.00  0.00     0.210 C 
ENDBRANCH  16  21
ENDBRANCH   9  11
BRANCH   8  23
HETATM   23  O3  UNL     1      21.075  -1.421  54.935  1.00  0.00    -0.251 OA
HETATM   24  H9  UNL     1      20.791  -2.376  55.083  1.00  0.00     0.248 HD
ENDBRANCH   8  23
BRANCH   1  25
HETATM   25  O1  UNL     1      15.800   0.215  49.737  1.00  0.00    -0.353 OA
HETATM   26  C1  UNL     1      15.196   1.491  49.745  1.00  0.00     0.210 C 
ENDBRANCH   1  25
BRANCH   6  27
HETATM   27  O2  UNL     1      14.849  -1.412  51.706  1.00  0.00    -0.353 OA
HETATM   28  C8  UNL     1      13.916  -0.763  52.555  1.00  0.00     0.210 C 
ENDBRANCH   6  27
TORSDOF 7
ENDMDL
MODEL 5
REMARK VINA RESULT:      -7.5      3.581      8.561
REMARK  7 active torsions:
REMARK  status: ('A' for Active; 'I' for Inactive)
REMARK    1  A    between atoms: O1_2  and  C2_3 
REMARK    2  A    between atoms: C7_8  and  O2_9 
REMARK    3  A    between atoms: N2_12  and  O3_13 
REMARK    4  A    between atoms: N3_14  and  C9_15 
REMARK    5  A    between atoms: C13_19  and  C14_20 
REMARK    6  A    between atoms: C14_20  and  O4_21 
REMARK    7  A    between atoms: C15_22  and  O5_23 
ROOT
HETATM    1  C2  UNL     1      21.796   0.437  51.878  1.00  0.00     0.102 A 
HETATM    2  C3  UNL     1      22.332   1.470  51.144  1.00  0.00     0.055 A 
HETATM    3  C4  UNL     1      23.642   1.887  51.241  1.00  0.00     0.015 A 
HETATM    4  C5  UNL     1      24.424   1.191  52.146  1.00  0.00     0.095 A 
HETATM    5  C6  UNL     1      23.946   0.148  52.910  1.00  0.00     0.074 A 
HETATM    6  C7  UNL     1      22.627  -0.217  52.764  1.00  0.00     0.103 A 
HETATM    7  N1  UNL     1      25.661   1.513  52.302  1.00  0.00    -0.128 NA
HETATM    8  N2  UNL     1      26.214   2.561  51.561  1.00  0.00    -0.064 N 
HETATM    9  N3  UNL     1      25.495   3.309  50.631  1.00  0.00    -0.224 N 
HETATM   10  C18 UNL     1      24.142   2.882  50.527  1.00  0.00     0.134 A 
ENDROOT
BRANCH   9  11
HETATM   11  C9  UNL     1      25.972   4.371  49.826  1.00  0.00     0.063 A 
HETATM   12  C10 UNL     1      27.228   4.497  49.283  1.00  0.00     0.039 A 
HETATM   13  C11 UNL     1      27.651   5.545  48.522  1.00  0.00    -0.049 A 
HETATM   14  C12 UNL     1      29.027   5.623  47.959  1.00  0.00     0.049 C 
HETATM   15  C13 UNL     1      26.770   6.592  48.250  1.00  0.00     0.005 A 
HETATM   16  C15 UNL     1      25.490   6.500  48.782  1.00  0.00     0.079 A 
HETATM   17  C17 UNL     1      25.118   5.414  49.547  1.00  0.00     0.069 A 
BRANCH  15  18
HETATM   18  C14 UNL     1      27.230   7.731  47.422  1.00  0.00     0.206 C 
BRANCH  18  19
HETATM   19  O4  UNL     1      27.302   8.874  48.249  1.00  0.00    -0.396 OA
HETATM   20  H16 UNL     1      26.620   9.535  47.951  1.00  0.00     0.209 HD
ENDBRANCH  18  19
ENDBRANCH  15  18
BRANCH  16  21
HETATM   21  O5  UNL     1      24.684   7.576  48.466  1.00  0.00    -0.355 OA
HETATM   22  C16 UNL     1      23.295   7.570  48.355  1.00  0.00     0.210 C 
ENDBRANCH  16  21
ENDBRANCH   9  11
BRANCH   8  23
HETATM   23  O3  UNL     1      27.513   2.850  51.779  1.00  0.00    -0.251 OA
HETATM   24  H9  UNL     1      27.763   2.409  52.650  1.00  0.00     0.248 HD
ENDBRANCH   8  23
BRANCH   1  25
HETATM   25  O1  UNL     1      20.482   0.008  51.791  1.00  0.00    -0.353 OA
HETATM   26  C1  UNL     1      19.576   0.646  50.916  1.00  0.00     0.210 C 
ENDBRANCH   1  25
BRANCH   6  27
HETATM   27  O2  UNL     1      22.128  -1.283  53.540  1.00  0.00    -0.353 OA
HETATM   28  C8  UNL     1      22.008  -1.089  54.940  1.00  0.00     0.210 C 
ENDBRANCH   6  27
TORSDOF 7
ENDMDL
MODEL 6
REMARK VINA RESULT:      -7.5      4.733      6.277
REMARK  7 active torsions:
REMARK  status: ('A' for Active; 'I' for Inactive)
REMARK    1  A    between atoms: O1_2  and  C2_3 
REMARK    2  A    between atoms: C7_8  and  O2_9 
REMARK    3  A    between atoms: N2_12  and  O3_13 
REMARK    4  A    between atoms: N3_14  and  C9_15 
REMARK    5  A    between atoms: C13_19  and  C14_20 
REMARK    6  A    between atoms: C14_20  and  O4_21 
REMARK    7  A    between atoms: C15_22  and  O5_23 
ROOT
HETATM    1  C2  UNL     1      25.902  -0.204  54.022  1.00  0.00     0.102 A 
HETATM    2  C3  UNL     1      25.025   0.463  53.198  1.00  0.00     0.055 A 
HETATM    3  C4  UNL     1      25.399   1.444  52.306  1.00  0.00     0.015 A 
HETATM    4  C5  UNL     1      26.750   1.740  52.277  1.00  0.00     0.095 A 
HETATM    5  C6  UNL     1      27.678   1.108  53.076  1.00  0.00     0.074 A 
HETATM    6  C7  UNL     1      27.237   0.136  53.945  1.00  0.00     0.103 A 
HETATM    7  N1  UNL     1      27.189   2.645  51.472  1.00  0.00    -0.128 NA
HETATM    8  N2  UNL     1      26.305   3.328  50.632  1.00  0.00    -0.064 N 
HETATM    9  N3  UNL     1      24.933   3.089  50.602  1.00  0.00    -0.224 N 
HETATM   10  C18 UNL     1      24.542   2.075  51.520  1.00  0.00     0.134 A 
ENDROOT
BRANCH   9  11
HETATM   11  C9  UNL     1      23.968   3.715  49.776  1.00  0.00     0.063 A 
HETATM   12  C10 UNL     1      23.395   3.201  48.638  1.00  0.00     0.039 A 
HETATM   13  C11 UNL     1      22.477   3.844  47.864  1.00  0.00    -0.049 A 
HETATM   14  C12 UNL     1      21.891   3.233  46.640  1.00  0.00     0.049 C 
HETATM   15  C13 UNL     1      22.059   5.127  48.222  1.00  0.00     0.005 A 
HETATM   16  C15 UNL     1      22.616   5.680  49.368  1.00  0.00     0.079 A 
HETATM   17  C17 UNL     1      23.543   4.980  50.113  1.00  0.00     0.069 A 
BRANCH  15  18
HETATM   18  C14 UNL     1      21.059   5.825  47.381  1.00  0.00     0.206 C 
BRANCH  18  19
HETATM   19  O4  UNL     1      19.836   5.854  48.086  1.00  0.00    -0.396 OA
HETATM   20  H16 UNL     1      19.242   6.542  47.682  1.00  0.00     0.209 HD
ENDBRANCH  18  19
ENDBRANCH  15  18
BRANCH  16  21
HETATM   21  O5  UNL     1      22.148   6.948  49.651  1.00  0.00    -0.355 OA
HETATM   22  C16 UNL     1      21.540   7.366  50.832  1.00  0.00     0.210 C 
ENDBRANCH  16  21
ENDBRANCH   9  11
BRANCH   8  23
HETATM   23  O3  UNL     1      26.830   4.269  49.821  1.00  0.00    -0.251 OA
HETATM   24  H9  UNL     1      27.469   4.809  50.383  1.00  0.00     0.248 HD
ENDBRANCH   8  23
BRANCH   1  25
HETATM   25  O1  UNL     1      25.541  -1.193  54.922  1.00  0.00    -0.353 OA
HETATM   26  C1  UNL     1      24.219  -1.268  55.411  1.00  0.00     0.210 C 
ENDBRANCH   1  25
BRANCH   6  27
HETATM   27  O2  UNL     1      28.177  -0.517  54.767  1.00  0.00    -0.353 OA
HETATM   28  C8  UNL     1      29.439  -0.844  54.207  1.00  0.00     0.210 C 
ENDBRANCH   6  27
TORSDOF 7
ENDMDL
MODEL 7
REMARK VINA RESULT:      -7.4      3.878      9.148
REMARK  7 active torsions:
REMARK  status: ('A' for Active; 'I' for Inactive)
REMARK    1  A    between atoms: O1_2  and  C2_3 
REMARK    2  A    between atoms: C7_8  and  O2_9 
REMARK    3  A    between atoms: N2_12  and  O3_13 
REMARK    4  A    between atoms: N3_14  and  C9_15 
REMARK    5  A    between atoms: C13_19  and  C14_20 
REMARK    6  A    between atoms: C14_20  and  O4_21 
REMARK    7  A    between atoms: C15_22  and  O5_23 
ROOT
HETATM    1  C2  UNL     1      24.028   0.360  53.144  1.00  0.00     0.102 A 
HETATM    2  C3  UNL     1      24.889   1.284  52.596  1.00  0.00     0.055 A 
HETATM    3  C4  UNL     1      24.570   2.098  51.532  1.00  0.00     0.015 A 
HETATM    4  C5  UNL     1      23.295   1.939  51.019  1.00  0.00     0.095 A 
HETATM    5  C6  UNL     1      22.387   1.032  51.523  1.00  0.00     0.074 A 
HETATM    6  C7  UNL     1      22.771   0.249  52.588  1.00  0.00     0.103 A 
HETATM    7  N1  UNL     1      22.912   2.659  50.023  1.00  0.00    -0.128 NA
HETATM    8  N2  UNL     1      23.780   3.600  49.459  1.00  0.00    -0.064 N 
HETATM    9  N3  UNL     1      25.076   3.821  49.917  1.00  0.00    -0.224 N 
HETATM   10  C18 UNL     1      25.410   2.982  51.017  1.00  0.00     0.134 A 
ENDROOT
BRANCH   9  11
HETATM   11  C9  UNL     1      26.016   4.758  49.424  1.00  0.00     0.063 A 
HETATM   12  C10 UNL     1      27.274   4.492  48.942  1.00  0.00     0.039 A 
HETATM   13  C11 UNL     1      28.154   5.427  48.487  1.00  0.00    -0.049 A 
HETATM   14  C12 UNL     1      29.506   5.075  47.975  1.00  0.00     0.049 C 
HETATM   15  C13 UNL     1      27.784   6.773  48.494  1.00  0.00     0.005 A 
HETATM   16  C15 UNL     1      26.518   7.082  48.974  1.00  0.00     0.079 A 
HETATM   17  C17 UNL     1      25.670   6.091  49.423  1.00  0.00     0.069 A 
BRANCH  15  18
HETATM   18  C14 UNL     1      28.741   7.790  47.998  1.00  0.00     0.206 C 
BRANCH  18  19
HETATM   19  O4  UNL     1      29.332   8.418  49.117  1.00  0.00    -0.396 OA
HETATM   20  H16 UNL     1      28.793   8.214  49.929  1.00  0.00     0.209 HD
ENDBRANCH  18  19
ENDBRANCH  15  18
BRANCH  16  21
HETATM   21  O5  UNL     1      26.233   8.433  48.946  1.00  0.00    -0.355 OA
HETATM   22  C16 UNL     1      25.958   9.247  50.043  1.00  0.00     0.210 C 
ENDBRANCH  16  21
ENDBRANCH   9  11
BRANCH   8  23
HETATM   23  O3  UNL     1      23.317   4.315  48.414  1.00  0.00    -0.251 OA
HETATM   24  H9  UNL     1      22.356   4.539  48.621  1.00  0.00     0.248 HD
ENDBRANCH   8  23
BRANCH   1  25
HETATM   25  O1  UNL     1      24.335  -0.464  54.214  1.00  0.00    -0.353 OA
HETATM   26  C1  UNL     1      25.651  -0.521  54.721  1.00  0.00     0.210 C 
ENDBRANCH   1  25
BRANCH   6  27
HETATM   27  O2  UNL     1      21.851  -0.681  53.112  1.00  0.00    -0.353 OA
HETATM   28  C8  UNL     1      20.490  -0.293  53.206  1.00  0.00     0.210 C 
ENDBRANCH   6  27
TORSDOF 7
ENDMDL
MODEL 8
REMARK VINA RESULT:      -7.3      4.740      6.424
REMARK  7 active torsions:
REMARK  status: ('A' for Active; 'I' for Inactive)
REMARK    1  A    between atoms: O1_2  and  C2_3 
REMARK    2  A    between atoms: C7_8  and  O2_9 
REMARK    3  A    between atoms: N2_12  and  O3_13 
REMARK    4  A    between atoms: N3_14  and  C9_15 
REMARK    5  A    between atoms: C13_19  and  C14_20 
REMARK    6  A    between atoms: C14_20  and  O4_21 
REMARK    7  A    between atoms: C15_22  and  O5_23 
ROOT
HETATM    1  C2  UNL     1      25.820  -0.257  53.904  1.00  0.00     0.102 A 
HETATM    2  C3  UNL     1      24.948   0.600  53.273  1.00  0.00     0.055 A 
HETATM    3  C4  UNL     1      25.337   1.596  52.405  1.00  0.00     0.015 A 
HETATM    4  C5  UNL     1      26.700   1.699  52.189  1.00  0.00     0.095 A 
HETATM    5  C6  UNL     1      27.624   0.872  52.790  1.00  0.00     0.074 A 
HETATM    6  C7  UNL     1      27.166  -0.103  53.647  1.00  0.00     0.103 A 
HETATM    7  N1  UNL     1      27.154   2.604  51.391  1.00  0.00    -0.128 NA
HETATM    8  N2  UNL     1      26.275   3.479  50.746  1.00  0.00    -0.064 N 
HETATM    9  N3  UNL     1      24.892   3.439  50.911  1.00  0.00    -0.224 N 
HETATM   10  C18 UNL     1      24.485   2.412  51.806  1.00  0.00     0.134 A 
ENDROOT
BRANCH   9  11
HETATM   11  C9  UNL     1      23.928   4.268  50.289  1.00  0.00     0.063 A 
HETATM   12  C10 UNL     1      23.276   5.341  50.848  1.00  0.00     0.039 A 
HETATM   13  C11 UNL     1      22.343   6.107  50.217  1.00  0.00    -0.049 A 
HETATM   14  C12 UNL     1      21.672   7.260  50.877  1.00  0.00     0.049 C 
HETATM   15  C13 UNL     1      21.993   5.811  48.899  1.00  0.00     0.005 A 
HETATM   16  C15 UNL     1      22.631   4.732  48.299  1.00  0.00     0.079 A 
HETATM   17  C17 UNL     1      23.570   3.992  48.988  1.00  0.00     0.069 A 
BRANCH  15  18
HETATM   18  C14 UNL     1      20.979   6.644  48.213  1.00  0.00     0.206 C 
BRANCH  18  19
HETATM   19  O4  UNL     1      19.837   5.845  47.984  1.00  0.00    -0.396 OA
HETATM   20  H16 UNL     1      20.116   4.894  47.894  1.00  0.00     0.209 HD
ENDBRANCH  18  19
ENDBRANCH  15  18
BRANCH  16  21
HETATM   21  O5  UNL     1      22.228   4.509  46.997  1.00  0.00    -0.355 OA
HETATM   22  C16 UNL     1      21.985   3.273  46.403  1.00  0.00     0.210 C 
ENDBRANCH  16  21
ENDBRANCH   9  11
BRANCH   8  23
HETATM   23  O3  UNL     1      26.818   4.406  49.931  1.00  0.00    -0.251 OA
HETATM   24  H9  UNL     1      26.575   5.305  50.316  1.00  0.00     0.248 HD
ENDBRANCH   8  23
BRANCH   1  25
HETATM   25  O1  UNL     1      25.443  -1.262  54.778  1.00  0.00    -0.353 OA
HETATM   26  C1  UNL     1      24.183  -1.225  55.413  1.00  0.00     0.210 C 
ENDBRANCH   1  25
BRANCH   6  27
HETATM   27  O2  UNL     1      28.103  -0.954  54.267  1.00  0.00    -0.353 OA
HETATM   28  C8  UNL     1      29.315  -1.224  53.582  1.00  0.00     0.210 C 
ENDBRANCH   6  27
TORSDOF 7
ENDMDL
MODEL 9
REMARK VINA RESULT:      -7.3      4.484      7.867
REMARK  7 active torsions:
REMARK  status: ('A' for Active; 'I' for Inactive)
REMARK    1  A    between atoms: O1_2  and  C2_3 
REMARK    2  A    between atoms: C7_8  and  O2_9 
REMARK    3  A    between atoms: N2_12  and  O3_13 
REMARK    4  A    between atoms: N3_14  and  C9_15 
REMARK    5  A    between atoms: C13_19  and  C14_20 
REMARK    6  A    between atoms: C14_20  and  O4_21 
REMARK    7  A    between atoms: C15_22  and  O5_23 
ROOT
HETATM    1  C2  UNL     1      24.512   0.128  53.086  1.00  0.00     0.102 A 
HETATM    2  C3  UNL     1      24.072   1.269  52.456  1.00  0.00     0.055 A 
HETATM    3  C4  UNL     1      24.876   2.091  51.697  1.00  0.00     0.015 A 
HETATM    4  C5  UNL     1      26.199   1.699  51.594  1.00  0.00     0.095 A 
HETATM    5  C6  UNL     1      26.701   0.568  52.200  1.00  0.00     0.074 A 
HETATM    6  C7  UNL     1      25.842  -0.208  52.945  1.00  0.00     0.103 A 
HETATM    7  N1  UNL     1      27.024   2.409  50.903  1.00  0.00    -0.128 NA
HETATM    8  N2  UNL     1      26.585   3.570  50.259  1.00  0.00    -0.064 N 
HETATM    9  N3  UNL     1      25.271   4.030  50.314  1.00  0.00    -0.224 N 
HETATM   10  C18 UNL     1      24.437   3.184  51.096  1.00  0.00     0.134 A 
ENDROOT
BRANCH   9  11
HETATM   11  C9  UNL     1      24.734   5.178  49.684  1.00  0.00     0.063 A 
HETATM   12  C10 UNL     1      23.831   5.208  48.649  1.00  0.00     0.039 A 
HETATM   13  C11 UNL     1      23.348   6.338  48.062  1.00  0.00    -0.049 A 
HETATM   14  C12 UNL     1      22.368   6.305  46.943  1.00  0.00     0.049 C 
HETATM   15  C13 UNL     1      23.780   7.584  48.520  1.00  0.00     0.005 A 
HETATM   16  C15 UNL     1      24.694   7.595  49.566  1.00  0.00     0.079 A 
HETATM   17  C17 UNL     1      25.148   6.417  50.121  1.00  0.00     0.069 A 
BRANCH  15  18
HETATM   18  C14 UNL     1      23.254   8.813  47.881  1.00  0.00     0.206 C 
BRANCH  18  19
HETATM   19  O4  UNL     1      22.401   9.456  48.806  1.00  0.00    -0.396 OA
HETATM   20  H16 UNL     1      21.467   9.147  48.658  1.00  0.00     0.209 HD
ENDBRANCH  18  19
ENDBRANCH  15  18
BRANCH  16  21
HETATM   21  O5  UNL     1      25.068   8.866  49.956  1.00  0.00    -0.355 OA
HETATM   22  C16 UNL     1      26.364   9.375  49.998  1.00  0.00     0.210 C 
ENDBRANCH  16  21
ENDBRANCH   9  11
BRANCH   8  23
HETATM   23  O3  UNL     1      27.502   4.269  49.560  1.00  0.00    -0.251 OA
HETATM   24  H9  UNL     1      28.162   3.598  49.200  1.00  0.00     0.248 HD
ENDBRANCH   8  23
BRANCH   1  25
HETATM   25  O1  UNL     1      23.715  -0.707  53.851  1.00  0.00    -0.353 OA
HETATM   26  C1  UNL     1      22.417  -1.053  53.419  1.00  0.00     0.210 C 
ENDBRANCH   1  25
BRANCH   6  27
HETATM   27  O2  UNL     1      26.344  -1.367  53.570  1.00  0.00    -0.353 OA
HETATM   28  C8  UNL     1      27.156  -2.241  52.801  1.00  0.00     0.210 C 
ENDBRANCH   6  27
TORSDOF 7
ENDMDL
