MODEL 1
REMARK VINA RESULT:     -10.4      0.000      0.000
REMARK  5 active torsions:
REMARK  status: ('A' for Active; 'I' for Inactive)
REMARK    1  A    between atoms: N1_1  and  C1_2 
REMARK    2  A    between atoms: N3_11  and  C9_12 
REMARK    3  A    between atoms: C10_13  and  C24_31 
REMARK    4  A    between atoms: C13_17  and  C14_18 
REMARK    5  A    between atoms: N6_21  and  C16_22 
ROOT
HETATM    1  C9  UNL     1      21.774   4.117  51.568  1.00  0.00     0.109 A 
HETATM    2  C10 UNL     1      20.731   3.750  50.573  1.00  0.00     0.023 A 
HETATM    3  N4  UNL     1      21.442   2.765  51.166  1.00  0.00     0.000 N 
HETATM    4  C11 UNL     1      21.273   1.275  50.846  1.00  0.00    -0.019 A 
HETATM    5  C12 UNL     1      22.148   0.423  51.605  1.00  0.00    -0.009 A 
HETATM    6  C13 UNL     1      23.070   0.696  52.527  1.00  0.00    -0.029 A 
HETATM    7  C22 UNL     1      23.219   2.051  52.808  1.00  0.00    -0.002 A 
HETATM    8  C23 UNL     1      22.220   2.656  51.903  1.00  0.00     0.018 A 
HETATM    9  C24 UNL     1      21.101   2.476  50.805  1.00  0.00     0.056 A 
ENDROOT
BRANCH   1  10
HETATM   10  N3  UNL     1      22.893   4.832  51.042  1.00  0.00    -0.341 N 
HETATM   11  C1  UNL     1      22.904   6.246  50.960  1.00  0.00     0.082 A 
HETATM   12  C2  UNL     1      23.972   6.874  50.391  1.00  0.00     0.074 A 
HETATM   13  C3  UNL     1      25.001   5.989  49.920  1.00  0.00     0.067 A 
HETATM   14  N2  UNL     1      26.004   6.610  49.337  1.00  0.00    -0.261 NA
HETATM   15  C7  UNL     1      25.031   4.548  49.986  1.00  0.00    -0.010 A 
HETATM   16  C4  UNL     1      27.068   5.808  48.839  1.00  0.00     0.113 A 
HETATM   17  C5  UNL     1      27.230   4.479  48.863  1.00  0.00    -0.003 A 
HETATM   18  C6  UNL     1      26.132   3.701  49.508  1.00  0.00     0.071 A 
HETATM   19  C8  UNL     1      23.961   3.988  50.556  1.00  0.00     0.102 A 
BRANCH  11  20
HETATM   20  N1  UNL     1      21.811   7.039  51.458  1.00  0.00    -0.288 NA
HETATM   21  H1  UNL     1      21.258   7.415  50.626  1.00  0.00     0.125 HD
HETATM   22  H2  UNL     1      21.202   7.460  50.679  1.00  0.00     0.125 HD
ENDBRANCH  11  20
ENDBRANCH   1  10
BRANCH   6  23
HETATM   23  C14 UNL     1      24.014   0.086  53.397  1.00  0.00     0.010 A 
HETATM   24  C15 UNL     1      23.996  -0.857  54.376  1.00  0.00     0.152 A 
HETATM   25  N5  UNL     1      25.282  -0.921  54.741  1.00  0.00    -0.184 NA
HETATM   26  N6  UNL     1      26.021  -0.086  54.047  1.00  0.00    -0.276 N 
HETATM   27  C21 UNL     1      25.258   0.587  53.168  1.00  0.00     0.126 A 
BRANCH  26  28
HETATM   28  C16 UNL     1      27.485  -0.018  54.292  1.00  0.00     0.113 C 
HETATM   29  C17 UNL     1      28.214  -0.988  53.444  1.00  0.00     0.057 C 
HETATM   30  C18 UNL     1      29.700  -0.863  53.649  1.00  0.00     0.271 C 
HETATM   31  N7  UNL     1      30.112   0.523  53.400  1.00  0.00     0.083 N 
HETATM   32  C19 UNL     1      29.477   1.399  54.368  1.00  0.00     0.271 C 
HETATM   33  H18 UNL     1      29.850   0.809  52.423  1.00  0.00     0.315 HD
HETATM   34  C20 UNL     1      27.986   1.368  54.132  1.00  0.00     0.057 C 
ENDBRANCH  26  28
ENDBRANCH   6  23
TORSDOF 5
ENDMDL
MODEL 2
REMARK VINA RESULT:      -9.7      1.834      2.569
REMARK  5 active torsions:
REMARK  status: ('A' for Active; 'I' for Inactive)
REMARK    1  A    between atoms: N1_1  and  C1_2 
REMARK    2  A    between atoms: N3_11  and  C9_12 
REMARK    3  A    between atoms: C10_13  and  C24_31 
REMARK    4  A    between atoms: C13_17  and  C14_18 
REMARK    5  A    between atoms: N6_21  and  C16_22 
ROOT
HETATM    1  C9  UNL     1      23.216   5.937  49.217  1.00  0.00     0.109 A 
HETATM    2  C10 UNL     1      22.563   5.668  47.907  1.00  0.00     0.023 A 
HETATM    3  N4  UNL     1      22.879   4.624  48.706  1.00  0.00     0.000 N 
HETATM    4  C11 UNL     1      22.645   3.155  48.330  1.00  0.00    -0.019 A 
HETATM    5  C12 UNL     1      23.069   2.229  49.344  1.00  0.00    -0.009 A 
HETATM    6  C13 UNL     1      23.624   2.418  50.540  1.00  0.00    -0.029 A 
HETATM    7  C22 UNL     1      23.836   3.753  50.872  1.00  0.00    -0.002 A 
HETATM    8  C23 UNL     1      23.318   4.445  49.674  1.00  0.00     0.018 A 
HETATM    9  C24 UNL     1      22.657   4.367  48.243  1.00  0.00     0.056 A 
ENDROOT
BRANCH   1  10
HETATM   10  N3  UNL     1      24.532   6.487  49.140  1.00  0.00    -0.341 N 
HETATM   11  C1  UNL     1      24.767   7.879  49.251  1.00  0.00     0.082 A 
HETATM   12  C2  UNL     1      26.036   8.355  49.107  1.00  0.00     0.074 A 
HETATM   13  C3  UNL     1      27.025   7.347  48.844  1.00  0.00     0.067 A 
HETATM   14  N2  UNL     1      28.236   7.830  48.666  1.00  0.00    -0.261 NA
HETATM   15  C7  UNL     1      26.830   5.922  48.725  1.00  0.00    -0.010 A 
HETATM   16  C4  UNL     1      29.277   6.898  48.400  1.00  0.00     0.113 A 
HETATM   17  C5  UNL     1      29.235   5.564  48.294  1.00  0.00    -0.003 A 
HETATM   18  C6  UNL     1      27.893   4.938  48.482  1.00  0.00     0.071 A 
HETATM   19  C8  UNL     1      25.567   5.513  48.879  1.00  0.00     0.102 A 
BRANCH  11  20
HETATM   20  N1  UNL     1      23.698   8.806  49.508  1.00  0.00    -0.288 NA
HETATM   21  H1  UNL     1      22.892   8.588  48.843  1.00  0.00     0.125 HD
HETATM   22  H2  UNL     1      22.843   8.655  48.875  1.00  0.00     0.125 HD
ENDBRANCH  11  20
ENDBRANCH   1  10
BRANCH   6  23
HETATM   23  C14 UNL     1      24.104   1.727  51.686  1.00  0.00     0.010 A 
HETATM   24  C15 UNL     1      23.581   0.922  52.649  1.00  0.00     0.152 A 
HETATM   25  N5  UNL     1      24.652   0.634  53.399  1.00  0.00    -0.184 NA
HETATM   26  N6  UNL     1      25.734   1.217  52.935  1.00  0.00    -0.276 N 
HETATM   27  C21 UNL     1      25.441   1.932  51.834  1.00  0.00     0.126 A 
BRANCH  26  28
HETATM   28  C16 UNL     1      27.036   1.008  53.620  1.00  0.00     0.113 C 
HETATM   29  C17 UNL     1      27.680  -0.247  53.173  1.00  0.00     0.057 C 
HETATM   30  C18 UNL     1      29.029  -0.414  53.820  1.00  0.00     0.271 C 
HETATM   31  N7  UNL     1      29.851   0.770  53.546  1.00  0.00     0.083 N 
HETATM   32  C19 UNL     1      29.236   1.938  54.147  1.00  0.00     0.271 C 
HETATM   33  H18 UNL     1      29.956   0.906  52.509  1.00  0.00     0.315 HD
HETATM   34  C20 UNL     1      27.917   2.190  53.457  1.00  0.00     0.057 C 
ENDBRANCH  26  28
ENDBRANCH   6  23
TORSDOF 5
ENDMDL
MODEL 3
REMARK VINA RESULT:      -9.6      1.622      6.443
REMARK  5 active torsions:
REMARK  status: ('A' for Active; 'I' for Inactive)
REMARK    1  A    between atoms: N1_1  and  C1_2 
REMARK    2  A    between atoms: N3_11  and  C9_12 
REMARK    3  A    between atoms: C10_13  and  C24_31 
REMARK    4  A    between atoms: C13_17  and  C14_18 
REMARK    5  A    between atoms: N6_21  and  C16_22 
ROOT
HETATM    1  C9  UNL     1      22.713  -0.971  53.298  1.00  0.00     0.109 A 
HETATM    2  C10 UNL     1      21.634  -1.195  54.297  1.00  0.00     0.023 A 
HETATM    3  N4  UNL     1      21.587  -0.088  53.523  1.00  0.00     0.000 N 
HETATM    4  C11 UNL     1      20.503   0.992  53.636  1.00  0.00    -0.019 A 
HETATM    5  C12 UNL     1      20.674   2.076  52.706  1.00  0.00    -0.009 A 
HETATM    6  C13 UNL     1      21.598   2.306  51.775  1.00  0.00    -0.029 A 
HETATM    7  C22 UNL     1      22.580   1.323  51.682  1.00  0.00    -0.002 A 
HETATM    8  C23 UNL     1      22.151   0.372  52.728  1.00  0.00     0.018 A 
HETATM    9  C24 UNL     1      21.126  -0.026  53.860  1.00  0.00     0.056 A 
ENDROOT
BRANCH   1  10
HETATM   10  N3  UNL     1      24.010  -0.733  53.846  1.00  0.00    -0.341 N 
HETATM   11  C1  UNL     1      24.341  -1.105  55.172  1.00  0.00     0.082 A 
HETATM   12  C2  UNL     1      25.573  -0.797  55.665  1.00  0.00     0.074 A 
HETATM   13  C3  UNL     1      26.425  -0.098  54.744  1.00  0.00     0.067 A 
HETATM   14  N2  UNL     1      27.596   0.228  55.251  1.00  0.00    -0.261 NA
HETATM   15  C7  UNL     1      26.131   0.298  53.388  1.00  0.00    -0.010 A 
HETATM   16  C4  UNL     1      28.502   0.924  54.405  1.00  0.00     0.113 A 
HETATM   17  C5  UNL     1      28.364   1.321  53.134  1.00  0.00    -0.003 A 
HETATM   18  C6  UNL     1      27.062   0.988  52.485  1.00  0.00     0.071 A 
HETATM   19  C8  UNL     1      24.910  -0.034  52.957  1.00  0.00     0.102 A 
BRANCH  11  20
HETATM   20  N1  UNL     1      23.403  -1.798  56.016  1.00  0.00    -0.288 NA
HETATM   21  H1  UNL     1      22.456  -1.819  55.526  1.00  0.00     0.125 HD
HETATM   22  H2  UNL     1      22.417  -1.862  55.594  1.00  0.00     0.125 HD
ENDBRANCH  11  20
ENDBRANCH   1  10
BRANCH   6  23
HETATM   23  C14 UNL     1      21.980   3.231  50.766  1.00  0.00     0.010 A 
HETATM   24  C15 UNL     1      21.353   4.096  49.924  1.00  0.00     0.152 A 
HETATM   25  N5  UNL     1      22.376   4.649  49.262  1.00  0.00    -0.184 NA
HETATM   26  N6  UNL     1      23.528   4.161  49.662  1.00  0.00    -0.276 N 
HETATM   27  C21 UNL     1      23.334   3.246  50.628  1.00  0.00     0.126 A 
BRANCH  26  28
HETATM   28  C16 UNL     1      24.790   4.660  49.058  1.00  0.00     0.113 C 
HETATM   29  C17 UNL     1      24.927   6.122  49.237  1.00  0.00     0.057 C 
HETATM   30  C18 UNL     1      26.241   6.607  48.683  1.00  0.00     0.271 C 
HETATM   31  N7  UNL     1      27.338   5.858  49.306  1.00  0.00     0.083 N 
HETATM   32  C19 UNL     1      27.226   4.454  48.959  1.00  0.00     0.271 C 
HETATM   33  H18 UNL     1      27.312   5.979  50.350  1.00  0.00     0.315 HD
HETATM   34  C20 UNL     1      25.960   3.911  49.577  1.00  0.00     0.057 C 
ENDBRANCH  26  28
ENDBRANCH   6  23
TORSDOF 5
ENDMDL
MODEL 4
REMARK VINA RESULT:      -9.5      2.080      2.828
REMARK  5 active torsions:
REMARK  status: ('A' for Active; 'I' for Inactive)
REMARK    1  A    between atoms: N1_1  and  C1_2 
REMARK    2  A    between atoms: N3_11  and  C9_12 
REMARK    3  A    between atoms: C10_13  and  C24_31 
REMARK    4  A    between atoms: C13_17  and  C14_18 
REMARK    5  A    between atoms: N6_21  and  C16_22 
ROOT
HETATM    1  C9  UNL     1      20.263   3.401  51.959  1.00  0.00     0.109 A 
HETATM    2  C10 UNL     1      18.938   2.792  51.661  1.00  0.00     0.023 A 
HETATM    3  N4  UNL     1      19.941   1.995  52.095  1.00  0.00     0.000 N 
HETATM    4  C11 UNL     1      19.815   0.476  52.263  1.00  0.00    -0.019 A 
HETATM    5  C12 UNL     1      21.022  -0.151  52.732  1.00  0.00    -0.009 A 
HETATM    6  C13 UNL     1      22.216   0.350  53.043  1.00  0.00    -0.029 A 
HETATM    7  C22 UNL     1      22.322   1.729  52.885  1.00  0.00    -0.002 A 
HETATM    8  C23 UNL     1      20.969   2.079  52.406  1.00  0.00     0.018 A 
HETATM    9  C24 UNL     1      19.511   1.623  52.008  1.00  0.00     0.056 A 
ENDROOT
BRANCH   1  10
HETATM   10  N3  UNL     1      20.955   3.934  50.829  1.00  0.00    -0.341 N 
HETATM   11  C1  UNL     1      21.942   4.941  50.964  1.00  0.00     0.082 A 
HETATM   12  C2  UNL     1      22.526   5.459  49.847  1.00  0.00     0.074 A 
HETATM   13  C3  UNL     1      22.048   4.901  48.612  1.00  0.00     0.067 A 
HETATM   14  N2  UNL     1      22.593   5.442  47.544  1.00  0.00    -0.261 NA
HETATM   15  C7  UNL     1      21.050   3.875  48.429  1.00  0.00    -0.010 A 
HETATM   16  C4  UNL     1      22.176   4.947  46.277  1.00  0.00     0.113 A 
HETATM   17  C5  UNL     1      21.289   3.991  45.974  1.00  0.00    -0.003 A 
HETATM   18  C6  UNL     1      20.626   3.327  47.134  1.00  0.00     0.071 A 
HETATM   19  C8  UNL     1      20.515   3.403  49.559  1.00  0.00     0.102 A 
BRANCH  11  20
HETATM   20  N1  UNL     1      22.340   5.437  52.255  1.00  0.00    -0.288 NA
HETATM   21  H1  UNL     1      21.623   6.158  52.579  1.00  0.00     0.125 HD
HETATM   22  H2  UNL     1      21.667   6.174  52.654  1.00  0.00     0.125 HD
ENDBRANCH  11  20
ENDBRANCH   1  10
BRANCH   6  23
HETATM   23  C14 UNL     1      23.505  -0.014  53.518  1.00  0.00     0.010 A 
HETATM   24  C15 UNL     1      24.023  -0.928  54.382  1.00  0.00     0.152 A 
HETATM   25  N5  UNL     1      25.337  -0.685  54.307  1.00  0.00    -0.184 NA
HETATM   26  N6  UNL     1      25.598   0.295  53.473  1.00  0.00    -0.276 N 
HETATM   27  C21 UNL     1      24.458   0.763  52.935  1.00  0.00     0.126 A 
BRANCH  26  28
HETATM   28  C16 UNL     1      27.006   0.707  53.236  1.00  0.00     0.113 C 
HETATM   29  C17 UNL     1      27.228   2.112  53.642  1.00  0.00     0.057 C 
HETATM   30  C18 UNL     1      28.672   2.498  53.464  1.00  0.00     0.271 C 
HETATM   31  N7  UNL     1      29.522   1.559  54.202  1.00  0.00     0.083 N 
HETATM   32  C19 UNL     1      29.369   0.227  53.648  1.00  0.00     0.271 C 
HETATM   33  H18 UNL     1      29.264   1.561  55.222  1.00  0.00     0.315 HD
HETATM   34  C20 UNL     1      27.951  -0.230  53.891  1.00  0.00     0.057 C 
ENDBRANCH  26  28
ENDBRANCH   6  23
TORSDOF 5
ENDMDL
MODEL 5
REMARK VINA RESULT:      -9.4      2.311      7.391
REMARK  5 active torsions:
REMARK  status: ('A' for Active; 'I' for Inactive)
REMARK    1  A    between atoms: N1_1  and  C1_2 
REMARK    2  A    between atoms: N3_11  and  C9_12 
REMARK    3  A    between atoms: C10_13  and  C24_31 
REMARK    4  A    between atoms: C13_17  and  C14_18 
REMARK    5  A    between atoms: N6_21  and  C16_22 
ROOT
HETATM    1  C9  UNL     1      24.626   0.072  54.155  1.00  0.00     0.109 A 
HETATM    2  C10 UNL     1      25.513  -1.103  53.947  1.00  0.00     0.023 A 
HETATM    3  N4  UNL     1      25.612  -0.054  53.101  1.00  0.00     0.000 N 
HETATM    4  C11 UNL     1      26.562  -0.010  51.897  1.00  0.00    -0.019 A 
HETATM    5  C12 UNL     1      26.478   1.214  51.146  1.00  0.00    -0.009 A 
HETATM    6  C13 UNL     1      25.730   2.303  51.308  1.00  0.00    -0.029 A 
HETATM    7  C22 UNL     1      24.869   2.253  52.400  1.00  0.00    -0.002 A 
HETATM    8  C23 UNL     1      25.171   0.919  52.958  1.00  0.00     0.018 A 
HETATM    9  C24 UNL     1      25.995  -0.425  52.887  1.00  0.00     0.056 A 
ENDROOT
BRANCH   1  10
HETATM   10  N3  UNL     1      23.234  -0.172  53.951  1.00  0.00    -0.341 N 
HETATM   11  C1  UNL     1      22.500  -1.054  54.781  1.00  0.00     0.082 A 
HETATM   12  C2  UNL     1      21.189  -1.299  54.502  1.00  0.00     0.074 A 
HETATM   13  C3  UNL     1      20.686  -0.608  53.347  1.00  0.00     0.067 A 
HETATM   14  N2  UNL     1      19.431  -0.889  53.069  1.00  0.00    -0.261 NA
HETATM   15  C7  UNL     1      21.396   0.298  52.477  1.00  0.00    -0.010 A 
HETATM   16  C4  UNL     1      18.854  -0.247  51.939  1.00  0.00     0.113 A 
HETATM   17  C5  UNL     1      19.388   0.626  51.077  1.00  0.00    -0.003 A 
HETATM   18  C6  UNL     1      20.812   0.997  51.324  1.00  0.00     0.071 A 
HETATM   19  C8  UNL     1      22.676   0.503  52.801  1.00  0.00     0.102 A 
BRANCH  11  20
HETATM   20  N1  UNL     1      23.107  -1.704  55.913  1.00  0.00    -0.288 NA
HETATM   21  H1  UNL     1      22.770  -2.716  55.944  1.00  0.00     0.125 HD
HETATM   22  H2  UNL     1      22.816  -2.733  56.019  1.00  0.00     0.125 HD
ENDBRANCH  11  20
ENDBRANCH   1  10
BRANCH   6  23
HETATM   23  C14 UNL     1      25.468   3.587  50.757  1.00  0.00     0.010 A 
HETATM   24  C15 UNL     1      24.466   4.504  50.812  1.00  0.00     0.152 A 
HETATM   25  N5  UNL     1      24.934   5.492  50.039  1.00  0.00    -0.184 NA
HETATM   26  N6  UNL     1      26.118   5.200  49.551  1.00  0.00    -0.276 N 
HETATM   27  C21 UNL     1      26.511   3.988  49.980  1.00  0.00     0.126 A 
BRANCH  26  28
HETATM   28  C16 UNL     1      26.817   6.179  48.679  1.00  0.00     0.113 C 
HETATM   29  C17 UNL     1      26.778   7.538  49.261  1.00  0.00     0.057 C 
HETATM   30  C18 UNL     1      27.549   8.508  48.405  1.00  0.00     0.271 C 
HETATM   31  N7  UNL     1      28.917   8.014  48.220  1.00  0.00     0.083 N 
HETATM   32  C19 UNL     1      28.885   6.752  47.505  1.00  0.00     0.271 C 
HETATM   33  H18 UNL     1      29.388   7.893  49.153  1.00  0.00     0.315 HD
HETATM   34  C20 UNL     1      28.197   5.729  48.376  1.00  0.00     0.057 C 
ENDBRANCH  26  28
ENDBRANCH   6  23
TORSDOF 5
ENDMDL
MODEL 6
REMARK VINA RESULT:      -9.4      1.787      2.467
REMARK  5 active torsions:
REMARK  status: ('A' for Active; 'I' for Inactive)
REMARK    1  A    between atoms: N1_1  and  C1_2 
REMARK    2  A    between atoms: N3_11  and  C9_12 
REMARK    3  A    between atoms: C10_13  and  C24_31 
REMARK    4  A    between atoms: C13_17  and  C14_18 
REMARK    5  A    between atoms: N6_21  and  C16_22 
ROOT
HETATM    1  C9  UNL     1      21.863   5.923  51.074  1.00  0.00     0.109 A 
HETATM    2  C10 UNL     1      20.624   5.872  50.253  1.00  0.00     0.023 A 
HETATM    3  N4  UNL     1      21.173   4.712  50.678  1.00  0.00     0.000 N 
HETATM    4  C11 UNL     1      20.620   3.324  50.330  1.00  0.00    -0.019 A 
HETATM    5  C12 UNL     1      21.383   2.245  50.897  1.00  0.00    -0.009 A 
HETATM    6  C13 UNL     1      22.473   2.237  51.661  1.00  0.00    -0.029 A 
HETATM    7  C22 UNL     1      22.970   3.501  51.969  1.00  0.00    -0.002 A 
HETATM    8  C23 UNL     1      22.009   4.378  51.269  1.00  0.00     0.018 A 
HETATM    9  C24 UNL     1      20.724   4.534  50.367  1.00  0.00     0.056 A 
ENDROOT
BRANCH   1  10
HETATM   10  N3  UNL     1      23.022   6.414  50.397  1.00  0.00    -0.341 N 
HETATM   11  C1  UNL     1      24.213   6.734  51.093  1.00  0.00     0.082 A 
HETATM   12  C2  UNL     1      25.267   7.259  50.406  1.00  0.00     0.074 A 
HETATM   13  C3  UNL     1      25.033   7.435  48.999  1.00  0.00     0.067 A 
HETATM   14  N2  UNL     1      26.047   7.981  48.361  1.00  0.00    -0.261 NA
HETATM   15  C7  UNL     1      23.840   7.121  48.252  1.00  0.00    -0.010 A 
HETATM   16  C4  UNL     1      25.898   8.192  46.962  1.00  0.00     0.113 A 
HETATM   17  C5  UNL     1      24.866   7.921  46.153  1.00  0.00    -0.003 A 
HETATM   18  C6  UNL     1      23.675   7.300  46.803  1.00  0.00     0.071 A 
HETATM   19  C8  UNL     1      22.842   6.606  48.976  1.00  0.00     0.102 A 
BRANCH  11  20
HETATM   20  N1  UNL     1      24.337   6.525  52.511  1.00  0.00    -0.288 NA
HETATM   21  H1  UNL     1      23.438   6.853  52.983  1.00  0.00     0.125 HD
HETATM   22  H2  UNL     1      23.469   6.833  53.064  1.00  0.00     0.125 HD
ENDBRANCH  11  20
ENDBRANCH   1  10
BRANCH   6  23
HETATM   23  C14 UNL     1      23.375   1.370  52.336  1.00  0.00     0.010 A 
HETATM   24  C15 UNL     1      23.307   0.174  52.979  1.00  0.00     0.152 A 
HETATM   25  N5  UNL     1      24.577  -0.029  53.350  1.00  0.00    -0.184 NA
HETATM   26  N6  UNL     1      25.352   0.961  52.970  1.00  0.00    -0.276 N 
HETATM   27  C21 UNL     1      24.633   1.888  52.313  1.00  0.00     0.126 A 
BRANCH  26  28
HETATM   28  C16 UNL     1      26.806   0.918  53.273  1.00  0.00     0.113 C 
HETATM   29  C17 UNL     1      27.388   2.278  53.301  1.00  0.00     0.057 C 
HETATM   30  C18 UNL     1      28.845   2.228  53.677  1.00  0.00     0.271 C 
HETATM   31  N7  UNL     1      28.994   1.525  54.956  1.00  0.00     0.083 N 
HETATM   32  C19 UNL     1      28.548   0.153  54.811  1.00  0.00     0.271 C 
HETATM   33  H18 UNL     1      28.438   2.013  55.704  1.00  0.00     0.315 HD
HETATM   34  C20 UNL     1      27.066   0.162  54.522  1.00  0.00     0.057 C 
ENDBRANCH  26  28
ENDBRANCH   6  23
TORSDOF 5
ENDMDL
MODEL 7
REMARK VINA RESULT:      -9.3      2.297      7.353
REMARK  5 active torsions:
REMARK  status: ('A' for Active; 'I' for Inactive)
REMARK    1  A    between atoms: N1_1  and  C1_2 
REMARK    2  A    between atoms: N3_11  and  C9_12 
REMARK    3  A    between atoms: C10_13  and  C24_31 
REMARK    4  A    between atoms: C13_17  and  C14_18 
REMARK    5  A    between atoms: N6_21  and  C16_22 
ROOT
HETATM    1  C9  UNL     1      23.660   1.751  51.564  1.00  0.00     0.109 A 
HETATM    2  C10 UNL     1      22.479   2.322  52.266  1.00  0.00     0.023 A 
HETATM    3  N4  UNL     1      23.327   3.160  51.628  1.00  0.00     0.000 N 
HETATM    4  C11 UNL     1      23.176   4.686  51.615  1.00  0.00    -0.019 A 
HETATM    5  C12 UNL     1      24.207   5.359  50.873  1.00  0.00    -0.009 A 
HETATM    6  C13 UNL     1      25.260   4.896  50.202  1.00  0.00    -0.029 A 
HETATM    7  C22 UNL     1      25.392   3.510  50.222  1.00  0.00    -0.002 A 
HETATM    8  C23 UNL     1      24.225   3.111  51.035  1.00  0.00     0.018 A 
HETATM    9  C24 UNL     1      22.943   3.520  51.859  1.00  0.00     0.056 A 
ENDROOT
BRANCH   1  10
HETATM   10  N3  UNL     1      24.637   1.144  52.410  1.00  0.00    -0.341 N 
HETATM   11  C1  UNL     1      24.349  -0.016  53.170  1.00  0.00     0.082 A 
HETATM   12  C2  UNL     1      25.299  -0.518  54.010  1.00  0.00     0.074 A 
HETATM   13  C3  UNL     1      26.529   0.224  54.027  1.00  0.00     0.067 A 
HETATM   14  N2  UNL     1      27.418  -0.251  54.874  1.00  0.00    -0.261 NA
HETATM   15  C7  UNL     1      26.865   1.405  53.270  1.00  0.00    -0.010 A 
HETATM   16  C4  UNL     1      28.667   0.426  54.955  1.00  0.00     0.113 A 
HETATM   17  C5  UNL     1      29.110   1.502  54.294  1.00  0.00    -0.003 A 
HETATM   18  C6  UNL     1      28.158   2.101  53.313  1.00  0.00     0.071 A 
HETATM   19  C8  UNL     1      25.898   1.849  52.461  1.00  0.00     0.102 A 
BRANCH  11  20
HETATM   20  N1  UNL     1      23.074  -0.677  53.083  1.00  0.00    -0.288 NA
HETATM   21  H1  UNL     1      23.212  -1.619  52.600  1.00  0.00     0.125 HD
HETATM   22  H2  UNL     1      23.125  -1.638  52.605  1.00  0.00     0.125 HD
ENDBRANCH  11  20
ENDBRANCH   1  10
BRANCH   6  23
HETATM   23  C14 UNL     1      26.368   5.308  49.412  1.00  0.00     0.010 A 
HETATM   24  C15 UNL     1      27.372   4.705  48.721  1.00  0.00     0.152 A 
HETATM   25  N5  UNL     1      28.037   5.747  48.207  1.00  0.00    -0.184 NA
HETATM   26  N6  UNL     1      27.488   6.887  48.559  1.00  0.00    -0.276 N 
HETATM   27  C21 UNL     1      26.411   6.665  49.333  1.00  0.00     0.126 A 
BRANCH  26  28
HETATM   28  C16 UNL     1      28.071   8.166  48.075  1.00  0.00     0.113 C 
HETATM   29  C17 UNL     1      28.582   8.980  49.200  1.00  0.00     0.057 C 
HETATM   30  C18 UNL     1      29.232  10.241  48.695  1.00  0.00     0.271 C 
HETATM   31  N7  UNL     1      30.279   9.895  47.728  1.00  0.00     0.083 N 
HETATM   32  C19 UNL     1      29.683   9.237  46.580  1.00  0.00     0.271 C 
HETATM   33  H18 UNL     1      30.994   9.268  48.177  1.00  0.00     0.315 HD
HETATM   34  C20 UNL     1      29.099   7.922  47.036  1.00  0.00     0.057 C 
ENDBRANCH  26  28
ENDBRANCH   6  23
TORSDOF 5
ENDMDL
MODEL 8
REMARK VINA RESULT:      -9.2      1.994      7.552
REMARK  5 active torsions:
REMARK  status: ('A' for Active; 'I' for Inactive)
REMARK    1  A    between atoms: N1_1  and  C1_2 
REMARK    2  A    between atoms: N3_11  and  C9_12 
REMARK    3  A    between atoms: C10_13  and  C24_31 
REMARK    4  A    between atoms: C13_17  and  C14_18 
REMARK    5  A    between atoms: N6_21  and  C16_22 
ROOT
HETATM    1  C9  UNL     1      24.733  -0.033  54.281  1.00  0.00     0.109 A 
HETATM    2  C10 UNL     1      25.559  -1.269  54.229  1.00  0.00     0.023 A 
HETATM    3  N4  UNL     1      25.755  -0.313  53.293  1.00  0.00     0.000 N 
HETATM    4  C11 UNL     1      26.757  -0.438  52.139  1.00  0.00    -0.019 A 
HETATM    5  C12 UNL     1      26.779   0.710  51.272  1.00  0.00    -0.009 A 
HETATM    6  C13 UNL     1      26.089   1.848  51.293  1.00  0.00    -0.029 A 
HETATM    7  C22 UNL     1      25.179   1.951  52.342  1.00  0.00    -0.002 A 
HETATM    8  C23 UNL     1      25.379   0.663  53.038  1.00  0.00     0.018 A 
HETATM    9  C24 UNL     1      26.124  -0.724  53.135  1.00  0.00     0.056 A 
ENDROOT
BRANCH   1  10
HETATM   10  N3  UNL     1      23.339  -0.221  54.032  1.00  0.00    -0.341 N 
HETATM   11  C1  UNL     1      22.549  -1.087  54.826  1.00  0.00     0.082 A 
HETATM   12  C2  UNL     1      21.238  -1.277  54.506  1.00  0.00     0.074 A 
HETATM   13  C3  UNL     1      20.796  -0.549  53.349  1.00  0.00     0.067 A 
HETATM   14  N2  UNL     1      19.540  -0.778  53.030  1.00  0.00    -0.261 NA
HETATM   15  C7  UNL     1      21.564   0.343  52.514  1.00  0.00    -0.010 A 
HETATM   16  C4  UNL     1      19.020  -0.096  51.894  1.00  0.00     0.113 A 
HETATM   17  C5  UNL     1      19.613   0.770  51.063  1.00  0.00    -0.003 A 
HETATM   18  C6  UNL     1      21.042   1.082  51.357  1.00  0.00     0.071 A 
HETATM   19  C8  UNL     1      22.841   0.494  52.879  1.00  0.00     0.102 A 
BRANCH  11  20
HETATM   20  N1  UNL     1      23.097  -1.777  55.963  1.00  0.00    -0.288 NA
HETATM   21  H1  UNL     1      23.216  -1.078  56.761  1.00  0.00     0.125 HD
HETATM   22  H2  UNL     1      23.251  -1.139  56.815  1.00  0.00     0.125 HD
ENDBRANCH  11  20
ENDBRANCH   1  10
BRANCH   6  23
HETATM   23  C14 UNL     1      25.927   3.085  50.611  1.00  0.00     0.010 A 
HETATM   24  C15 UNL     1      26.670   3.866  49.783  1.00  0.00     0.152 A 
HETATM   25  N5  UNL     1      25.844   4.887  49.527  1.00  0.00    -0.184 NA
HETATM   26  N6  UNL     1      24.696   4.744  50.150  1.00  0.00    -0.276 N 
HETATM   27  C21 UNL     1      24.693   3.603  50.861  1.00  0.00     0.126 A 
BRANCH  26  28
HETATM   28  C16 UNL     1      23.633   5.768  49.981  1.00  0.00     0.113 C 
HETATM   29  C17 UNL     1      22.314   5.243  50.399  1.00  0.00     0.057 C 
HETATM   30  C18 UNL     1      21.256   6.309  50.290  1.00  0.00     0.271 C 
HETATM   31  N7  UNL     1      21.667   7.484  51.067  1.00  0.00     0.083 N 
HETATM   32  C19 UNL     1      22.884   8.037  50.504  1.00  0.00     0.271 C 
HETATM   33  H18 UNL     1      21.819   7.218  52.073  1.00  0.00     0.315 HD
HETATM   34  C20 UNL     1      23.992   7.026  50.678  1.00  0.00     0.057 C 
ENDBRANCH  26  28
ENDBRANCH   6  23
TORSDOF 5
ENDMDL
MODEL 9
REMARK VINA RESULT:      -9.1      3.917      7.695
REMARK  5 active torsions:
REMARK  status: ('A' for Active; 'I' for Inactive)
REMARK    1  A    between atoms: N1_1  and  C1_2 
REMARK    2  A    between atoms: N3_11  and  C9_12 
REMARK    3  A    between atoms: C10_13  and  C24_31 
REMARK    4  A    between atoms: C13_17  and  C14_18 
REMARK    5  A    between atoms: N6_21  and  C16_22 
ROOT
HETATM    1  C9  UNL     1      23.260   3.143  51.036  1.00  0.00     0.109 A 
HETATM    2  C10 UNL     1      23.710   3.116  49.618  1.00  0.00     0.023 A 
HETATM    3  N4  UNL     1      22.677   2.326  49.991  1.00  0.00     0.000 N 
HETATM    4  C11 UNL     1      21.955   1.358  49.046  1.00  0.00    -0.019 A 
HETATM    5  C12 UNL     1      20.893   0.624  49.680  1.00  0.00    -0.009 A 
HETATM    6  C13 UNL     1      20.431   0.636  50.928  1.00  0.00    -0.029 A 
HETATM    7  C22 UNL     1      21.095   1.515  51.780  1.00  0.00    -0.002 A 
HETATM    8  C23 UNL     1      22.101   2.106  50.874  1.00  0.00     0.018 A 
HETATM    9  C24 UNL     1      22.743   2.195  49.435  1.00  0.00     0.056 A 
ENDROOT
BRANCH   1  10
HETATM   10  N3  UNL     1      24.202   2.638  51.983  1.00  0.00    -0.341 N 
HETATM   11  C1  UNL     1      24.521   3.343  53.169  1.00  0.00     0.082 A 
HETATM   12  C2  UNL     1      25.474   2.845  54.007  1.00  0.00     0.074 A 
HETATM   13  C3  UNL     1      26.069   1.614  53.567  1.00  0.00     0.067 A 
HETATM   14  N2  UNL     1      27.016   1.171  54.368  1.00  0.00    -0.261 NA
HETATM   15  C7  UNL     1      25.774   0.863  52.372  1.00  0.00    -0.010 A 
HETATM   16  C4  UNL     1      27.660  -0.044  54.006  1.00  0.00     0.113 A 
HETATM   17  C5  UNL     1      27.462  -0.844  52.951  1.00  0.00    -0.003 A 
HETATM   18  C6  UNL     1      26.403  -0.410  51.993  1.00  0.00     0.071 A 
HETATM   19  C8  UNL     1      24.830   1.396  51.591  1.00  0.00     0.102 A 
BRANCH  11  20
HETATM   20  N1  UNL     1      23.867   4.578  53.510  1.00  0.00    -0.288 NA
HETATM   21  H1  UNL     1      23.546   4.524  54.527  1.00  0.00     0.125 HD
HETATM   22  H2  UNL     1      23.510   4.605  54.523  1.00  0.00     0.125 HD
ENDBRANCH  11  20
ENDBRANCH   1  10
BRANCH   6  23
HETATM   23  C14 UNL     1      19.444   0.061  51.775  1.00  0.00     0.010 A 
HETATM   24  C15 UNL     1      19.391  -0.443  53.037  1.00  0.00     0.152 A 
HETATM   25  N5  UNL     1      18.105  -0.794  53.155  1.00  0.00    -0.184 NA
HETATM   26  N6  UNL     1      17.433  -0.532  52.058  1.00  0.00    -0.276 N 
HETATM   27  C21 UNL     1      18.243   0.019  51.137  1.00  0.00     0.126 A 
BRANCH  26  28
HETATM   28  C16 UNL     1      15.979  -0.834  51.994  1.00  0.00     0.113 C 
HETATM   29  C17 UNL     1      15.712  -2.249  52.333  1.00  0.00     0.057 C 
HETATM   30  C18 UNL     1      14.232  -2.528  52.333  1.00  0.00     0.271 C 
HETATM   31  N7  UNL     1      13.560  -1.594  53.243  1.00  0.00     0.083 N 
HETATM   32  C19 UNL     1      13.735  -0.237  52.762  1.00  0.00     0.271 C 
HETATM   33  H18 UNL     1      13.952  -1.690  54.214  1.00  0.00     0.315 HD
HETATM   34  C20 UNL     1      15.203   0.109  52.834  1.00  0.00     0.057 C 
ENDBRANCH  26  28
ENDBRANCH   6  23
TORSDOF 5
ENDMDL
