MODEL 1
REMARK VINA RESULT:      -7.9      0.000      0.000
REMARK  5 active torsions:
REMARK  status: ('A' for Active; 'I' for Inactive)
REMARK    1  A    between atoms: O1_2  and  C2_3 
REMARK    2  A    between atoms: C5_6  and  O2_7 
REMARK    3  A    between atoms: O2_7  and  C6_8 
REMARK    4  A    between atoms: C6_8  and  N1_9 
REMARK    5  A    between atoms: C7_10  and  C8_11 
ROOT
HETATM    1  C2  UNL     1      27.400  -0.188  53.075  1.00  0.00     0.073 A 
HETATM    2  C3  UNL     1      27.151   1.048  53.436  1.00  0.00    -0.017 A 
HETATM    3  C4  UNL     1      27.954   2.298  53.698  1.00  0.00     0.049 C 
HETATM    4  C5  UNL     1      25.673   1.253  53.634  1.00  0.00     0.190 A 
HETATM    5  C7  UNL     1      25.063  -0.065  53.342  1.00  0.00     0.007 A 
HETATM    6  C18 UNL     1      26.099  -0.798  53.039  1.00  0.00     0.049 A 
ENDROOT
BRANCH   5   7
HETATM    7  C8  UNL     1      23.637  -0.273  53.500  1.00  0.00     0.080 A 
HETATM    8  N2  UNL     1      23.224  -0.911  54.596  1.00  0.00    -0.241 NA
HETATM    9  C9  UNL     1      21.959  -1.169  54.852  1.00  0.00     0.234 A 
HETATM   10  N3  UNL     1      20.955  -0.822  54.045  1.00  0.00    -0.241 NA
HETATM   11  C10 UNL     1      21.269  -0.176  52.910  1.00  0.00     0.076 A 
HETATM   12  C11 UNL     1      20.270   0.175  52.037  1.00  0.00    -0.032 A 
HETATM   13  C17 UNL     1      22.594   0.069  52.688  1.00  0.00     0.023 A 
HETATM   14  C12 UNL     1      18.862  -0.136  52.377  1.00  0.00     0.050 C 
HETATM   15  C13 UNL     1      20.567   0.823  50.833  1.00  0.00     0.015 A 
HETATM   16  C14 UNL     1      21.920   1.076  50.591  1.00  0.00    -0.060 A 
HETATM   17  C15 UNL     1      22.254   1.763  49.313  1.00  0.00     0.048 C 
HETATM   18  C16 UNL     1      22.857   0.694  51.514  1.00  0.00     0.023 A 
ENDBRANCH   5   7
BRANCH   4  19
HETATM   19  O2  UNL     1      25.240   2.224  52.754  1.00  0.00    -0.348 OA
BRANCH  19  20
HETATM   20  C6  UNL     1      24.501   3.225  53.327  1.00  0.00     0.435 C 
BRANCH  20  21
HETATM   21  N1  UNL     1      24.123   4.176  52.276  1.00  0.00     0.101 N 
HETATM   22  H10 UNL     1      23.083   4.078  52.168  1.00  0.00     0.315 HD
HETATM   23  H11 UNL     1      24.296   5.148  52.611  1.00  0.00     0.315 HD
ENDBRANCH  20  21
ENDBRANCH  19  20
ENDBRANCH   4  19
BRANCH   1  24
HETATM   24  O1  UNL     1      28.685  -0.612  52.831  1.00  0.00    -0.356 OA
HETATM   25  C1  UNL     1      29.653  -0.889  53.812  1.00  0.00     0.210 C 
ENDBRANCH   1  24
TORSDOF 5
ENDMDL
MODEL 2
REMARK VINA RESULT:      -7.8      1.599      2.437
REMARK  5 active torsions:
REMARK  status: ('A' for Active; 'I' for Inactive)
REMARK    1  A    between atoms: O1_2  and  C2_3 
REMARK    2  A    between atoms: C5_6  and  O2_7 
REMARK    3  A    between atoms: O2_7  and  C6_8 
REMARK    4  A    between atoms: C6_8  and  N1_9 
REMARK    5  A    between atoms: C7_10  and  C8_11 
ROOT
HETATM    1  C2  UNL     1      26.694   1.307  52.804  1.00  0.00     0.073 A 
HETATM    2  C3  UNL     1      26.828   0.005  52.887  1.00  0.00    -0.017 A 
HETATM    3  C4  UNL     1      27.963  -0.987  52.831  1.00  0.00     0.049 C 
HETATM    4  C5  UNL     1      25.490  -0.652  53.098  1.00  0.00     0.190 A 
HETATM    5  C7  UNL     1      24.517   0.464  53.118  1.00  0.00     0.007 A 
HETATM    6  C18 UNL     1      25.278   1.511  52.951  1.00  0.00     0.049 A 
ENDROOT
BRANCH   5   7
HETATM    7  C8  UNL     1      23.095   0.206  53.232  1.00  0.00     0.080 A 
HETATM    8  N2  UNL     1      22.650  -0.298  54.385  1.00  0.00    -0.241 NA
HETATM    9  C9  UNL     1      21.386  -0.585  54.612  1.00  0.00     0.234 A 
HETATM   10  N3  UNL     1      20.414  -0.403  53.716  1.00  0.00    -0.241 NA
HETATM   11  C10 UNL     1      20.762   0.099  52.519  1.00  0.00     0.076 A 
HETATM   12  C11 UNL     1      19.798   0.277  51.558  1.00  0.00    -0.032 A 
HETATM   13  C17 UNL     1      22.084   0.380  52.331  1.00  0.00     0.023 A 
HETATM   14  C12 UNL     1      18.388  -0.057  51.869  1.00  0.00     0.050 C 
HETATM   15  C13 UNL     1      20.132   0.770  50.292  1.00  0.00     0.015 A 
HETATM   16  C14 UNL     1      21.484   1.058  50.084  1.00  0.00    -0.060 A 
HETATM   17  C15 UNL     1      21.858   1.582  48.742  1.00  0.00     0.048 C 
HETATM   18  C16 UNL     1      22.385   0.853  51.097  1.00  0.00     0.023 A 
ENDBRANCH   5   7
BRANCH   4  19
HETATM   19  O2  UNL     1      25.516  -1.332  54.298  1.00  0.00    -0.348 OA
BRANCH  19  20
HETATM   20  C6  UNL     1      25.752  -0.547  55.395  1.00  0.00     0.435 C 
BRANCH  20  21
HETATM   21  N1  UNL     1      25.095  -1.165  56.552  1.00  0.00     0.101 N 
HETATM   22  H10 UNL     1      25.095  -0.428  57.301  1.00  0.00     0.315 HD
HETATM   23  H11 UNL     1      24.097  -1.355  56.322  1.00  0.00     0.315 HD
ENDBRANCH  20  21
ENDBRANCH  19  20
ENDBRANCH   4  19
BRANCH   1  24
HETATM   24  O1  UNL     1      27.784   2.124  52.616  1.00  0.00    -0.356 OA
HETATM   25  C1  UNL     1      28.698   2.508  53.612  1.00  0.00     0.210 C 
ENDBRANCH   1  24
TORSDOF 5
ENDMDL
MODEL 3
REMARK VINA RESULT:      -7.7      1.946      3.135
REMARK  5 active torsions:
REMARK  status: ('A' for Active; 'I' for Inactive)
REMARK    1  A    between atoms: O1_2  and  C2_3 
REMARK    2  A    between atoms: C5_6  and  O2_7 
REMARK    3  A    between atoms: O2_7  and  C6_8 
REMARK    4  A    between atoms: C6_8  and  N1_9 
REMARK    5  A    between atoms: C7_10  and  C8_11 
ROOT
HETATM    1  C2  UNL     1      28.170   1.793  53.892  1.00  0.00     0.073 A 
HETATM    2  C3  UNL     1      28.452   0.663  53.291  1.00  0.00    -0.017 A 
HETATM    3  C4  UNL     1      29.698  -0.088  52.893  1.00  0.00     0.049 C 
HETATM    4  C5  UNL     1      27.189  -0.063  52.911  1.00  0.00     0.190 A 
HETATM    5  C7  UNL     1      26.091   0.818  53.371  1.00  0.00     0.007 A 
HETATM    6  C18 UNL     1      26.733   1.821  53.905  1.00  0.00     0.049 A 
ENDROOT
BRANCH   5   7
HETATM    7  C8  UNL     1      24.706   0.475  53.109  1.00  0.00     0.080 A 
HETATM    8  N2  UNL     1      24.147  -0.461  53.877  1.00  0.00    -0.241 NA
HETATM    9  C9  UNL     1      22.903  -0.868  53.737  1.00  0.00     0.234 A 
HETATM   10  N3  UNL     1      22.069  -0.389  52.813  1.00  0.00    -0.241 NA
HETATM   11  C10 UNL     1      22.540   0.559  51.986  1.00  0.00     0.076 A 
HETATM   12  C11 UNL     1      21.723   1.060  51.003  1.00  0.00    -0.032 A 
HETATM   13  C17 UNL     1      23.835   0.948  52.170  1.00  0.00     0.023 A 
HETATM   14  C12 UNL     1      20.330   0.571  50.892  1.00  0.00     0.050 C 
HETATM   15  C13 UNL     1      22.194   2.027  50.107  1.00  0.00     0.015 A 
HETATM   16  C14 UNL     1      23.520   2.432  50.282  1.00  0.00    -0.060 A 
HETATM   17  C15 UNL     1      24.037   3.458  49.335  1.00  0.00     0.048 C 
HETATM   18  C16 UNL     1      24.269   1.882  51.289  1.00  0.00     0.023 A 
ENDBRANCH   5   7
BRANCH   4  19
HETATM   19  O2  UNL     1      27.170  -1.284  53.554  1.00  0.00    -0.348 OA
BRANCH  19  20
HETATM   20  C6  UNL     1      27.146  -2.369  52.718  1.00  0.00     0.435 C 
BRANCH  20  21
HETATM   21  N1  UNL     1      28.276  -3.238  53.060  1.00  0.00     0.101 N 
HETATM   22  H10 UNL     1      27.927  -4.220  52.928  1.00  0.00     0.315 HD
HETATM   23  H11 UNL     1      29.042  -3.100  52.367  1.00  0.00     0.315 HD
ENDBRANCH  20  21
ENDBRANCH  19  20
ENDBRANCH   4  19
BRANCH   1  24
HETATM   24  O1  UNL     1      29.167   2.630  54.337  1.00  0.00    -0.356 OA
HETATM   25  C1  UNL     1      30.182   2.279  55.244  1.00  0.00     0.210 C 
ENDBRANCH   1  24
TORSDOF 5
ENDMDL
MODEL 4
REMARK VINA RESULT:      -7.6      3.982      5.939
REMARK  5 active torsions:
REMARK  status: ('A' for Active; 'I' for Inactive)
REMARK    1  A    between atoms: O1_2  and  C2_3 
REMARK    2  A    between atoms: C5_6  and  O2_7 
REMARK    3  A    between atoms: O2_7  and  C6_8 
REMARK    4  A    between atoms: C6_8  and  N1_9 
REMARK    5  A    between atoms: C7_10  and  C8_11 
ROOT
HETATM    1  C2  UNL     1      27.427   5.693  48.627  1.00  0.00     0.073 A 
HETATM    2  C3  UNL     1      26.666   6.518  49.304  1.00  0.00    -0.017 A 
HETATM    3  C4  UNL     1      26.564   8.010  49.496  1.00  0.00     0.049 C 
HETATM    4  C5  UNL     1      25.625   5.758  50.082  1.00  0.00     0.190 A 
HETATM    5  C7  UNL     1      25.886   4.333  49.776  1.00  0.00     0.007 A 
HETATM    6  C18 UNL     1      26.901   4.397  48.959  1.00  0.00     0.049 A 
ENDROOT
BRANCH   5   7
HETATM    7  C8  UNL     1      25.113   3.284  50.413  1.00  0.00     0.080 A 
HETATM    8  N2  UNL     1      23.853   3.114  50.008  1.00  0.00    -0.241 NA
HETATM    9  C9  UNL     1      23.046   2.204  50.512  1.00  0.00     0.234 A 
HETATM   10  N3  UNL     1      23.399   1.356  51.480  1.00  0.00    -0.241 NA
HETATM   11  C10 UNL     1      24.651   1.450  51.958  1.00  0.00     0.076 A 
HETATM   12  C11 UNL     1      25.048   0.616  52.973  1.00  0.00    -0.032 A 
HETATM   13  C17 UNL     1      25.451   2.409  51.405  1.00  0.00     0.023 A 
HETATM   14  C12 UNL     1      24.100  -0.394  53.499  1.00  0.00     0.050 C 
HETATM   15  C13 UNL     1      26.335   0.708  53.513  1.00  0.00     0.015 A 
HETATM   16  C14 UNL     1      27.164   1.688  52.958  1.00  0.00    -0.060 A 
HETATM   17  C15 UNL     1      28.537   1.802  53.523  1.00  0.00     0.048 C 
HETATM   18  C16 UNL     1      26.691   2.482  51.946  1.00  0.00     0.023 A 
ENDBRANCH   5   7
BRANCH   4  19
HETATM   19  O2  UNL     1      24.375   6.155  49.654  1.00  0.00    -0.348 OA
BRANCH  19  20
HETATM   20  C6  UNL     1      23.591   6.719  50.625  1.00  0.00     0.435 C 
BRANCH  20  21
HETATM   21  N1  UNL     1      24.296   6.606  51.907  1.00  0.00     0.101 N 
HETATM   22  H10 UNL     1      23.717   7.149  52.595  1.00  0.00     0.315 HD
HETATM   23  H11 UNL     1      24.280   5.613  52.224  1.00  0.00     0.315 HD
ENDBRANCH  20  21
ENDBRANCH  19  20
ENDBRANCH   4  19
BRANCH   1  24
HETATM   24  O1  UNL     1      28.450   6.157  47.834  1.00  0.00    -0.356 OA
HETATM   25  C1  UNL     1      29.811   6.175  48.183  1.00  0.00     0.210 C 
ENDBRANCH   1  24
TORSDOF 5
ENDMDL
MODEL 5
REMARK VINA RESULT:      -7.5      2.592      5.410
REMARK  5 active torsions:
REMARK  status: ('A' for Active; 'I' for Inactive)
REMARK    1  A    between atoms: O1_2  and  C2_3 
REMARK    2  A    between atoms: C5_6  and  O2_7 
REMARK    3  A    between atoms: O2_7  and  C6_8 
REMARK    4  A    between atoms: C6_8  and  N1_9 
REMARK    5  A    between atoms: C7_10  and  C8_11 
ROOT
HETATM    1  C2  UNL     1      22.076   2.782  48.450  1.00  0.00     0.073 A 
HETATM    2  C3  UNL     1      22.679   3.820  48.978  1.00  0.00    -0.017 A 
HETATM    3  C4  UNL     1      22.906   5.264  48.606  1.00  0.00     0.049 C 
HETATM    4  C5  UNL     1      23.296   3.456  50.303  1.00  0.00     0.190 A 
HETATM    5  C7  UNL     1      22.978   2.022  50.489  1.00  0.00     0.007 A 
HETATM    6  C18 UNL     1      22.297   1.737  49.413  1.00  0.00     0.049 A 
ENDROOT
BRANCH   5   7
HETATM    7  C8  UNL     1      23.478   1.295  51.640  1.00  0.00     0.080 A 
HETATM    8  N2  UNL     1      24.792   1.329  51.867  1.00  0.00    -0.241 NA
HETATM    9  C9  UNL     1      25.372   0.706  52.871  1.00  0.00     0.234 A 
HETATM   10  N3  UNL     1      24.709  -0.026  53.769  1.00  0.00    -0.241 NA
HETATM   11  C10 UNL     1      23.377  -0.124  53.624  1.00  0.00     0.076 A 
HETATM   12  C11 UNL     1      22.660  -0.890  54.509  1.00  0.00    -0.032 A 
HETATM   13  C17 UNL     1      22.822   0.539  52.568  1.00  0.00     0.023 A 
HETATM   14  C12 UNL     1      23.362  -1.566  55.625  1.00  0.00     0.050 C 
HETATM   15  C13 UNL     1      21.275  -1.036  54.369  1.00  0.00     0.015 A 
HETATM   16  C14 UNL     1      20.694  -0.365  53.289  1.00  0.00    -0.060 A 
HETATM   17  C15 UNL     1      19.222  -0.513  53.124  1.00  0.00     0.048 C 
HETATM   18  C16 UNL     1      21.481   0.380  52.451  1.00  0.00     0.023 A 
ENDBRANCH   5   7
BRANCH   4  19
HETATM   19  O2  UNL     1      22.727   4.240  51.285  1.00  0.00    -0.348 OA
BRANCH  19  20
HETATM   20  C6  UNL     1      23.608   5.049  51.951  1.00  0.00     0.435 C 
BRANCH  20  21
HETATM   21  N1  UNL     1      24.167   4.291  53.076  1.00  0.00     0.101 N 
HETATM   22  H10 UNL     1      23.993   3.281  52.849  1.00  0.00     0.315 HD
HETATM   23  H11 UNL     1      25.202   4.417  53.097  1.00  0.00     0.315 HD
ENDBRANCH  20  21
ENDBRANCH  19  20
ENDBRANCH   4  19
BRANCH   1  24
HETATM   24  O1  UNL     1      21.434   2.873  47.238  1.00  0.00    -0.356 OA
HETATM   25  C1  UNL     1      20.096   3.262  47.051  1.00  0.00     0.210 C 
ENDBRANCH   1  24
TORSDOF 5
ENDMDL
MODEL 6
REMARK VINA RESULT:      -7.4      2.917      5.989
REMARK  5 active torsions:
REMARK  status: ('A' for Active; 'I' for Inactive)
REMARK    1  A    between atoms: O1_2  and  C2_3 
REMARK    2  A    between atoms: C5_6  and  O2_7 
REMARK    3  A    between atoms: O2_7  and  C6_8 
REMARK    4  A    between atoms: C6_8  and  N1_9 
REMARK    5  A    between atoms: C7_10  and  C8_11 
ROOT
HETATM    1  C2  UNL     1      21.236   0.110  52.572  1.00  0.00     0.073 A 
HETATM    2  C3  UNL     1      22.008  -0.177  53.593  1.00  0.00    -0.017 A 
HETATM    3  C4  UNL     1      21.865  -0.903  54.907  1.00  0.00     0.049 C 
HETATM    4  C5  UNL     1      23.396   0.365  53.375  1.00  0.00     0.190 A 
HETATM    5  C7  UNL     1      23.339   1.039  52.057  1.00  0.00     0.007 A 
HETATM    6  C18 UNL     1      22.103   0.841  51.688  1.00  0.00     0.049 A 
ENDROOT
BRANCH   5   7
HETATM    7  C8  UNL     1      24.490   1.750  51.538  1.00  0.00     0.080 A 
HETATM    8  N2  UNL     1      25.695   1.366  51.962  1.00  0.00    -0.241 NA
HETATM    9  C9  UNL     1      26.817   1.935  51.574  1.00  0.00     0.234 A 
HETATM   10  N3  UNL     1      26.870   2.956  50.716  1.00  0.00    -0.241 NA
HETATM   11  C10 UNL     1      25.705   3.418  50.233  1.00  0.00     0.076 A 
HETATM   12  C11 UNL     1      25.712   4.485  49.369  1.00  0.00    -0.032 A 
HETATM   13  C17 UNL     1      24.570   2.797  50.665  1.00  0.00     0.023 A 
HETATM   14  C12 UNL     1      27.004   5.085  48.960  1.00  0.00     0.050 C 
HETATM   15  C13 UNL     1      24.514   5.009  48.871  1.00  0.00     0.015 A 
HETATM   16  C14 UNL     1      23.343   4.384  49.308  1.00  0.00    -0.060 A 
HETATM   17  C15 UNL     1      22.059   4.931  48.789  1.00  0.00     0.048 C 
HETATM   18  C16 UNL     1      23.422   3.324  50.172  1.00  0.00     0.023 A 
ENDBRANCH   5   7
BRANCH   4  19
HETATM   19  O2  UNL     1      24.287  -0.689  53.375  1.00  0.00    -0.348 OA
BRANCH  19  20
HETATM   20  C6  UNL     1      25.187  -0.676  54.407  1.00  0.00     0.435 C 
BRANCH  20  21
HETATM   21  N1  UNL     1      26.509  -1.013  53.868  1.00  0.00     0.101 N 
HETATM   22  H10 UNL     1      27.100  -0.157  54.017  1.00  0.00     0.315 HD
HETATM   23  H11 UNL     1      26.934  -1.771  54.443  1.00  0.00     0.315 HD
ENDBRANCH  20  21
ENDBRANCH  19  20
ENDBRANCH   4  19
BRANCH   1  24
HETATM   24  O1  UNL     1      19.921  -0.288  52.542  1.00  0.00    -0.356 OA
HETATM   25  C1  UNL     1      18.929   0.236  51.695  1.00  0.00     0.210 C 
ENDBRANCH   1  24
TORSDOF 5
ENDMDL
MODEL 7
REMARK VINA RESULT:      -7.4      3.096      6.214
REMARK  5 active torsions:
REMARK  status: ('A' for Active; 'I' for Inactive)
REMARK    1  A    between atoms: O1_2  and  C2_3 
REMARK    2  A    between atoms: C5_6  and  O2_7 
REMARK    3  A    between atoms: O2_7  and  C6_8 
REMARK    4  A    between atoms: C6_8  and  N1_9 
REMARK    5  A    between atoms: C7_10  and  C8_11 
ROOT
HETATM    1  C2  UNL     1      22.417   3.906  47.800  1.00  0.00     0.073 A 
HETATM    2  C3  UNL     1      23.020   5.006  48.181  1.00  0.00    -0.017 A 
HETATM    3  C4  UNL     1      23.023   6.456  47.767  1.00  0.00     0.049 C 
HETATM    4  C5  UNL     1      23.943   4.729  49.338  1.00  0.00     0.190 A 
HETATM    5  C7  UNL     1      23.811   3.276  49.591  1.00  0.00     0.007 A 
HETATM    6  C18 UNL     1      22.941   2.907  48.692  1.00  0.00     0.049 A 
ENDROOT
BRANCH   5   7
HETATM    7  C8  UNL     1      24.618   2.624  50.604  1.00  0.00     0.080 A 
HETATM    8  N2  UNL     1      25.921   2.909  50.633  1.00  0.00    -0.241 NA
HETATM    9  C9  UNL     1      26.761   2.379  51.496  1.00  0.00     0.234 A 
HETATM   10  N3  UNL     1      26.401   1.500  52.434  1.00  0.00    -0.241 NA
HETATM   11  C10 UNL     1      25.107   1.145  52.485  1.00  0.00     0.076 A 
HETATM   12  C11 UNL     1      24.699   0.222  53.416  1.00  0.00    -0.032 A 
HETATM   13  C17 UNL     1      24.274   1.721  51.569  1.00  0.00     0.023 A 
HETATM   14  C12 UNL     1      25.685  -0.340  54.367  1.00  0.00     0.050 C 
HETATM   15  C13 UNL     1      23.363  -0.190  53.475  1.00  0.00     0.015 A 
HETATM   16  C14 UNL     1      22.500   0.389  52.540  1.00  0.00    -0.060 A 
HETATM   17  C15 UNL     1      21.075  -0.041  52.589  1.00  0.00     0.048 C 
HETATM   18  C16 UNL     1      22.987   1.304  51.644  1.00  0.00     0.023 A 
ENDBRANCH   5   7
BRANCH   4  19
HETATM   19  O2  UNL     1      23.532   5.479  50.421  1.00  0.00    -0.348 OA
BRANCH  19  20
HETATM   20  C6  UNL     1      24.460   6.373  50.882  1.00  0.00     0.435 C 
BRANCH  20  21
HETATM   21  N1  UNL     1      25.759   6.032  50.292  1.00  0.00     0.101 N 
HETATM   22  H10 UNL     1      26.478   6.363  50.984  1.00  0.00     0.315 HD
HETATM   23  H11 UNL     1      25.853   4.995  50.240  1.00  0.00     0.315 HD
ENDBRANCH  20  21
ENDBRANCH  19  20
ENDBRANCH   4  19
BRANCH   1  24
HETATM   24  O1  UNL     1      21.519   3.911  46.759  1.00  0.00    -0.356 OA
HETATM   25  C1  UNL     1      21.844   3.763  45.399  1.00  0.00     0.210 C 
ENDBRANCH   1  24
TORSDOF 5
ENDMDL
MODEL 8
REMARK VINA RESULT:      -7.3      2.487      5.034
REMARK  5 active torsions:
REMARK  status: ('A' for Active; 'I' for Inactive)
REMARK    1  A    between atoms: O1_2  and  C2_3 
REMARK    2  A    between atoms: C5_6  and  O2_7 
REMARK    3  A    between atoms: O2_7  and  C6_8 
REMARK    4  A    between atoms: C6_8  and  N1_9 
REMARK    5  A    between atoms: C7_10  and  C8_11 
ROOT
HETATM    1  C2  UNL     1      22.953  -0.294  53.478  1.00  0.00     0.073 A 
HETATM    2  C3  UNL     1      24.217  -0.082  53.754  1.00  0.00    -0.017 A 
HETATM    3  C4  UNL     1      25.329  -0.827  54.450  1.00  0.00     0.049 C 
HETATM    4  C5  UNL     1      24.655   1.259  53.228  1.00  0.00     0.190 A 
HETATM    5  C7  UNL     1      23.446   1.833  52.595  1.00  0.00     0.007 A 
HETATM    6  C18 UNL     1      22.554   0.898  52.781  1.00  0.00     0.049 A 
ENDROOT
BRANCH   5   7
HETATM    7  C8  UNL     1      23.467   3.169  52.032  1.00  0.00     0.080 A 
HETATM    8  N2  UNL     1      23.695   4.186  52.866  1.00  0.00    -0.241 NA
HETATM    9  C9  UNL     1      23.731   5.444  52.482  1.00  0.00     0.234 A 
HETATM   10  N3  UNL     1      23.543   5.839  51.221  1.00  0.00    -0.241 NA
HETATM   11  C10 UNL     1      23.303   4.887  50.305  1.00  0.00     0.076 A 
HETATM   12  C11 UNL     1      23.076   5.252  49.001  1.00  0.00    -0.032 A 
HETATM   13  C17 UNL     1      23.275   3.597  50.750  1.00  0.00     0.023 A 
HETATM   14  C12 UNL     1      23.133   6.683  48.623  1.00  0.00     0.050 C 
HETATM   15  C13 UNL     1      22.794   4.286  48.028  1.00  0.00     0.015 A 
HETATM   16  C14 UNL     1      22.758   2.961  48.471  1.00  0.00    -0.060 A 
HETATM   17  C15 UNL     1      22.457   1.922  47.448  1.00  0.00     0.048 C 
HETATM   18  C16 UNL     1      22.996   2.681  49.791  1.00  0.00     0.023 A 
ENDBRANCH   5   7
BRANCH   4  19
HETATM   19  O2  UNL     1      25.670   1.065  52.314  1.00  0.00    -0.348 OA
BRANCH  19  20
HETATM   20  C6  UNL     1      26.832   1.730  52.601  1.00  0.00     0.435 C 
BRANCH  20  21
HETATM   21  N1  UNL     1      26.585   2.614  53.746  1.00  0.00     0.101 N 
HETATM   22  H10 UNL     1      25.574   2.474  53.995  1.00  0.00     0.315 HD
HETATM   23  H11 UNL     1      27.140   2.283  54.564  1.00  0.00     0.315 HD
ENDBRANCH  20  21
ENDBRANCH  19  20
ENDBRANCH   4  19
BRANCH   1  24
HETATM   24  O1  UNL     1      22.329  -1.459  53.856  1.00  0.00    -0.356 OA
HETATM   25  C1  UNL     1      20.994  -1.569  54.285  1.00  0.00     0.210 C 
ENDBRANCH   1  24
TORSDOF 5
ENDMDL
MODEL 9
REMARK VINA RESULT:      -7.2      2.981      5.451
REMARK  5 active torsions:
REMARK  status: ('A' for Active; 'I' for Inactive)
REMARK    1  A    between atoms: O1_2  and  C2_3 
REMARK    2  A    between atoms: C5_6  and  O2_7 
REMARK    3  A    between atoms: O2_7  and  C6_8 
REMARK    4  A    between atoms: C6_8  and  N1_9 
REMARK    5  A    between atoms: C7_10  and  C8_11 
ROOT
HETATM    1  C2  UNL     1      24.064   5.730  50.671  1.00  0.00     0.073 A 
HETATM    2  C3  UNL     1      23.508   5.229  49.595  1.00  0.00    -0.017 A 
HETATM    3  C4  UNL     1      23.449   5.573  48.127  1.00  0.00     0.049 C 
HETATM    4  C5  UNL     1      22.735   3.982  49.932  1.00  0.00     0.190 A 
HETATM    5  C7  UNL     1      22.903   3.813  51.393  1.00  0.00     0.007 A 
HETATM    6  C18 UNL     1      23.658   4.828  51.714  1.00  0.00     0.049 A 
ENDROOT
BRANCH   5   7
HETATM    7  C8  UNL     1      22.229   2.740  52.098  1.00  0.00     0.080 A 
HETATM    8  N2  UNL     1      20.911   2.851  52.276  1.00  0.00    -0.241 NA
HETATM    9  C9  UNL     1      20.185   1.951  52.905  1.00  0.00     0.234 A 
HETATM   10  N3  UNL     1      20.688   0.833  53.433  1.00  0.00    -0.241 NA
HETATM   11  C10 UNL     1      22.010   0.630  53.308  1.00  0.00     0.076 A 
HETATM   12  C11 UNL     1      22.573  -0.493  53.860  1.00  0.00    -0.032 A 
HETATM   13  C17 UNL     1      22.720   1.591  52.648  1.00  0.00     0.023 A 
HETATM   14  C12 UNL     1      21.708  -1.476  54.554  1.00  0.00     0.050 C 
HETATM   15  C13 UNL     1      23.951  -0.719  53.773  1.00  0.00     0.015 A 
HETATM   16  C14 UNL     1      24.691   0.259  53.103  1.00  0.00    -0.060 A 
HETATM   17  C15 UNL     1      26.160   0.035  53.004  1.00  0.00     0.048 C 
HETATM   18  C16 UNL     1      24.053   1.353  52.580  1.00  0.00     0.023 A 
ENDBRANCH   5   7
BRANCH   4  19
HETATM   19  O2  UNL     1      23.272   2.924  49.227  1.00  0.00    -0.348 OA
BRANCH  19  20
HETATM   20  C6  UNL     1      22.348   2.075  48.679  1.00  0.00     0.435 C 
BRANCH  20  21
HETATM   21  N1  UNL     1      22.652   1.924  47.252  1.00  0.00     0.101 N 
HETATM   22  H10 UNL     1      21.726   1.770  46.782  1.00  0.00     0.315 HD
HETATM   23  H11 UNL     1      23.028   2.823  46.882  1.00  0.00     0.315 HD
ENDBRANCH  20  21
ENDBRANCH  19  20
ENDBRANCH   4  19
BRANCH   1  24
HETATM   24  O1  UNL     1      24.829   6.872  50.610  1.00  0.00    -0.356 OA
HETATM   25  C1  UNL     1      24.331   8.184  50.523  1.00  0.00     0.210 C 
ENDBRANCH   1  24
TORSDOF 5
ENDMDL
