MODEL 1
REMARK VINA RESULT:      -7.9      0.000      0.000
REMARK  4 active torsions:
REMARK  status: ('A' for Active; 'I' for Inactive)
REMARK    1  A    between atoms: C1_2  and  C2_3 
REMARK       I    between atoms: C1_2  and  N1_11 
REMARK    2  A    between atoms: C2_3  and  C3_4 
REMARK    3  A    between atoms: N1_11  and  S1_12 
REMARK    4  A    between atoms: S1_12  and  C9_14 
ROOT
HETATM    1  O1  UNL     1      24.121   1.462  53.272  1.00  0.00    -0.272 OA
HETATM    2  C1  UNL     1      24.666   0.359  52.948  1.00  0.00     0.233 C 
HETATM    3  N1  UNL     1      23.912  -0.764  53.342  1.00  0.00    -0.272 N 
HETATM    4  H7  UNL     1      24.204  -1.745  53.162  1.00  0.00     0.179 HD
ENDROOT
BRANCH   3   5
HETATM    5  S1  UNL     1      22.406  -0.540  54.179  1.00  0.00     0.153 S 
HETATM    6  O2  UNL     1      22.135  -1.602  55.228  1.00  0.00    -0.230 OA
BRANCH   5   7
HETATM    7  C9  UNL     1      21.052  -0.298  53.078  1.00  0.00     0.052 A 
HETATM    8  C10 UNL     1      19.853  -0.788  53.592  1.00  0.00     0.024 A 
HETATM    9  C11 UNL     1      18.660  -0.707  52.903  1.00  0.00     0.020 A 
HETATM   10  C12 UNL     1      18.697  -0.105  51.644  1.00  0.00     0.011 A 
HETATM   11 BR1  UNL     1      17.114   0.058  50.610  1.00  0.00    -0.051 Br
HETATM   12  C13 UNL     1      19.880   0.382  51.129  1.00  0.00     0.020 A 
HETATM   13  C14 UNL     1      21.060   0.294  51.830  1.00  0.00     0.024 A 
ENDBRANCH   5   7
ENDBRANCH   3   5
BRANCH   2  14
HETATM   14  C2  UNL     1      25.956   0.121  52.231  1.00  0.00     0.142 C 
BRANCH  14  15
HETATM   15  C3  UNL     1      27.082   0.677  53.045  1.00  0.00    -0.049 A 
HETATM   16  C4  UNL     1      27.660  -0.071  54.048  1.00  0.00     0.011 A 
HETATM   17  C5  UNL     1      28.700   0.497  54.768  1.00  0.00     0.043 A 
HETATM   18  C6  UNL     1      29.155   1.790  54.489  1.00  0.00     0.116 A 
HETATM   19  F1  UNL     1      30.156   2.383  55.156  1.00  0.00    -0.206 F 
HETATM   20  C7  UNL     1      28.555   2.518  53.475  1.00  0.00     0.043 A 
HETATM   21  C8  UNL     1      27.505   1.973  52.732  1.00  0.00     0.011 A 
ENDBRANCH  14  15
ENDBRANCH   2  14
TORSDOF 4
ENDMDL
MODEL 2
REMARK VINA RESULT:      -7.7      4.409      6.016
REMARK  4 active torsions:
REMARK  status: ('A' for Active; 'I' for Inactive)
REMARK    1  A    between atoms: C1_2  and  C2_3 
REMARK       I    between atoms: C1_2  and  N1_11 
REMARK    2  A    between atoms: C2_3  and  C3_4 
REMARK    3  A    between atoms: N1_11  and  S1_12 
REMARK    4  A    between atoms: S1_12  and  C9_14 
ROOT
HETATM    1  O1  UNL     1      24.093   2.590  53.230  1.00  0.00    -0.272 OA
HETATM    2  C1  UNL     1      23.988   1.418  52.745  1.00  0.00     0.233 C 
HETATM    3  N1  UNL     1      23.567   1.414  51.401  1.00  0.00    -0.272 N 
HETATM    4  H7  UNL     1      23.427   0.547  50.845  1.00  0.00     0.179 HD
ENDROOT
BRANCH   3   5
HETATM    5  S1  UNL     1      23.254   2.919  50.592  1.00  0.00     0.153 S 
HETATM    6  O2  UNL     1      22.148   2.829  49.558  1.00  0.00    -0.230 OA
BRANCH   5   7
HETATM    7  C9  UNL     1      24.723   3.666  49.965  1.00  0.00     0.052 A 
HETATM    8  C10 UNL     1      24.507   4.966  49.510  1.00  0.00     0.024 A 
HETATM    9  C11 UNL     1      25.515   5.744  48.977  1.00  0.00     0.020 A 
HETATM   10  C12 UNL     1      26.786   5.171  48.909  1.00  0.00     0.011 A 
HETATM   11 BR1  UNL     1      28.244   6.153  48.194  1.00  0.00    -0.051 Br
HETATM   12  C13 UNL     1      27.007   3.886  49.357  1.00  0.00     0.020 A 
HETATM   13  C14 UNL     1      25.990   3.124  49.886  1.00  0.00     0.024 A 
ENDBRANCH   5   7
ENDBRANCH   3   5
BRANCH   2  14
HETATM   14  C2  UNL     1      24.246   0.101  53.404  1.00  0.00     0.142 C 
BRANCH  14  15
HETATM   15  C3  UNL     1      25.720  -0.078  53.587  1.00  0.00    -0.049 A 
HETATM   16  C4  UNL     1      26.375   0.521  54.642  1.00  0.00     0.011 A 
HETATM   17  C5  UNL     1      27.742   0.318  54.760  1.00  0.00     0.043 A 
HETATM   18  C6  UNL     1      28.441  -0.471  53.840  1.00  0.00     0.116 A 
HETATM   19  F1  UNL     1      29.761  -0.696  53.911  1.00  0.00    -0.206 F 
HETATM   20  C7  UNL     1      27.756  -1.060  52.791  1.00  0.00     0.043 A 
HETATM   21  C8  UNL     1      26.379  -0.874  52.645  1.00  0.00     0.011 A 
ENDBRANCH  14  15
ENDBRANCH   2  14
TORSDOF 4
ENDMDL
MODEL 3
REMARK VINA RESULT:      -7.6      4.350      5.948
REMARK  4 active torsions:
REMARK  status: ('A' for Active; 'I' for Inactive)
REMARK    1  A    between atoms: C1_2  and  C2_3 
REMARK       I    between atoms: C1_2  and  N1_11 
REMARK    2  A    between atoms: C2_3  and  C3_4 
REMARK    3  A    between atoms: N1_11  and  S1_12 
REMARK    4  A    between atoms: S1_12  and  C9_14 
ROOT
HETATM    1  O1  UNL     1      23.892   2.363  53.242  1.00  0.00    -0.272 OA
HETATM    2  C1  UNL     1      23.954   1.201  52.728  1.00  0.00     0.233 C 
HETATM    3  N1  UNL     1      23.672   1.194  51.348  1.00  0.00    -0.272 N 
HETATM    4  H7  UNL     1      23.676   0.334  50.765  1.00  0.00     0.179 HD
ENDROOT
BRANCH   3   5
HETATM    5  S1  UNL     1      23.291   2.683  50.539  1.00  0.00     0.153 S 
HETATM    6  O2  UNL     1      22.212   2.538  49.483  1.00  0.00    -0.230 OA
BRANCH   5   7
HETATM    7  C9  UNL     1      24.728   3.514  49.944  1.00  0.00     0.052 A 
HETATM    8  C10 UNL     1      24.439   4.780  49.437  1.00  0.00     0.024 A 
HETATM    9  C11 UNL     1      25.410   5.612  48.917  1.00  0.00     0.020 A 
HETATM   10  C12 UNL     1      26.721   5.130  48.917  1.00  0.00     0.011 A 
HETATM   11 BR1  UNL     1      28.134   6.192  48.226  1.00  0.00    -0.051 Br
HETATM   12  C13 UNL     1      27.013   3.879  49.418  1.00  0.00     0.020 A 
HETATM   13  C14 UNL     1      26.032   3.062  49.933  1.00  0.00     0.024 A 
ENDBRANCH   5   7
ENDBRANCH   3   5
BRANCH   2  14
HETATM   14  C2  UNL     1      24.276  -0.102  53.385  1.00  0.00     0.142 C 
BRANCH  14  15
HETATM   15  C3  UNL     1      25.760  -0.233  53.520  1.00  0.00    -0.049 A 
HETATM   16  C4  UNL     1      26.494  -0.918  52.576  1.00  0.00     0.011 A 
HETATM   17  C5  UNL     1      27.867  -1.005  52.754  1.00  0.00     0.043 A 
HETATM   18  C6  UNL     1      28.495  -0.417  53.857  1.00  0.00     0.116 A 
HETATM   19  F1  UNL     1      29.817  -0.474  54.074  1.00  0.00    -0.206 F 
HETATM   20  C7  UNL     1      27.731   0.265  54.790  1.00  0.00     0.043 A 
HETATM   21  C8  UNL     1      26.346   0.370  54.638  1.00  0.00     0.011 A 
ENDBRANCH  14  15
ENDBRANCH   2  14
TORSDOF 4
ENDMDL
MODEL 4
REMARK VINA RESULT:      -7.4      4.351      6.630
REMARK  4 active torsions:
REMARK  status: ('A' for Active; 'I' for Inactive)
REMARK    1  A    between atoms: C1_2  and  C2_3 
REMARK       I    between atoms: C1_2  and  N1_11 
REMARK    2  A    between atoms: C2_3  and  C3_4 
REMARK    3  A    between atoms: N1_11  and  S1_12 
REMARK    4  A    between atoms: S1_12  and  C9_14 
ROOT
HETATM    1  O1  UNL     1      26.352  -0.912  52.576  1.00  0.00    -0.272 OA
HETATM    2  C1  UNL     1      25.766  -0.232  53.478  1.00  0.00     0.233 C 
HETATM    3  N1  UNL     1      25.987   1.153  53.355  1.00  0.00    -0.272 N 
HETATM    4  H7  UNL     1      25.587   1.859  54.004  1.00  0.00     0.179 HD
ENDROOT
BRANCH   3   5
HETATM    5  S1  UNL     1      26.979   1.755  52.062  1.00  0.00     0.153 S 
HETATM    6  O2  UNL     1      28.272   2.390  52.538  1.00  0.00    -0.230 OA
BRANCH   5   7
HETATM    7  C9  UNL     1      26.080   2.780  50.944  1.00  0.00     0.052 A 
HETATM    8  C10 UNL     1      24.700   2.634  51.081  1.00  0.00     0.024 A 
HETATM    9  C11 UNL     1      23.799   3.339  50.308  1.00  0.00     0.020 A 
HETATM   10  C12 UNL     1      24.329   4.221  49.364  1.00  0.00     0.011 A 
HETATM   11 BR1  UNL     1      23.179   5.238  48.249  1.00  0.00    -0.051 Br
HETATM   12  C13 UNL     1      25.693   4.369  49.224  1.00  0.00     0.020 A 
HETATM   13  C14 UNL     1      26.578   3.659  50.003  1.00  0.00     0.024 A 
ENDBRANCH   5   7
ENDBRANCH   3   5
BRANCH   2  14
HETATM   14  C2  UNL     1      24.907  -0.708  54.605  1.00  0.00     0.142 C 
BRANCH  14  15
HETATM   15  C3  UNL     1      23.473  -0.684  54.177  1.00  0.00    -0.049 A 
HETATM   16  C4  UNL     1      23.101  -0.065  53.004  1.00  0.00     0.011 A 
HETATM   17  C5  UNL     1      21.758  -0.075  52.658  1.00  0.00     0.043 A 
HETATM   18  C6  UNL     1      20.804  -0.695  53.472  1.00  0.00     0.116 A 
HETATM   19  F1  UNL     1      19.495  -0.731  53.183  1.00  0.00    -0.206 F 
HETATM   20  C7  UNL     1      21.207  -1.309  54.646  1.00  0.00     0.043 A 
HETATM   21  C8  UNL     1      22.553  -1.315  55.020  1.00  0.00     0.011 A 
ENDBRANCH  14  15
ENDBRANCH   2  14
TORSDOF 4
ENDMDL
MODEL 5
REMARK VINA RESULT:      -7.1      5.225      7.238
REMARK  4 active torsions:
REMARK  status: ('A' for Active; 'I' for Inactive)
REMARK    1  A    between atoms: C1_2  and  C2_3 
REMARK       I    between atoms: C1_2  and  N1_11 
REMARK    2  A    between atoms: C2_3  and  C3_4 
REMARK    3  A    between atoms: N1_11  and  S1_12 
REMARK    4  A    between atoms: S1_12  and  C9_14 
ROOT
HETATM    1  O1  UNL     1      23.841   3.984  52.231  1.00  0.00    -0.272 OA
HETATM    2  C1  UNL     1      23.348   2.982  51.621  1.00  0.00     0.233 C 
HETATM    3  N1  UNL     1      23.064   3.246  50.267  1.00  0.00    -0.272 N 
HETATM    4  H7  UNL     1      22.658   2.545  49.617  1.00  0.00     0.179 HD
ENDROOT
BRANCH   3   5
HETATM    5  S1  UNL     1      23.396   4.819  49.609  1.00  0.00     0.153 S 
HETATM    6  O2  UNL     1      22.462   5.210  48.479  1.00  0.00    -0.230 OA
BRANCH   5   7
HETATM    7  C9  UNL     1      25.097   5.035  49.201  1.00  0.00     0.052 A 
HETATM    8  C10 UNL     1      25.360   6.294  48.664  1.00  0.00     0.024 A 
HETATM    9  C11 UNL     1      26.625   6.685  48.272  1.00  0.00     0.020 A 
HETATM   10  C12 UNL     1      27.653   5.755  48.436  1.00  0.00     0.011 A 
HETATM   11 BR1  UNL     1      29.430   6.190  47.929  1.00  0.00    -0.051 Br
HETATM   12  C13 UNL     1      27.399   4.508  48.967  1.00  0.00     0.020 A 
HETATM   13  C14 UNL     1      26.133   4.135  49.353  1.00  0.00     0.024 A 
ENDBRANCH   5   7
ENDBRANCH   3   5
BRANCH   2  14
HETATM   14  C2  UNL     1      23.047   1.615  52.147  1.00  0.00     0.142 C 
BRANCH  14  15
HETATM   15  C3  UNL     1      24.331   0.913  52.458  1.00  0.00    -0.049 A 
HETATM   16  C4  UNL     1      25.476   1.194  51.745  1.00  0.00     0.011 A 
HETATM   17  C5  UNL     1      26.636   0.512  52.078  1.00  0.00     0.043 A 
HETATM   18  C6  UNL     1      26.651  -0.436  53.108  1.00  0.00     0.116 A 
HETATM   19  F1  UNL     1      27.746  -1.122  53.467  1.00  0.00    -0.206 F 
HETATM   20  C7  UNL     1      25.485  -0.698  53.807  1.00  0.00     0.043 A 
HETATM   21  C8  UNL     1      24.300  -0.026  53.494  1.00  0.00     0.011 A 
ENDBRANCH  14  15
ENDBRANCH   2  14
TORSDOF 4
ENDMDL
MODEL 6
REMARK VINA RESULT:      -7.0      5.251      7.151
REMARK  4 active torsions:
REMARK  status: ('A' for Active; 'I' for Inactive)
REMARK    1  A    between atoms: C1_2  and  C2_3 
REMARK       I    between atoms: C1_2  and  N1_11 
REMARK    2  A    between atoms: C2_3  and  C3_4 
REMARK    3  A    between atoms: N1_11  and  S1_12 
REMARK    4  A    between atoms: S1_12  and  C9_14 
ROOT
HETATM    1  O1  UNL     1      23.439   3.729  49.799  1.00  0.00    -0.272 OA
HETATM    2  C1  UNL     1      24.157   4.482  50.531  1.00  0.00     0.233 C 
HETATM    3  N1  UNL     1      24.628   3.837  51.691  1.00  0.00    -0.272 N 
HETATM    4  H7  UNL     1      25.228   4.298  52.403  1.00  0.00     0.179 HD
ENDROOT
BRANCH   3   5
HETATM    5  S1  UNL     1      24.204   2.178  51.985  1.00  0.00     0.153 S 
HETATM    6  O2  UNL     1      23.026   2.014  52.926  1.00  0.00    -0.230 OA
BRANCH   5   7
HETATM    7  C9  UNL     1      25.595   1.198  52.446  1.00  0.00     0.052 A 
HETATM    8  C10 UNL     1      26.751   1.959  52.612  1.00  0.00     0.024 A 
HETATM    9  C11 UNL     1      27.962   1.402  52.973  1.00  0.00     0.020 A 
HETATM   10  C12 UNL     1      27.989   0.020  53.169  1.00  0.00     0.011 A 
HETATM   11 BR1  UNL     1      29.601  -0.847  53.666  1.00  0.00    -0.051 Br
HETATM   12  C13 UNL     1      26.849  -0.738  53.006  1.00  0.00     0.020 A 
HETATM   13  C14 UNL     1      25.649  -0.167  52.647  1.00  0.00     0.024 A 
ENDBRANCH   5   7
ENDBRANCH   3   5
BRANCH   2  14
HETATM   14  C2  UNL     1      24.545   5.910  50.317  1.00  0.00     0.142 C 
BRANCH  14  15
HETATM   15  C3  UNL     1      25.839   5.962  49.568  1.00  0.00    -0.049 A 
HETATM   16  C4  UNL     1      26.359   7.167  49.146  1.00  0.00     0.011 A 
HETATM   17  C5  UNL     1      27.562   7.153  48.457  1.00  0.00     0.043 A 
HETATM   18  C6  UNL     1      28.235   5.955  48.194  1.00  0.00     0.116 A 
HETATM   19  F1  UNL     1      29.399   5.889  47.532  1.00  0.00    -0.206 F 
HETATM   20  C7  UNL     1      27.688   4.759  48.630  1.00  0.00     0.043 A 
HETATM   21  C8  UNL     1      26.478   4.741  49.327  1.00  0.00     0.011 A 
ENDBRANCH  14  15
ENDBRANCH   2  14
TORSDOF 4
ENDMDL
MODEL 7
REMARK VINA RESULT:      -7.0      5.184      6.440
REMARK  4 active torsions:
REMARK  status: ('A' for Active; 'I' for Inactive)
REMARK    1  A    between atoms: C1_2  and  C2_3 
REMARK       I    between atoms: C1_2  and  N1_11 
REMARK    2  A    between atoms: C2_3  and  C3_4 
REMARK    3  A    between atoms: N1_11  and  S1_12 
REMARK    4  A    between atoms: S1_12  and  C9_14 
ROOT
HETATM    1  O1  UNL     1      24.876   2.015  51.208  1.00  0.00    -0.272 OA
HETATM    2  C1  UNL     1      25.862   2.334  51.945  1.00  0.00     0.233 C 
HETATM    3  N1  UNL     1      26.737   3.250  51.329  1.00  0.00    -0.272 N 
HETATM    4  H7  UNL     1      27.595   3.620  51.783  1.00  0.00     0.179 HD
ENDROOT
BRANCH   3   5
HETATM    5  S1  UNL     1      26.398   3.816  49.722  1.00  0.00     0.153 S 
HETATM    6  O2  UNL     1      27.645   4.115  48.912  1.00  0.00    -0.230 OA
BRANCH   5   7
HETATM    7  C9  UNL     1      25.232   5.139  49.705  1.00  0.00     0.052 A 
HETATM    8  C10 UNL     1      25.403   5.985  48.610  1.00  0.00     0.024 A 
HETATM    9  C11 UNL     1      24.603   7.088  48.392  1.00  0.00     0.020 A 
HETATM   10  C12 UNL     1      23.595   7.333  49.326  1.00  0.00     0.011 A 
HETATM   11 BR1  UNL     1      22.438   8.823  49.122  1.00  0.00    -0.051 Br
HETATM   12  C13 UNL     1      23.421   6.500  50.411  1.00  0.00     0.020 A 
HETATM   13  C14 UNL     1      24.228   5.404  50.614  1.00  0.00     0.024 A 
ENDBRANCH   5   7
ENDBRANCH   3   5
BRANCH   2  14
HETATM   14  C2  UNL     1      26.192   1.871  53.328  1.00  0.00     0.142 C 
BRANCH  14  15
HETATM   15  C3  UNL     1      27.003   0.617  53.249  1.00  0.00    -0.049 A 
HETATM   16  C4  UNL     1      26.442  -0.556  52.790  1.00  0.00     0.011 A 
HETATM   17  C5  UNL     1      27.243  -1.686  52.739  1.00  0.00     0.043 A 
HETATM   18  C6  UNL     1      28.583  -1.645  53.137  1.00  0.00     0.116 A 
HETATM   19  F1  UNL     1      29.398  -2.709  53.107  1.00  0.00    -0.206 F 
HETATM   20  C7  UNL     1      29.120  -0.453  53.594  1.00  0.00     0.043 A 
HETATM   21  C8  UNL     1      28.338   0.703  53.658  1.00  0.00     0.011 A 
ENDBRANCH  14  15
ENDBRANCH   2  14
TORSDOF 4
ENDMDL
MODEL 8
REMARK VINA RESULT:      -6.8      7.835      9.462
REMARK  4 active torsions:
REMARK  status: ('A' for Active; 'I' for Inactive)
REMARK    1  A    between atoms: C1_2  and  C2_3 
REMARK       I    between atoms: C1_2  and  N1_11 
REMARK    2  A    between atoms: C2_3  and  C3_4 
REMARK    3  A    between atoms: N1_11  and  S1_12 
REMARK    4  A    between atoms: S1_12  and  C9_14 
ROOT
HETATM    1  O1  UNL     1      30.645   6.692  47.161  1.00  0.00    -0.272 OA
HETATM    2  C1  UNL     1      30.774   6.199  48.326  1.00  0.00     0.233 C 
HETATM    3  N1  UNL     1      29.549   6.068  49.008  1.00  0.00    -0.272 N 
HETATM    4  H7  UNL     1      29.464   5.684  49.970  1.00  0.00     0.179 HD
ENDROOT
BRANCH   3   5
HETATM    5  S1  UNL     1      28.075   6.565  48.233  1.00  0.00     0.153 S 
HETATM    6  O2  UNL     1      27.825   8.058  48.313  1.00  0.00    -0.230 OA
BRANCH   5   7
HETATM    7  C9  UNL     1      26.688   5.606  48.746  1.00  0.00     0.052 A 
HETATM    8  C10 UNL     1      27.042   4.306  49.104  1.00  0.00     0.024 A 
HETATM    9  C11 UNL     1      26.118   3.377  49.538  1.00  0.00     0.020 A 
HETATM   10  C12 UNL     1      24.787   3.793  49.606  1.00  0.00     0.011 A 
HETATM   11 BR1  UNL     1      23.435   2.595  50.189  1.00  0.00    -0.051 Br
HETATM   12  C13 UNL     1      24.430   5.077  49.253  1.00  0.00     0.020 A 
HETATM   13  C14 UNL     1      25.364   5.992  48.823  1.00  0.00     0.024 A 
ENDBRANCH   5   7
ENDBRANCH   3   5
BRANCH   2  14
HETATM   14  C2  UNL     1      32.019   5.761  49.029  1.00  0.00     0.142 C 
BRANCH  14  15
HETATM   15  C3  UNL     1      32.882   4.999  48.074  1.00  0.00    -0.049 A 
HETATM   16  C4  UNL     1      34.051   5.548  47.593  1.00  0.00     0.011 A 
HETATM   17  C5  UNL     1      34.811   4.795  46.711  1.00  0.00     0.043 A 
HETATM   18  C6  UNL     1      34.409   3.514  46.317  1.00  0.00     0.116 A 
HETATM   19  F1  UNL     1      35.107   2.747  45.467  1.00  0.00    -0.206 F 
HETATM   20  C7  UNL     1      33.229   2.988  46.817  1.00  0.00     0.043 A 
HETATM   21  C8  UNL     1      32.443   3.723  47.707  1.00  0.00     0.011 A 
ENDBRANCH  14  15
ENDBRANCH   2  14
TORSDOF 4
ENDMDL
MODEL 9
REMARK VINA RESULT:      -6.8      4.745      5.926
REMARK  4 active torsions:
REMARK  status: ('A' for Active; 'I' for Inactive)
REMARK    1  A    between atoms: C1_2  and  C2_3 
REMARK       I    between atoms: C1_2  and  N1_11 
REMARK    2  A    between atoms: C2_3  and  C3_4 
REMARK    3  A    between atoms: N1_11  and  S1_12 
REMARK    4  A    between atoms: S1_12  and  C9_14 
ROOT
HETATM    1  O1  UNL     1      25.468   3.911  51.307  1.00  0.00    -0.272 OA
HETATM    2  C1  UNL     1      26.294   3.160  50.698  1.00  0.00     0.233 C 
HETATM    3  N1  UNL     1      26.833   2.152  51.521  1.00  0.00    -0.272 N 
HETATM    4  H7  UNL     1      27.523   1.448  51.192  1.00  0.00     0.179 HD
ENDROOT
BRANCH   3   5
HETATM    5  S1  UNL     1      26.344   2.045  53.184  1.00  0.00     0.153 S 
HETATM    6  O2  UNL     1      27.439   1.541  54.105  1.00  0.00    -0.230 OA
BRANCH   5   7
HETATM    7  C9  UNL     1      24.822   1.177  53.385  1.00  0.00     0.052 A 
HETATM    8  C10 UNL     1      24.981  -0.021  54.080  1.00  0.00     0.024 A 
HETATM    9  C11 UNL     1      23.925  -0.866  54.354  1.00  0.00     0.020 A 
HETATM   10  C12 UNL     1      22.664  -0.471  53.902  1.00  0.00     0.011 A 
HETATM   11 BR1  UNL     1      21.143  -1.558  54.225  1.00  0.00    -0.051 Br
HETATM   12  C13 UNL     1      22.501   0.714  53.214  1.00  0.00     0.020 A 
HETATM   13  C14 UNL     1      23.565   1.545  52.949  1.00  0.00     0.024 A 
ENDBRANCH   5   7
ENDBRANCH   3   5
BRANCH   2  14
HETATM   14  C2  UNL     1      26.743   3.216  49.273  1.00  0.00     0.142 C 
BRANCH  14  15
HETATM   15  C3  UNL     1      26.911   4.646  48.865  1.00  0.00    -0.049 A 
HETATM   16  C4  UNL     1      25.826   5.496  48.820  1.00  0.00     0.011 A 
HETATM   17  C5  UNL     1      26.044   6.810  48.435  1.00  0.00     0.043 A 
HETATM   18  C6  UNL     1      27.323   7.268  48.102  1.00  0.00     0.116 A 
HETATM   19  F1  UNL     1      27.584   8.528  47.724  1.00  0.00    -0.206 F 
HETATM   20  C7  UNL     1      28.394   6.391  48.157  1.00  0.00     0.043 A 
HETATM   21  C8  UNL     1      28.207   5.061  48.541  1.00  0.00     0.011 A 
ENDBRANCH  14  15
ENDBRANCH   2  14
TORSDOF 4
ENDMDL
