MODEL 1
REMARK VINA RESULT:      -7.4      0.000      0.000
REMARK  7 active torsions:
REMARK  status: ('A' for Active; 'I' for Inactive)
REMARK    1  A    between atoms: C2_2  and  C3_3 
REMARK    2  A    between atoms: C3_3  and  C15_19 
REMARK    3  A    between atoms: C4_4  and  C5_5 
REMARK    4  A    between atoms: C8_11  and  N3_12 
REMARK    5  A    between atoms: N3_12  and  C10_14 
REMARK    6  A    between atoms: C15_19  and  C16_20 
REMARK    7  A    between atoms: C17_21  and  O1_22 
ROOT
HETATM    1  C5  UNL     1      24.566   2.129  51.503  1.00  0.00     0.028 A 
HETATM    2  C6  UNL     1      24.020   3.059  50.650  1.00  0.00     0.135 A 
HETATM    3  N1  UNL     1      24.836   3.774  49.824  1.00  0.00    -0.230 NA
HETATM    4  C7  UNL     1      26.164   3.557  49.856  1.00  0.00     0.224 A 
HETATM    5 CL1  UNL     1      27.315   4.405  48.853  1.00  0.00    -0.041 Cl
HETATM    6  N2  UNL     1      26.687   2.656  50.682  1.00  0.00    -0.200 NA
HETATM    7  C8  UNL     1      25.920   1.925  51.519  1.00  0.00     0.141 A 
ENDROOT
BRANCH   1   8
HETATM    8  C4  UNL     1      23.657   1.430  52.369  1.00  0.00     0.020 C 
HETATM    9  C3  UNL     1      22.550   0.694  52.338  1.00  0.00    -0.076 C 
BRANCH   9  10
HETATM   10  C2  UNL     1      21.964   0.163  53.625  1.00  0.00     0.030 C 
HETATM   11  C1  UNL     1      22.914  -0.833  54.243  1.00  0.00     0.010 C 
ENDBRANCH   9  10
BRANCH   9  12
HETATM   12  C15 UNL     1      21.602   0.216  51.301  1.00  0.00     0.063 C 
BRANCH  12  13
HETATM   13  C16 UNL     1      20.635   1.240  50.850  1.00  0.00     0.001 C 
HETATM   14  C17 UNL     1      20.614   1.554  49.586  1.00  0.00     0.127 C 
BRANCH  14  15
HETATM   15  O1  UNL     1      21.572   0.814  48.874  1.00  0.00    -0.373 OA
HETATM   16  H20 UNL     1      21.645  -0.189  49.027  1.00  0.00     0.216 HD
ENDBRANCH  14  15
ENDBRANCH  12  13
ENDBRANCH   9  12
ENDBRANCH   1   8
BRANCH   7  17
HETATM   17  N3  UNL     1      26.507   0.965  52.391  1.00  0.00    -0.358 N 
HETATM   18  C9  UNL     1      26.768  -0.471  52.222  1.00  0.00     0.152 C 
BRANCH  17  19
HETATM   19  C10 UNL     1      26.963   1.361  53.702  1.00  0.00     0.131 A 
HETATM   20  C11 UNL     1      28.245   2.110  53.570  1.00  0.00     0.002 A 
HETATM   21  C12 UNL     1      29.197   1.467  54.257  1.00  0.00    -0.002 A 
HETATM   22  C13 UNL     1      28.608   0.270  54.874  1.00  0.00    -0.002 A 
HETATM   23  C14 UNL     1      27.329   0.204  54.560  1.00  0.00     0.002 A 
ENDBRANCH  17  19
ENDBRANCH   7  17
TORSDOF 7
ENDMDL
MODEL 2
REMARK VINA RESULT:      -7.4      2.162      5.419
REMARK  7 active torsions:
REMARK  status: ('A' for Active; 'I' for Inactive)
REMARK    1  A    between atoms: C2_2  and  C3_3 
REMARK    2  A    between atoms: C3_3  and  C15_19 
REMARK    3  A    between atoms: C4_4  and  C5_5 
REMARK    4  A    between atoms: C8_11  and  N3_12 
REMARK    5  A    between atoms: N3_12  and  C10_14 
REMARK    6  A    between atoms: C15_19  and  C16_20 
REMARK    7  A    between atoms: C17_21  and  O1_22 
ROOT
HETATM    1  C5  UNL     1      24.797   2.090  51.532  1.00  0.00     0.028 A 
HETATM    2  C6  UNL     1      26.135   1.849  51.326  1.00  0.00     0.135 A 
HETATM    3  N1  UNL     1      26.852   2.681  50.519  1.00  0.00    -0.230 NA
HETATM    4  C7  UNL     1      26.238   3.728  49.938  1.00  0.00     0.224 A 
HETATM    5 CL1  UNL     1      27.040   4.867  48.884  1.00  0.00    -0.041 Cl
HETATM    6  N2  UNL     1      24.944   3.958  50.140  1.00  0.00    -0.200 NA
HETATM    7  C8  UNL     1      24.193   3.161  50.930  1.00  0.00     0.141 A 
ENDROOT
BRANCH   1   8
HETATM    8  C4  UNL     1      24.091   1.158  52.369  1.00  0.00     0.020 C 
HETATM    9  C3  UNL     1      24.303   0.196  53.261  1.00  0.00    -0.076 C 
BRANCH   9  10
HETATM   10  C2  UNL     1      23.129  -0.519  53.888  1.00  0.00     0.030 C 
HETATM   11  C1  UNL     1      21.888   0.330  53.756  1.00  0.00     0.010 C 
ENDBRANCH   9  10
BRANCH   9  12
HETATM   12  C15 UNL     1      25.481  -0.475  53.864  1.00  0.00     0.063 C 
BRANCH  12  13
HETATM   13  C16 UNL     1      26.318   0.411  54.701  1.00  0.00     0.001 C 
HETATM   14  C17 UNL     1      27.598   0.174  54.762  1.00  0.00     0.127 C 
BRANCH  14  15
HETATM   15  O1  UNL     1      27.935  -0.940  53.976  1.00  0.00    -0.373 OA
HETATM   16  H20 UNL     1      27.368  -1.169  53.162  1.00  0.00     0.216 HD
ENDBRANCH  14  15
ENDBRANCH  12  13
ENDBRANCH   9  12
ENDBRANCH   1   8
BRANCH   7  17
HETATM   17  N3  UNL     1      22.811   3.432  51.132  1.00  0.00    -0.358 N 
HETATM   18  C9  UNL     1      22.099   4.082  52.242  1.00  0.00     0.152 C 
BRANCH  17  19
HETATM   19  C10 UNL     1      21.843   3.043  50.134  1.00  0.00     0.131 A 
HETATM   20  C11 UNL     1      20.673   2.408  50.807  1.00  0.00     0.002 A 
HETATM   21  C12 UNL     1      20.533   1.158  50.348  1.00  0.00    -0.002 A 
HETATM   22  C13 UNL     1      21.588   0.897  49.359  1.00  0.00    -0.002 A 
HETATM   23  C14 UNL     1      22.341   1.972  49.233  1.00  0.00     0.002 A 
ENDBRANCH  17  19
ENDBRANCH   7  17
TORSDOF 7
ENDMDL
MODEL 3
REMARK VINA RESULT:      -7.4      3.256      4.738
REMARK  7 active torsions:
REMARK  status: ('A' for Active; 'I' for Inactive)
REMARK    1  A    between atoms: C2_2  and  C3_3 
REMARK    2  A    between atoms: C3_3  and  C15_19 
REMARK    3  A    between atoms: C4_4  and  C5_5 
REMARK    4  A    between atoms: C8_11  and  N3_12 
REMARK    5  A    between atoms: N3_12  and  C10_14 
REMARK    6  A    between atoms: C15_19  and  C16_20 
REMARK    7  A    between atoms: C17_21  and  O1_22 
ROOT
HETATM    1  C5  UNL     1      23.747   1.225  52.196  1.00  0.00     0.028 A 
HETATM    2  C6  UNL     1      22.372   1.245  52.220  1.00  0.00     0.135 A 
HETATM    3  N1  UNL     1      21.700   0.364  53.014  1.00  0.00    -0.230 NA
HETATM    4  C7  UNL     1      22.394  -0.510  53.766  1.00  0.00     0.224 A 
HETATM    5 CL1  UNL     1      21.656  -1.688  54.824  1.00  0.00    -0.041 Cl
HETATM    6  N2  UNL     1      23.723  -0.525  53.741  1.00  0.00    -0.200 NA
HETATM    7  C8  UNL     1      24.432   0.326  52.968  1.00  0.00     0.141 A 
ENDROOT
BRANCH   1   8
HETATM    8  C4  UNL     1      24.395   2.157  51.315  1.00  0.00     0.020 C 
HETATM    9  C3  UNL     1      24.449   3.455  51.033  1.00  0.00    -0.076 C 
BRANCH   9  10
HETATM   10  C2  UNL     1      25.361   3.949  49.935  1.00  0.00     0.030 C 
HETATM   11  C1  UNL     1      26.562   3.040  49.825  1.00  0.00     0.010 C 
ENDBRANCH   9  10
BRANCH   9  12
HETATM   12  C15 UNL     1      23.781   4.691  51.513  1.00  0.00     0.063 C 
BRANCH  12  13
HETATM   13  C16 UNL     1      23.796   5.802  50.537  1.00  0.00     0.001 C 
HETATM   14  C17 UNL     1      24.136   6.987  50.958  1.00  0.00     0.127 C 
BRANCH  14  15
HETATM   15  O1  UNL     1      24.433   6.961  52.329  1.00  0.00    -0.373 OA
HETATM   16  H20 UNL     1      24.214   7.772  52.905  1.00  0.00     0.216 HD
ENDBRANCH  14  15
ENDBRANCH  12  13
ENDBRANCH   9  12
ENDBRANCH   1   8
BRANCH   7  17
HETATM   17  N3  UNL     1      25.855   0.290  52.963  1.00  0.00    -0.358 N 
HETATM   18  C9  UNL     1      26.809  -0.336  52.036  1.00  0.00     0.152 C 
BRANCH  17  19
HETATM   19  C10 UNL     1      26.600   0.951  54.008  1.00  0.00     0.131 A 
HETATM   20  C11 UNL     1      27.122   2.249  53.492  1.00  0.00     0.002 A 
HETATM   21  C12 UNL     1      28.458   2.245  53.576  1.00  0.00    -0.002 A 
HETATM   22  C13 UNL     1      28.892   0.960  54.143  1.00  0.00    -0.002 A 
HETATM   23  C14 UNL     1      27.833   0.216  54.392  1.00  0.00     0.002 A 
ENDBRANCH  17  19
ENDBRANCH   7  17
TORSDOF 7
ENDMDL
MODEL 4
REMARK VINA RESULT:      -7.1      2.161      4.639
REMARK  7 active torsions:
REMARK  status: ('A' for Active; 'I' for Inactive)
REMARK    1  A    between atoms: C2_2  and  C3_3 
REMARK    2  A    between atoms: C3_3  and  C15_19 
REMARK    3  A    between atoms: C4_4  and  C5_5 
REMARK    4  A    between atoms: C8_11  and  N3_12 
REMARK    5  A    between atoms: N3_12  and  C10_14 
REMARK    6  A    between atoms: C15_19  and  C16_20 
REMARK    7  A    between atoms: C17_21  and  O1_22 
ROOT
HETATM    1  C5  UNL     1      24.834   1.161  52.324  1.00  0.00     0.028 A 
HETATM    2  C6  UNL     1      25.471   0.187  53.057  1.00  0.00     0.135 A 
HETATM    3  N1  UNL     1      26.719   0.426  53.551  1.00  0.00    -0.230 NA
HETATM    4  C7  UNL     1      27.306   1.614  53.316  1.00  0.00     0.224 A 
HETATM    5 CL1  UNL     1      28.898   2.045  53.891  1.00  0.00    -0.041 Cl
HETATM    6  N2  UNL     1      26.686   2.553  52.607  1.00  0.00    -0.200 NA
HETATM    7  C8  UNL     1      25.451   2.361  52.096  1.00  0.00     0.141 A 
ENDROOT
BRANCH   1   8
HETATM    8  C4  UNL     1      23.534   0.836  51.804  1.00  0.00     0.020 C 
HETATM    9  C3  UNL     1      22.292   0.576  52.200  1.00  0.00    -0.076 C 
BRANCH   9  10
HETATM   10  C2  UNL     1      21.223   0.278  51.176  1.00  0.00     0.030 C 
HETATM   11  C1  UNL     1      21.577   0.939  49.865  1.00  0.00     0.010 C 
ENDBRANCH   9  10
BRANCH   9  12
HETATM   12  C15 UNL     1      21.577   0.450  53.495  1.00  0.00     0.063 C 
BRANCH  12  13
HETATM   13  C16 UNL     1      22.107  -0.614  54.375  1.00  0.00     0.001 C 
HETATM   14  C17 UNL     1      21.322  -1.607  54.682  1.00  0.00     0.127 C 
BRANCH  14  15
HETATM   15  O1  UNL     1      20.064  -1.451  54.081  1.00  0.00    -0.373 OA
HETATM   16  H20 UNL     1      19.631  -0.530  54.058  1.00  0.00     0.216 HD
ENDBRANCH  14  15
ENDBRANCH  12  13
ENDBRANCH   9  12
ENDBRANCH   1   8
BRANCH   7  17
HETATM   17  N3  UNL     1      24.810   3.385  51.344  1.00  0.00    -0.358 N 
HETATM   18  C9  UNL     1      23.864   4.437  51.742  1.00  0.00     0.152 C 
BRANCH  17  19
HETATM   19  C10 UNL     1      25.057   3.506  49.926  1.00  0.00     0.131 A 
HETATM   20  C11 UNL     1      26.500   3.244  49.657  1.00  0.00     0.002 A 
HETATM   21  C12 UNL     1      27.038   4.325  49.081  1.00  0.00    -0.002 A 
HETATM   22  C13 UNL     1      25.997   5.353  48.939  1.00  0.00    -0.002 A 
HETATM   23  C14 UNL     1      24.861   4.890  49.421  1.00  0.00     0.002 A 
ENDBRANCH  17  19
ENDBRANCH   7  17
TORSDOF 7
ENDMDL
MODEL 5
REMARK VINA RESULT:      -7.0      3.587      6.385
REMARK  7 active torsions:
REMARK  status: ('A' for Active; 'I' for Inactive)
REMARK    1  A    between atoms: C2_2  and  C3_3 
REMARK    2  A    between atoms: C3_3  and  C15_19 
REMARK    3  A    between atoms: C4_4  and  C5_5 
REMARK    4  A    between atoms: C8_11  and  N3_12 
REMARK    5  A    between atoms: N3_12  and  C10_14 
REMARK    6  A    between atoms: C15_19  and  C16_20 
REMARK    7  A    between atoms: C17_21  and  O1_22 
ROOT
HETATM    1  C5  UNL     1      23.250   0.890  52.291  1.00  0.00     0.028 A 
HETATM    2  C6  UNL     1      23.183  -0.027  53.314  1.00  0.00     0.135 A 
HETATM    3  N1  UNL     1      21.977  -0.557  53.664  1.00  0.00    -0.230 NA
HETATM    4  C7  UNL     1      20.870  -0.176  52.999  1.00  0.00     0.224 A 
HETATM    5 CL1  UNL     1      19.268  -0.779  53.348  1.00  0.00    -0.041 Cl
HETATM    6  N2  UNL     1      20.940   0.709  52.010  1.00  0.00    -0.200 NA
HETATM    7  C8  UNL     1      22.111   1.263  51.629  1.00  0.00     0.141 A 
ENDROOT
BRANCH   1   8
HETATM    8  C4  UNL     1      24.546   1.435  51.991  1.00  0.00     0.020 C 
HETATM    9  C3  UNL     1      25.838   1.121  52.023  1.00  0.00    -0.076 C 
BRANCH   9  10
HETATM   10  C2  UNL     1      26.866   2.127  51.562  1.00  0.00     0.030 C 
HETATM   11  C1  UNL     1      26.354   2.854  50.341  1.00  0.00     0.010 C 
ENDBRANCH   9  10
BRANCH   9  12
HETATM   12  C15 UNL     1      26.655  -0.040  52.454  1.00  0.00     0.063 C 
BRANCH  12  13
HETATM   13  C16 UNL     1      27.870   0.326  53.214  1.00  0.00     0.001 C 
HETATM   14  C17 UNL     1      27.886   0.098  54.496  1.00  0.00     0.127 C 
BRANCH  14  15
HETATM   15  O1  UNL     1      26.677  -0.478  54.915  1.00  0.00    -0.373 OA
HETATM   16  H20 UNL     1      26.374  -0.363  55.880  1.00  0.00     0.216 HD
ENDBRANCH  14  15
ENDBRANCH  12  13
ENDBRANCH   9  12
ENDBRANCH   1   8
BRANCH   7  17
HETATM   17  N3  UNL     1      22.157   2.206  50.565  1.00  0.00    -0.358 N 
HETATM   18  C9  UNL     1      22.445   2.044  49.133  1.00  0.00     0.152 C 
BRANCH  17  19
HETATM   19  C10 UNL     1      21.890   3.602  50.821  1.00  0.00     0.131 A 
HETATM   20  C11 UNL     1      22.999   4.424  50.260  1.00  0.00     0.002 A 
HETATM   21  C12 UNL     1      23.566   5.124  51.250  1.00  0.00    -0.002 A 
HETATM   22  C13 UNL     1      22.874   4.809  52.508  1.00  0.00    -0.002 A 
HETATM   23  C14 UNL     1      21.914   3.938  52.269  1.00  0.00     0.002 A 
ENDBRANCH  17  19
ENDBRANCH   7  17
TORSDOF 7
ENDMDL
MODEL 6
REMARK VINA RESULT:      -7.0      3.731      6.745
REMARK  7 active torsions:
REMARK  status: ('A' for Active; 'I' for Inactive)
REMARK    1  A    between atoms: C2_2  and  C3_3 
REMARK    2  A    between atoms: C3_3  and  C15_19 
REMARK    3  A    between atoms: C4_4  and  C5_5 
REMARK    4  A    between atoms: C8_11  and  N3_12 
REMARK    5  A    between atoms: N3_12  and  C10_14 
REMARK    6  A    between atoms: C15_19  and  C16_20 
REMARK    7  A    between atoms: C17_21  and  O1_22 
ROOT
HETATM    1  C5  UNL     1      23.392   0.828  52.531  1.00  0.00     0.028 A 
HETATM    2  C6  UNL     1      23.334  -0.439  53.064  1.00  0.00     0.135 A 
HETATM    3  N1  UNL     1      22.126  -0.967  53.410  1.00  0.00    -0.230 NA
HETATM    4  C7  UNL     1      21.008  -0.242  53.219  1.00  0.00     0.224 A 
HETATM    5 CL1  UNL     1      19.402  -0.802  53.619  1.00  0.00    -0.041 Cl
HETATM    6  N2  UNL     1      21.070   0.981  52.702  1.00  0.00    -0.200 NA
HETATM    7  C8  UNL     1      22.243   1.548  52.347  1.00  0.00     0.141 A 
ENDROOT
BRANCH   1   8
HETATM    8  C4  UNL     1      24.698   1.340  52.217  1.00  0.00     0.020 C 
HETATM    9  C3  UNL     1      25.878   1.590  52.776  1.00  0.00    -0.076 C 
BRANCH   9  10
HETATM   10  C2  UNL     1      26.997   2.169  51.942  1.00  0.00     0.030 C 
HETATM   11  C1  UNL     1      26.423   2.835  50.715  1.00  0.00     0.010 C 
ENDBRANCH   9  10
BRANCH   9  12
HETATM   12  C15 UNL     1      26.473   1.483  54.131  1.00  0.00     0.063 C 
BRANCH  12  13
HETATM   13  C16 UNL     1      27.071   0.163  54.426  1.00  0.00     0.001 C 
HETATM   14  C17 UNL     1      28.310   0.123  54.826  1.00  0.00     0.127 C 
BRANCH  14  15
HETATM   15  O1  UNL     1      28.852   1.416  54.896  1.00  0.00    -0.373 OA
HETATM   16  H20 UNL     1      29.850   1.550  54.749  1.00  0.00     0.216 HD
ENDBRANCH  14  15
ENDBRANCH  12  13
ENDBRANCH   9  12
ENDBRANCH   1   8
BRANCH   7  17
HETATM   17  N3  UNL     1      22.278   2.858  51.793  1.00  0.00    -0.358 N 
HETATM   18  C9  UNL     1      22.737   4.138  52.351  1.00  0.00     0.152 C 
BRANCH  17  19
HETATM   19  C10 UNL     1      21.804   3.089  50.449  1.00  0.00     0.131 A 
HETATM   20  C11 UNL     1      22.286   1.992  49.563  1.00  0.00     0.002 A 
HETATM   21  C12 UNL     1      23.034   2.518  48.586  1.00  0.00    -0.002 A 
HETATM   22  C13 UNL     1      23.090   3.976  48.766  1.00  0.00    -0.002 A 
HETATM   23  C14 UNL     1      22.388   4.308  49.831  1.00  0.00     0.002 A 
ENDBRANCH  17  19
ENDBRANCH   7  17
TORSDOF 7
ENDMDL
MODEL 7
REMARK VINA RESULT:      -6.9      2.263      4.759
REMARK  7 active torsions:
REMARK  status: ('A' for Active; 'I' for Inactive)
REMARK    1  A    between atoms: C2_2  and  C3_3 
REMARK    2  A    between atoms: C3_3  and  C15_19 
REMARK    3  A    between atoms: C4_4  and  C5_5 
REMARK    4  A    between atoms: C8_11  and  N3_12 
REMARK    5  A    between atoms: N3_12  and  C10_14 
REMARK    6  A    between atoms: C15_19  and  C16_20 
REMARK    7  A    between atoms: C17_21  and  O1_22 
ROOT
HETATM    1  C5  UNL     1      24.735   1.397  52.127  1.00  0.00     0.028 A 
HETATM    2  C6  UNL     1      25.333   0.567  53.046  1.00  0.00     0.135 A 
HETATM    3  N1  UNL     1      26.579   0.865  53.511  1.00  0.00    -0.230 NA
HETATM    4  C7  UNL     1      27.204   1.970  53.065  1.00  0.00     0.224 A 
HETATM    5 CL1  UNL     1      28.799   2.463  53.580  1.00  0.00    -0.041 Cl
HETATM    6  N2  UNL     1      26.622   2.770  52.177  1.00  0.00    -0.200 NA
HETATM    7  C8  UNL     1      25.390   2.516  51.686  1.00  0.00     0.141 A 
ENDROOT
BRANCH   1   8
HETATM    8  C4  UNL     1      23.435   1.012  51.652  1.00  0.00     0.020 C 
HETATM    9  C3  UNL     1      22.227   0.668  52.092  1.00  0.00    -0.076 C 
BRANCH   9  10
HETATM   10  C2  UNL     1      21.134   0.337  51.104  1.00  0.00     0.030 C 
HETATM   11  C1  UNL     1      21.395   1.050  49.799  1.00  0.00     0.010 C 
ENDBRANCH   9  10
BRANCH   9  12
HETATM   12  C15 UNL     1      21.579   0.464  53.411  1.00  0.00     0.063 C 
BRANCH  12  13
HETATM   13  C16 UNL     1      21.937  -0.812  54.068  1.00  0.00     0.001 C 
HETATM   14  C17 UNL     1      20.976  -1.630  54.389  1.00  0.00     0.127 C 
BRANCH  14  15
HETATM   15  O1  UNL     1      19.728  -1.100  54.025  1.00  0.00    -0.373 OA
HETATM   16  H20 UNL     1      19.668  -0.135  53.707  1.00  0.00     0.216 HD
ENDBRANCH  14  15
ENDBRANCH  12  13
ENDBRANCH   9  12
ENDBRANCH   1   8
BRANCH   7  17
HETATM   17  N3  UNL     1      24.790   3.392  50.738  1.00  0.00    -0.358 N 
HETATM   18  C9  UNL     1      24.716   3.335  49.272  1.00  0.00     0.152 C 
BRANCH  17  19
HETATM   19  C10 UNL     1      24.105   4.582  51.185  1.00  0.00     0.131 A 
HETATM   20  C11 UNL     1      23.565   4.352  52.555  1.00  0.00     0.002 A 
HETATM   21  C12 UNL     1      22.236   4.503  52.530  1.00  0.00    -0.002 A 
HETATM   22  C13 UNL     1      21.824   4.837  51.159  1.00  0.00    -0.002 A 
HETATM   23  C14 UNL     1      22.889   4.883  50.385  1.00  0.00     0.002 A 
ENDBRANCH  17  19
ENDBRANCH   7  17
TORSDOF 7
ENDMDL
MODEL 8
REMARK VINA RESULT:      -6.8      2.560      5.693
REMARK  7 active torsions:
REMARK  status: ('A' for Active; 'I' for Inactive)
REMARK    1  A    between atoms: C2_2  and  C3_3 
REMARK    2  A    between atoms: C3_3  and  C15_19 
REMARK    3  A    between atoms: C4_4  and  C5_5 
REMARK    4  A    between atoms: C8_11  and  N3_12 
REMARK    5  A    between atoms: N3_12  and  C10_14 
REMARK    6  A    between atoms: C15_19  and  C16_20 
REMARK    7  A    between atoms: C17_21  and  O1_22 
ROOT
HETATM    1  C5  UNL     1      25.557   3.544  50.404  1.00  0.00     0.028 A 
HETATM    2  C6  UNL     1      26.856   3.496  49.952  1.00  0.00     0.135 A 
HETATM    3  N1  UNL     1      27.334   4.507  49.173  1.00  0.00    -0.230 NA
HETATM    4  C7  UNL     1      26.527   5.538  48.860  1.00  0.00     0.224 A 
HETATM    5 CL1  UNL     1      27.017   6.893  47.871  1.00  0.00    -0.041 Cl
HETATM    6  N2  UNL     1      25.274   5.580  49.299  1.00  0.00    -0.200 NA
HETATM    7  C8  UNL     1      24.755   4.602  50.072  1.00  0.00     0.141 A 
ENDROOT
BRANCH   1   8
HETATM    8  C4  UNL     1      25.104   2.433  51.195  1.00  0.00     0.020 C 
HETATM    9  C3  UNL     1      25.302   1.845  52.371  1.00  0.00    -0.076 C 
BRANCH   9  10
HETATM   10  C2  UNL     1      24.505   0.616  52.741  1.00  0.00     0.030 C 
HETATM   11  C1  UNL     1      23.070   1.003  53.006  1.00  0.00     0.010 C 
ENDBRANCH   9  10
BRANCH   9  12
HETATM   12  C15 UNL     1      26.195   2.046  53.540  1.00  0.00     0.063 C 
BRANCH  12  13
HETATM   13  C16 UNL     1      27.334   1.106  53.598  1.00  0.00     0.001 C 
HETATM   14  C17 UNL     1      28.526   1.564  53.339  1.00  0.00     0.127 C 
BRANCH  14  15
HETATM   15  O1  UNL     1      28.476   2.935  53.040  1.00  0.00    -0.373 OA
HETATM   16  H20 UNL     1      29.271   3.527  53.273  1.00  0.00     0.216 HD
ENDBRANCH  14  15
ENDBRANCH  12  13
ENDBRANCH   9  12
ENDBRANCH   1   8
BRANCH   7  17
HETATM   17  N3  UNL     1      23.410   4.675  50.531  1.00  0.00    -0.358 N 
HETATM   18  C9  UNL     1      22.836   5.180  51.787  1.00  0.00     0.152 C 
BRANCH  17  19
HETATM   19  C10 UNL     1      22.333   4.194  49.698  1.00  0.00     0.131 A 
HETATM   20  C11 UNL     1      21.521   3.209  50.467  1.00  0.00     0.002 A 
HETATM   21  C12 UNL     1      21.539   2.035  49.824  1.00  0.00    -0.002 A 
HETATM   22  C13 UNL     1      22.354   2.174  48.609  1.00  0.00    -0.002 A 
HETATM   23  C14 UNL     1      22.811   3.407  48.532  1.00  0.00     0.002 A 
ENDBRANCH  17  19
ENDBRANCH   7  17
TORSDOF 7
ENDMDL
MODEL 9
REMARK VINA RESULT:      -6.6      1.899      2.239
REMARK  7 active torsions:
REMARK  status: ('A' for Active; 'I' for Inactive)
REMARK    1  A    between atoms: C2_2  and  C3_3 
REMARK    2  A    between atoms: C3_3  and  C15_19 
REMARK    3  A    between atoms: C4_4  and  C5_5 
REMARK    4  A    between atoms: C8_11  and  N3_12 
REMARK    5  A    between atoms: N3_12  and  C10_14 
REMARK    6  A    between atoms: C15_19  and  C16_20 
REMARK    7  A    between atoms: C17_21  and  O1_22 
ROOT
HETATM    1  C5  UNL     1      24.358   1.238  52.461  1.00  0.00     0.028 A 
HETATM    2  C6  UNL     1      23.522   2.247  52.045  1.00  0.00     0.135 A 
HETATM    3  N1  UNL     1      23.984   3.188  51.174  1.00  0.00    -0.230 NA
HETATM    4  C7  UNL     1      25.253   3.111  50.731  1.00  0.00     0.224 A 
HETATM    5 CL1  UNL     1      25.967   4.250  49.616  1.00  0.00    -0.041 Cl
HETATM    6  N2  UNL     1      26.058   2.133  51.135  1.00  0.00    -0.200 NA
HETATM    7  C8  UNL     1      25.645   1.180  51.998  1.00  0.00     0.141 A 
ENDROOT
BRANCH   1   8
HETATM    8  C4  UNL     1      23.820   0.296  53.404  1.00  0.00     0.020 C 
HETATM    9  C3  UNL     1      22.673  -0.070  53.969  1.00  0.00    -0.076 C 
BRANCH   9  10
HETATM   10  C2  UNL     1      22.655  -1.203  54.967  1.00  0.00     0.030 C 
HETATM   11  C1  UNL     1      24.020  -1.349  55.596  1.00  0.00     0.010 C 
ENDBRANCH   9  10
BRANCH   9  12
HETATM   12  C15 UNL     1      21.259   0.378  53.924  1.00  0.00     0.063 C 
BRANCH  12  13
HETATM   13  C16 UNL     1      20.560   0.043  52.665  1.00  0.00     0.001 C 
HETATM   14  C17 UNL     1      19.367  -0.476  52.741  1.00  0.00     0.127 C 
BRANCH  14  15
HETATM   15  O1  UNL     1      18.973  -0.619  54.081  1.00  0.00    -0.373 OA
HETATM   16  H20 UNL     1      18.549   0.169  54.565  1.00  0.00     0.216 HD
ENDBRANCH  14  15
ENDBRANCH  12  13
ENDBRANCH   9  12
ENDBRANCH   1   8
BRANCH   7  17
HETATM   17  N3  UNL     1      26.527   0.142  52.411  1.00  0.00    -0.358 N 
HETATM   18  C9  UNL     1      26.297  -1.287  52.662  1.00  0.00     0.152 C 
BRANCH  17  19
HETATM   19  C10 UNL     1      27.920   0.431  52.658  1.00  0.00     0.131 A 
HETATM   20  C11 UNL     1      28.575  -0.775  53.239  1.00  0.00     0.002 A 
HETATM   21  C12 UNL     1      29.073  -0.463  54.442  1.00  0.00    -0.002 A 
HETATM   22  C13 UNL     1      28.779   0.949  54.723  1.00  0.00    -0.002 A 
HETATM   23  C14 UNL     1      28.119   1.466  53.705  1.00  0.00     0.002 A 
ENDBRANCH  17  19
ENDBRANCH   7  17
TORSDOF 7
ENDMDL
