MODEL 1
REMARK VINA RESULT:      -8.2      0.000      0.000
REMARK  6 active torsions:
REMARK  status: ('A' for Active; 'I' for Inactive)
REMARK    1  A    between atoms: C4_5  and  C5_6 
REMARK    2  A    between atoms: C6_7  and  C7_8 
REMARK    3  A    between atoms: C8_9  and  C9_10 
REMARK    4  A    between atoms: C9_10  and  O1_12 
REMARK    5  A    between atoms: O1_12  and  C11_13 
REMARK    6  A    between atoms: C16_19  and  N2_20 
ROOT
HETATM    1  C1  UNL     1      26.670   3.901  49.546  1.00  0.00     0.037 C 
HETATM    2  C2  UNL     1      26.416   3.096  50.420  1.00  0.00     0.008 C 
HETATM    3  N1  UNL     1      26.121   2.187  51.444  1.00  0.00    -0.264 N 
HETATM    4  C3  UNL     1      24.974   1.481  51.561  1.00  0.00     0.121 A 
HETATM    5  C4  UNL     1      25.123   0.720  52.712  1.00  0.00    -0.002 A 
HETATM    6  C15 UNL     1      26.343   0.958  53.291  1.00  0.00     0.068 A 
HETATM    7  C16 UNL     1      27.020   0.499  54.421  1.00  0.00     0.137 A 
HETATM    8  N3  UNL     1      28.255   0.988  54.667  1.00  0.00    -0.224 NA
HETATM    9  C17 UNL     1      28.816   1.890  53.847  1.00  0.00     0.237 A 
HETATM   10  N4  UNL     1      28.173   2.349  52.744  1.00  0.00    -0.222 NA
HETATM   11  C18 UNL     1      26.957   1.886  52.474  1.00  0.00     0.157 A 
ENDROOT
BRANCH   5  12
HETATM   12  C5  UNL     1      24.122  -0.194  53.227  1.00  0.00     0.014 C 
HETATM   13  C6  UNL     1      23.049   0.035  53.958  1.00  0.00     0.001 C 
BRANCH  13  14
HETATM   14  C7  UNL     1      22.100  -0.948  54.422  1.00  0.00    -0.001 C 
HETATM   15  C8  UNL     1      20.837  -1.030  54.094  1.00  0.00     0.004 C 
BRANCH  15  16
HETATM   16  C9  UNL     1      19.838  -0.360  53.266  1.00  0.00     0.143 C 
HETATM   17  C10 UNL     1      18.505  -1.065  53.223  1.00  0.00     0.044 C 
BRANCH  16  18
HETATM   18  O1  UNL     1      20.276  -0.150  51.957  1.00  0.00    -0.353 OA
BRANCH  18  19
HETATM   19  C11 UNL     1      20.013   1.133  51.490  1.00  0.00     0.260 C 
HETATM   20  C12 UNL     1      21.386   1.762  51.247  1.00  0.00     0.063 C 
HETATM   21  C13 UNL     1      21.650   1.149  49.856  1.00  0.00     0.031 C 
HETATM   22  C14 UNL     1      20.273   1.391  49.258  1.00  0.00     0.171 C 
HETATM   23  O2  UNL     1      19.372   1.198  50.289  1.00  0.00    -0.361 OA
ENDBRANCH  18  19
ENDBRANCH  16  18
ENDBRANCH  15  16
ENDBRANCH  13  14
ENDBRANCH   5  12
BRANCH   7  24
HETATM   24  N2  UNL     1      26.395  -0.458  55.268  1.00  0.00    -0.383 N 
HETATM   25  H18 UNL     1      26.137  -0.358  56.294  1.00  0.00     0.157 HD
HETATM   26  H19 UNL     1      26.230  -1.307  54.685  1.00  0.00     0.157 HD
ENDBRANCH   7  24
TORSDOF 6
ENDMDL
MODEL 2
REMARK VINA RESULT:      -7.4      2.695      5.779
REMARK  6 active torsions:
REMARK  status: ('A' for Active; 'I' for Inactive)
REMARK    1  A    between atoms: C4_5  and  C5_6 
REMARK    2  A    between atoms: C6_7  and  C7_8 
REMARK    3  A    between atoms: C8_9  and  C9_10 
REMARK    4  A    between atoms: C9_10  and  O1_12 
REMARK    5  A    between atoms: O1_12  and  C11_13 
REMARK    6  A    between atoms: C16_19  and  N2_20 
ROOT
HETATM    1  C1  UNL     1      22.615  -0.952  53.458  1.00  0.00     0.037 C 
HETATM    2  C2  UNL     1      23.589  -0.262  53.231  1.00  0.00     0.008 C 
HETATM    3  N1  UNL     1      24.725   0.513  52.960  1.00  0.00    -0.264 N 
HETATM    4  C3  UNL     1      24.859   1.377  51.930  1.00  0.00     0.121 A 
HETATM    5  C4  UNL     1      26.133   1.911  52.058  1.00  0.00    -0.002 A 
HETATM    6  C15 UNL     1      26.770   1.381  53.151  1.00  0.00     0.068 A 
HETATM    7  C16 UNL     1      28.018   1.535  53.753  1.00  0.00     0.137 A 
HETATM    8  N3  UNL     1      28.285   0.810  54.861  1.00  0.00    -0.224 NA
HETATM    9  C17 UNL     1      27.375  -0.036  55.369  1.00  0.00     0.237 A 
HETATM   10  N4  UNL     1      26.155  -0.199  54.797  1.00  0.00    -0.222 NA
HETATM   11  C18 UNL     1      25.863   0.501  53.707  1.00  0.00     0.157 A 
ENDROOT
BRANCH   5  12
HETATM   12  C5  UNL     1      26.707   2.892  51.156  1.00  0.00     0.014 C 
HETATM   13  C6  UNL     1      26.385   3.205  49.917  1.00  0.00     0.001 C 
BRANCH  13  14
HETATM   14  C7  UNL     1      27.016   4.208  49.094  1.00  0.00    -0.001 C 
HETATM   15  C8  UNL     1      26.658   5.460  48.976  1.00  0.00     0.004 C 
BRANCH  15  16
HETATM   16  C9  UNL     1      25.656   6.401  49.470  1.00  0.00     0.143 C 
HETATM   17  C10 UNL     1      26.230   7.709  49.954  1.00  0.00     0.044 C 
BRANCH  16  18
HETATM   18  O1  UNL     1      24.860   5.859  50.481  1.00  0.00    -0.353 OA
BRANCH  18  19
HETATM   19  C11 UNL     1      23.508   6.142  50.324  1.00  0.00     0.260 C 
HETATM   20  C12 UNL     1      23.012   5.158  49.262  1.00  0.00     0.063 C 
HETATM   21  C13 UNL     1      22.803   3.943  50.189  1.00  0.00     0.031 C 
HETATM   22  C14 UNL     1      22.118   4.671  51.335  1.00  0.00     0.171 C 
HETATM   23  O2  UNL     1      22.731   5.908  51.419  1.00  0.00    -0.361 OA
ENDBRANCH  18  19
ENDBRANCH  16  18
ENDBRANCH  15  16
ENDBRANCH  13  14
ENDBRANCH   5  12
BRANCH   7  24
HETATM   24  N2  UNL     1      28.959   2.440  53.189  1.00  0.00    -0.383 N 
HETATM   25  H18 UNL     1      29.982   2.267  52.961  1.00  0.00     0.157 HD
HETATM   26  H19 UNL     1      28.450   3.337  53.032  1.00  0.00     0.157 HD
ENDBRANCH   7  24
TORSDOF 6
ENDMDL
MODEL 3
REMARK VINA RESULT:      -7.1      3.008      6.047
REMARK  6 active torsions:
REMARK  status: ('A' for Active; 'I' for Inactive)
REMARK    1  A    between atoms: C4_5  and  C5_6 
REMARK    2  A    between atoms: C6_7  and  C7_8 
REMARK    3  A    between atoms: C8_9  and  C9_10 
REMARK    4  A    between atoms: C9_10  and  O1_12 
REMARK    5  A    between atoms: O1_12  and  C11_13 
REMARK    6  A    between atoms: C16_19  and  N2_20 
ROOT
HETATM    1  C1  UNL     1      19.486  -0.161  52.922  1.00  0.00     0.037 C 
HETATM    2  C2  UNL     1      20.689   0.001  52.956  1.00  0.00     0.008 C 
HETATM    3  N1  UNL     1      22.081   0.166  52.987  1.00  0.00    -0.264 N 
HETATM    4  C3  UNL     1      22.806   0.891  52.108  1.00  0.00     0.121 A 
HETATM    5  C4  UNL     1      24.124   0.769  52.524  1.00  0.00    -0.002 A 
HETATM    6  C15 UNL     1      24.203  -0.020  53.643  1.00  0.00     0.068 A 
HETATM    7  C16 UNL     1      25.227  -0.478  54.473  1.00  0.00     0.137 A 
HETATM    8  N3  UNL     1      24.895  -1.268  55.516  1.00  0.00    -0.224 NA
HETATM    9  C17 UNL     1      23.617  -1.605  55.749  1.00  0.00     0.237 A 
HETATM   10  N4  UNL     1      22.608  -1.170  54.953  1.00  0.00    -0.222 NA
HETATM   11  C18 UNL     1      22.903  -0.390  53.919  1.00  0.00     0.157 A 
ENDROOT
BRANCH   5  12
HETATM   12  C5  UNL     1      25.255   1.391  51.863  1.00  0.00     0.014 C 
HETATM   13  C6  UNL     1      25.295   2.274  50.885  1.00  0.00     0.001 C 
BRANCH  13  14
HETATM   14  C7  UNL     1      26.479   2.844  50.290  1.00  0.00    -0.001 C 
HETATM   15  C8  UNL     1      26.566   3.990  49.668  1.00  0.00     0.004 C 
BRANCH  15  16
HETATM   16  C9  UNL     1      25.741   5.130  49.277  1.00  0.00     0.143 C 
HETATM   17  C10 UNL     1      26.509   6.238  48.600  1.00  0.00     0.044 C 
BRANCH  16  18
HETATM   18  O1  UNL     1      25.026   5.670  50.348  1.00  0.00    -0.353 OA
BRANCH  18  19
HETATM   19  C11 UNL     1      23.822   6.251  49.965  1.00  0.00     0.260 C 
HETATM   20  C12 UNL     1      23.005   5.114  49.348  1.00  0.00     0.063 C 
HETATM   21  C13 UNL     1      22.467   4.510  50.661  1.00  0.00     0.031 C 
HETATM   22  C14 UNL     1      22.087   5.812  51.348  1.00  0.00     0.171 C 
HETATM   23  O2  UNL     1      23.055   6.730  50.984  1.00  0.00    -0.361 OA
ENDBRANCH  18  19
ENDBRANCH  16  18
ENDBRANCH  15  16
ENDBRANCH  13  14
ENDBRANCH   5  12
BRANCH   7  24
HETATM   24  N2  UNL     1      26.570  -0.100  54.197  1.00  0.00    -0.383 N 
HETATM   25  H18 UNL     1      27.385  -0.725  53.922  1.00  0.00     0.157 HD
HETATM   26  H19 UNL     1      26.618   0.934  54.317  1.00  0.00     0.157 HD
ENDBRANCH   7  24
TORSDOF 6
ENDMDL
MODEL 4
REMARK VINA RESULT:      -7.0      4.014      6.434
REMARK  6 active torsions:
REMARK  status: ('A' for Active; 'I' for Inactive)
REMARK    1  A    between atoms: C4_5  and  C5_6 
REMARK    2  A    between atoms: C6_7  and  C7_8 
REMARK    3  A    between atoms: C8_9  and  C9_10 
REMARK    4  A    between atoms: C9_10  and  O1_12 
REMARK    5  A    between atoms: O1_12  and  C11_13 
REMARK    6  A    between atoms: C16_19  and  N2_20 
ROOT
HETATM    1  C1  UNL     1      28.771   5.735  47.980  1.00  0.00     0.037 C 
HETATM    2  C2  UNL     1      27.778   5.492  48.637  1.00  0.00     0.008 C 
HETATM    3  N1  UNL     1      26.620   5.217  49.376  1.00  0.00    -0.264 N 
HETATM    4  C3  UNL     1      26.201   3.989  49.752  1.00  0.00     0.121 A 
HETATM    5  C4  UNL     1      25.022   4.198  50.455  1.00  0.00    -0.002 A 
HETATM    6  C15 UNL     1      24.725   5.535  50.508  1.00  0.00     0.068 A 
HETATM    7  C16 UNL     1      23.705   6.312  51.058  1.00  0.00     0.137 A 
HETATM    8  N3  UNL     1      23.764   7.651  50.893  1.00  0.00    -0.224 NA
HETATM    9  C17 UNL     1      24.775   8.220  50.218  1.00  0.00     0.237 A 
HETATM   10  N4  UNL     1      25.775   7.481  49.675  1.00  0.00    -0.222 NA
HETATM   11  C18 UNL     1      25.746   6.161  49.822  1.00  0.00     0.157 A 
ENDROOT
BRANCH   5  12
HETATM   12  C5  UNL     1      24.221   3.143  51.046  1.00  0.00     0.014 C 
HETATM   13  C6  UNL     1      24.582   2.079  51.735  1.00  0.00     0.001 C 
BRANCH  13  14
HETATM   14  C7  UNL     1      23.704   1.079  52.293  1.00  0.00    -0.001 C 
HETATM   15  C8  UNL     1      24.049   0.075  53.055  1.00  0.00     0.004 C 
BRANCH  15  16
HETATM   16  C9  UNL     1      25.230  -0.524  53.671  1.00  0.00     0.143 C 
HETATM   17  C10 UNL     1      25.043  -0.897  55.120  1.00  0.00     0.044 C 
BRANCH  16  18
HETATM   18  O1  UNL     1      26.364   0.282  53.558  1.00  0.00    -0.353 OA
BRANCH  18  19
HETATM   19  C11 UNL     1      27.354  -0.033  54.482  1.00  0.00     0.260 C 
HETATM   20  C12 UNL     1      28.454  -0.723  53.674  1.00  0.00     0.063 C 
HETATM   21  C13 UNL     1      29.147   0.549  53.142  1.00  0.00     0.031 C 
HETATM   22  C14 UNL     1      29.150   1.342  54.439  1.00  0.00     0.171 C 
HETATM   23  O2  UNL     1      27.960   1.034  55.075  1.00  0.00    -0.361 OA
ENDBRANCH  18  19
ENDBRANCH  16  18
ENDBRANCH  15  16
ENDBRANCH  13  14
ENDBRANCH   5  12
BRANCH   7  24
HETATM   24  N2  UNL     1      22.650   5.676  51.769  1.00  0.00    -0.383 N 
HETATM   25  H18 UNL     1      22.703   4.821  52.397  1.00  0.00     0.157 HD
HETATM   26  H19 UNL     1      21.783   6.215  51.557  1.00  0.00     0.157 HD
ENDBRANCH   7  24
TORSDOF 6
ENDMDL
MODEL 5
REMARK VINA RESULT:      -6.9      2.051      4.789
REMARK  6 active torsions:
REMARK  status: ('A' for Active; 'I' for Inactive)
REMARK    1  A    between atoms: C4_5  and  C5_6 
REMARK    2  A    between atoms: C6_7  and  C7_8 
REMARK    3  A    between atoms: C8_9  and  C9_10 
REMARK    4  A    between atoms: C9_10  and  O1_12 
REMARK    5  A    between atoms: O1_12  and  C11_13 
REMARK    6  A    between atoms: C16_19  and  N2_20 
ROOT
HETATM    1  C1  UNL     1      22.094  -1.610  54.503  1.00  0.00     0.037 C 
HETATM    2  C2  UNL     1      22.855  -0.766  54.073  1.00  0.00     0.008 C 
HETATM    3  N1  UNL     1      23.744   0.190  53.565  1.00  0.00    -0.264 N 
HETATM    4  C3  UNL     1      23.444   1.128  52.638  1.00  0.00     0.121 A 
HETATM    5  C4  UNL     1      24.616   1.843  52.442  1.00  0.00    -0.002 A 
HETATM    6  C15 UNL     1      25.619   1.350  53.237  1.00  0.00     0.068 A 
HETATM    7  C16 UNL     1      26.962   1.657  53.457  1.00  0.00     0.137 A 
HETATM    8  N3  UNL     1      27.646   0.914  54.354  1.00  0.00    -0.224 NA
HETATM    9  C17 UNL     1      27.052  -0.092  55.015  1.00  0.00     0.237 A 
HETATM   10  N4  UNL     1      25.747  -0.405  54.813  1.00  0.00    -0.222 NA
HETATM   11  C18 UNL     1      25.047   0.308  53.938  1.00  0.00     0.157 A 
ENDROOT
BRANCH   5  12
HETATM   12  C5  UNL     1      24.755   2.955  51.520  1.00  0.00     0.014 C 
HETATM   13  C6  UNL     1      25.003   2.967  50.226  1.00  0.00     0.001 C 
BRANCH  13  14
HETATM   14  C7  UNL     1      25.119   4.133  49.384  1.00  0.00    -0.001 C 
HETATM   15  C8  UNL     1      24.138   4.861  48.920  1.00  0.00     0.004 C 
BRANCH  15  16
HETATM   16  C9  UNL     1      22.680   4.944  48.946  1.00  0.00     0.143 C 
HETATM   17  C10 UNL     1      22.147   6.141  49.691  1.00  0.00     0.044 C 
BRANCH  16  18
HETATM   18  O1  UNL     1      22.084   3.792  49.464  1.00  0.00    -0.353 OA
BRANCH  18  19
HETATM   19  C11 UNL     1      21.272   3.135  48.547  1.00  0.00     0.260 C 
HETATM   20  C12 UNL     1      22.009   1.837  48.213  1.00  0.00     0.063 C 
HETATM   21  C13 UNL     1      21.546   1.017  49.434  1.00  0.00     0.031 C 
HETATM   22  C14 UNL     1      20.080   1.418  49.410  1.00  0.00     0.171 C 
HETATM   23  O2  UNL     1      20.055   2.744  49.019  1.00  0.00    -0.361 OA
ENDBRANCH  18  19
ENDBRANCH  16  18
ENDBRANCH  15  16
ENDBRANCH  13  14
ENDBRANCH   5  12
BRANCH   7  24
HETATM   24  N2  UNL     1      27.560   2.731  52.741  1.00  0.00    -0.383 N 
HETATM   25  H18 UNL     1      27.544   2.910  51.694  1.00  0.00     0.157 HD
HETATM   26  H19 UNL     1      28.034   3.332  53.448  1.00  0.00     0.157 HD
ENDBRANCH   7  24
TORSDOF 6
ENDMDL
MODEL 6
REMARK VINA RESULT:      -6.8      3.134      5.443
REMARK  6 active torsions:
REMARK  status: ('A' for Active; 'I' for Inactive)
REMARK    1  A    between atoms: C4_5  and  C5_6 
REMARK    2  A    between atoms: C6_7  and  C7_8 
REMARK    3  A    between atoms: C8_9  and  C9_10 
REMARK    4  A    between atoms: C9_10  and  O1_12 
REMARK    5  A    between atoms: O1_12  and  C11_13 
REMARK    6  A    between atoms: C16_19  and  N2_20 
ROOT
HETATM    1  C1  UNL     1      26.656   7.843  47.851  1.00  0.00     0.037 C 
HETATM    2  C2  UNL     1      26.255   6.907  48.513  1.00  0.00     0.008 C 
HETATM    3  N1  UNL     1      25.775   5.823  49.261  1.00  0.00    -0.264 N 
HETATM    4  C3  UNL     1      26.357   4.606  49.343  1.00  0.00     0.121 A 
HETATM    5  C4  UNL     1      25.542   3.861  50.183  1.00  0.00    -0.002 A 
HETATM    6  C15 UNL     1      24.476   4.612  50.609  1.00  0.00     0.068 A 
HETATM    7  C16 UNL     1      23.372   4.403  51.436  1.00  0.00     0.137 A 
HETATM    8  N3  UNL     1      22.511   5.426  51.619  1.00  0.00    -0.224 NA
HETATM    9  C17 UNL     1      22.709   6.612  51.023  1.00  0.00     0.237 A 
HETATM   10  N4  UNL     1      23.777   6.834  50.215  1.00  0.00    -0.222 NA
HETATM   11  C18 UNL     1      24.644   5.847  50.016  1.00  0.00     0.157 A 
ENDROOT
BRANCH   5  12
HETATM   12  C5  UNL     1      25.787   2.480  50.553  1.00  0.00     0.014 C 
HETATM   13  C6  UNL     1      26.628   1.965  51.428  1.00  0.00     0.001 C 
BRANCH  13  14
HETATM   14  C7  UNL     1      26.798   0.566  51.734  1.00  0.00    -0.001 C 
HETATM   15  C8  UNL     1      26.261  -0.086  52.731  1.00  0.00     0.004 C 
BRANCH  15  16
HETATM   16  C9  UNL     1      25.376   0.124  53.874  1.00  0.00     0.143 C 
HETATM   17  C10 UNL     1      26.078   0.086  55.208  1.00  0.00     0.044 C 
BRANCH  16  18
HETATM   18  O1  UNL     1      24.310  -0.778  53.904  1.00  0.00    -0.353 OA
BRANCH  18  19
HETATM   19  C11 UNL     1      23.226  -0.369  53.136  1.00  0.00     0.260 C 
HETATM   20  C12 UNL     1      22.229  -1.528  53.197  1.00  0.00     0.063 C 
HETATM   21  C13 UNL     1      21.589  -1.179  54.556  1.00  0.00     0.031 C 
HETATM   22  C14 UNL     1      21.433   0.317  54.334  1.00  0.00     0.171 C 
HETATM   23  O2  UNL     1      22.546   0.712  53.613  1.00  0.00    -0.361 OA
ENDBRANCH  18  19
ENDBRANCH  16  18
ENDBRANCH  15  16
ENDBRANCH  13  14
ENDBRANCH   5  12
BRANCH   7  24
HETATM   24  N2  UNL     1      23.193   3.134  52.052  1.00  0.00    -0.383 N 
HETATM   25  H18 UNL     1      22.711   2.274  51.657  1.00  0.00     0.157 HD
HETATM   26  H19 UNL     1      23.633   3.197  52.996  1.00  0.00     0.157 HD
ENDBRANCH   7  24
TORSDOF 6
ENDMDL
MODEL 7
REMARK VINA RESULT:      -6.7      4.277      7.040
REMARK  6 active torsions:
REMARK  status: ('A' for Active; 'I' for Inactive)
REMARK    1  A    between atoms: C4_5  and  C5_6 
REMARK    2  A    between atoms: C6_7  and  C7_8 
REMARK    3  A    between atoms: C8_9  and  C9_10 
REMARK    4  A    between atoms: C9_10  and  O1_12 
REMARK    5  A    between atoms: O1_12  and  C11_13 
REMARK    6  A    between atoms: C16_19  and  N2_20 
ROOT
HETATM    1  C1  UNL     1      30.669   5.650  47.857  1.00  0.00     0.037 C 
HETATM    2  C2  UNL     1      29.478   5.697  48.093  1.00  0.00     0.008 C 
HETATM    3  N1  UNL     1      28.100   5.749  48.342  1.00  0.00    -0.264 N 
HETATM    4  C3  UNL     1      27.365   4.764  48.905  1.00  0.00     0.121 A 
HETATM    5  C4  UNL     1      26.066   5.250  48.952  1.00  0.00    -0.002 A 
HETATM    6  C15 UNL     1      26.008   6.515  48.426  1.00  0.00     0.068 A 
HETATM    7  C16 UNL     1      25.008   7.466  48.217  1.00  0.00     0.137 A 
HETATM    8  N3  UNL     1      25.355   8.641  47.649  1.00  0.00    -0.224 NA
HETATM    9  C17 UNL     1      26.626   8.889  47.295  1.00  0.00     0.237 A 
HETATM   10  N4  UNL     1      27.611   7.977  47.490  1.00  0.00    -0.222 NA
HETATM   11  C18 UNL     1      27.302   6.811  48.048  1.00  0.00     0.157 A 
ENDROOT
BRANCH   5  12
HETATM   12  C5  UNL     1      24.934   4.517  49.483  1.00  0.00     0.014 C 
HETATM   13  C6  UNL     1      24.681   3.223  49.493  1.00  0.00     0.001 C 
BRANCH  13  14
HETATM   14  C7  UNL     1      23.519   2.579  50.055  1.00  0.00    -0.001 C 
HETATM   15  C8  UNL     1      23.416   2.056  51.248  1.00  0.00     0.004 C 
BRANCH  15  16
HETATM   16  C9  UNL     1      24.202   1.842  52.460  1.00  0.00     0.143 C 
HETATM   17  C10 UNL     1      24.489   3.104  53.235  1.00  0.00     0.044 C 
BRANCH  16  18
HETATM   18  O1  UNL     1      25.409   1.186  52.212  1.00  0.00    -0.353 OA
BRANCH  18  19
HETATM   19  C11 UNL     1      26.021   0.708  53.365  1.00  0.00     0.260 C 
HETATM   20  C12 UNL     1      25.568  -0.748  53.488  1.00  0.00     0.063 C 
HETATM   21  C13 UNL     1      26.590  -1.365  52.512  1.00  0.00     0.031 C 
HETATM   22  C14 UNL     1      27.820  -0.612  52.996  1.00  0.00     0.171 C 
HETATM   23  O2  UNL     1      27.382   0.658  53.327  1.00  0.00    -0.361 OA
ENDBRANCH  18  19
ENDBRANCH  16  18
ENDBRANCH  15  16
ENDBRANCH  13  14
ENDBRANCH   5  12
BRANCH   7  24
HETATM   24  N2  UNL     1      23.672   7.170  48.604  1.00  0.00    -0.383 N 
HETATM   25  H18 UNL     1      23.169   6.235  48.568  1.00  0.00     0.157 HD
HETATM   26  H19 UNL     1      23.256   8.065  48.943  1.00  0.00     0.157 HD
ENDBRANCH   7  24
TORSDOF 6
ENDMDL
MODEL 8
REMARK VINA RESULT:      -6.7      3.401      6.062
REMARK  6 active torsions:
REMARK  status: ('A' for Active; 'I' for Inactive)
REMARK    1  A    between atoms: C4_5  and  C5_6 
REMARK    2  A    between atoms: C6_7  and  C7_8 
REMARK    3  A    between atoms: C8_9  and  C9_10 
REMARK    4  A    between atoms: C9_10  and  O1_12 
REMARK    5  A    between atoms: O1_12  and  C11_13 
REMARK    6  A    between atoms: C16_19  and  N2_20 
ROOT
HETATM    1  C1  UNL     1      21.540   6.930  48.578  1.00  0.00     0.037 C 
HETATM    2  C2  UNL     1      22.655   6.476  48.744  1.00  0.00     0.008 C 
HETATM    3  N1  UNL     1      23.946   5.971  48.951  1.00  0.00    -0.264 N 
HETATM    4  C3  UNL     1      24.253   4.875  49.679  1.00  0.00     0.121 A 
HETATM    5  C4  UNL     1      25.634   4.758  49.608  1.00  0.00    -0.002 A 
HETATM    6  C15 UNL     1      26.164   5.769  48.847  1.00  0.00     0.068 A 
HETATM    7  C16 UNL     1      27.443   6.150  48.442  1.00  0.00     0.137 A 
HETATM    8  N3  UNL     1      27.564   7.248  47.666  1.00  0.00    -0.224 NA
HETATM    9  C17 UNL     1      26.485   7.954  47.294  1.00  0.00     0.237 A 
HETATM   10  N4  UNL     1      25.233   7.600  47.679  1.00  0.00    -0.222 NA
HETATM   11  C18 UNL     1      25.081   6.523  48.442  1.00  0.00     0.157 A 
ENDROOT
BRANCH   5  12
HETATM   12  C5  UNL     1      26.403   3.711  50.253  1.00  0.00     0.014 C 
HETATM   13  C6  UNL     1      26.012   2.586  50.817  1.00  0.00     0.001 C 
BRANCH  13  14
HETATM   14  C7  UNL     1      26.860   1.594  51.433  1.00  0.00    -0.001 C 
HETATM   15  C8  UNL     1      26.552   0.822  52.442  1.00  0.00     0.004 C 
BRANCH  15  16
HETATM   16  C9  UNL     1      25.445   0.538  53.352  1.00  0.00     0.143 C 
HETATM   17  C10 UNL     1      25.846  -0.247  54.576  1.00  0.00     0.044 C 
BRANCH  16  18
HETATM   18  O1  UNL     1      24.386  -0.121  52.725  1.00  0.00    -0.353 OA
BRANCH  18  19
HETATM   19  C11 UNL     1      23.140   0.272  53.198  1.00  0.00     0.260 C 
HETATM   20  C12 UNL     1      22.982   1.729  52.757  1.00  0.00     0.063 C 
HETATM   21  C13 UNL     1      22.513   1.457  51.313  1.00  0.00     0.031 C 
HETATM   22  C14 UNL     1      21.519   0.349  51.622  1.00  0.00     0.171 C 
HETATM   23  O2  UNL     1      22.075  -0.383  52.655  1.00  0.00    -0.361 OA
ENDBRANCH  18  19
ENDBRANCH  16  18
ENDBRANCH  15  16
ENDBRANCH  13  14
ENDBRANCH   5  12
BRANCH   7  24
HETATM   24  N2  UNL     1      28.564   5.378  48.854  1.00  0.00    -0.383 N 
HETATM   25  H18 UNL     1      28.897   4.445  48.467  1.00  0.00     0.157 HD
HETATM   26  H19 UNL     1      29.019   5.906  49.629  1.00  0.00     0.157 HD
ENDBRANCH   7  24
TORSDOF 6
ENDMDL
MODEL 9
REMARK VINA RESULT:      -6.6      1.394      1.655
REMARK  6 active torsions:
REMARK  status: ('A' for Active; 'I' for Inactive)
REMARK    1  A    between atoms: C4_5  and  C5_6 
REMARK    2  A    between atoms: C6_7  and  C7_8 
REMARK    3  A    between atoms: C8_9  and  C9_10 
REMARK    4  A    between atoms: C9_10  and  O1_12 
REMARK    5  A    between atoms: O1_12  and  C11_13 
REMARK    6  A    between atoms: C16_19  and  N2_20 
ROOT
HETATM    1  C1  UNL     1      24.999   4.691  50.233  1.00  0.00     0.037 C 
HETATM    2  C2  UNL     1      24.878   3.747  50.988  1.00  0.00     0.008 C 
HETATM    3  N1  UNL     1      24.743   2.673  51.879  1.00  0.00    -0.264 N 
HETATM    4  C3  UNL     1      23.576   2.107  52.255  1.00  0.00     0.121 A 
HETATM    5  C4  UNL     1      23.923   1.093  53.137  1.00  0.00    -0.002 A 
HETATM    6  C15 UNL     1      25.284   1.041  53.298  1.00  0.00     0.068 A 
HETATM    7  C16 UNL     1      26.174   0.259  54.033  1.00  0.00     0.137 A 
HETATM    8  N3  UNL     1      27.494   0.524  53.924  1.00  0.00    -0.224 NA
HETATM    9  C17 UNL     1      27.938   1.511  53.131  1.00  0.00     0.237 A 
HETATM   10  N4  UNL     1      27.087   2.283  52.409  1.00  0.00    -0.222 NA
HETATM   11  C18 UNL     1      25.782   2.046  52.494  1.00  0.00     0.157 A 
ENDROOT
BRANCH   5  12
HETATM   12  C5  UNL     1      22.973   0.217  53.796  1.00  0.00     0.014 C 
HETATM   13  C6  UNL     1      22.275  -0.797  53.324  1.00  0.00     0.001 C 
BRANCH  13  14
HETATM   14  C7  UNL     1      21.351  -1.621  54.064  1.00  0.00    -0.001 C 
HETATM   15  C8  UNL     1      20.046  -1.592  53.989  1.00  0.00     0.004 C 
BRANCH  15  16
HETATM   16  C9  UNL     1      18.969  -0.894  53.293  1.00  0.00     0.143 C 
HETATM   17  C10 UNL     1      17.673  -1.663  53.243  1.00  0.00     0.044 C 
BRANCH  16  18
HETATM   18  O1  UNL     1      19.319  -0.521  51.994  1.00  0.00    -0.353 OA
BRANCH  18  19
HETATM   19  C11 UNL     1      19.392   0.857  51.821  1.00  0.00     0.260 C 
HETATM   20  C12 UNL     1      19.527   1.066  50.312  1.00  0.00     0.063 C 
HETATM   21  C13 UNL     1      18.031   0.951  49.953  1.00  0.00     0.031 C 
HETATM   22  C14 UNL     1      17.480   1.812  51.079  1.00  0.00     0.171 C 
HETATM   23  O2  UNL     1      18.276   1.551  52.180  1.00  0.00    -0.361 OA
ENDBRANCH  18  19
ENDBRANCH  16  18
ENDBRANCH  15  16
ENDBRANCH  13  14
ENDBRANCH   5  12
BRANCH   7  24
HETATM   24  N2  UNL     1      25.670  -0.780  54.863  1.00  0.00    -0.383 N 
HETATM   25  H18 UNL     1      24.656  -1.039  55.047  1.00  0.00     0.157 HD
HETATM   26  H19 UNL     1      26.499  -1.261  55.275  1.00  0.00     0.157 HD
ENDBRANCH   7  24
TORSDOF 6
ENDMDL
