MODEL 1
REMARK VINA RESULT:      -8.8      0.000      0.000
REMARK  3 active torsions:
REMARK  status: ('A' for Active; 'I' for Inactive)
REMARK       I    between atoms: N1_1  and  C1_2 
REMARK    1  A    between atoms: N2_4  and  C2_5 
REMARK    2  A    between atoms: C6_12  and  N5_13 
REMARK    3  A    between atoms: N5_13  and  C7_14 
ROOT
HETATM    1  C2  UNL     1      21.058   1.009  52.752  1.00  0.00     0.058 A 
HETATM    2  C3  UNL     1      20.245   0.069  53.147  1.00  0.00     0.167 A 
HETATM    3  O2  UNL     1      20.521  -1.179  53.761  1.00  0.00    -0.329 OA
HETATM    4  C4  UNL     1      21.840  -1.538  53.981  1.00  0.00     0.288 A 
HETATM    5  N3  UNL     1      22.239  -1.863  55.380  1.00  0.00    -0.246 NA
HETATM    6  C5  UNL     1      23.503  -1.501  55.629  1.00  0.00     0.232 C 
HETATM    7  N4  UNL     1      24.619  -0.852  54.948  1.00  0.00    -0.224 NA
HETATM    8  C6  UNL     1      24.272  -0.468  53.669  1.00  0.00     0.140 C 
HETATM    9  C13 UNL     1      22.780  -0.482  53.555  1.00  0.00     0.040 A 
HETATM   10  C14 UNL     1      22.411   0.664  52.999  1.00  0.00     0.047 A 
ENDROOT
BRANCH   8  11
HETATM   11  N5  UNL     1      25.129   0.178  52.695  1.00  0.00    -0.340 N 
HETATM   12  H7  UNL     1      24.607   0.769  52.003  1.00  0.00     0.167 HD
BRANCH  11  13
HETATM   13  C7  UNL     1      26.501  -0.143  52.943  1.00  0.00     0.035 A 
HETATM   14  C8  UNL     1      27.028  -1.387  52.684  1.00  0.00     0.032 A 
HETATM   15  C9  UNL     1      28.331  -1.433  53.003  1.00  0.00     0.046 A 
HETATM   16  C10 UNL     1      29.195  -0.509  53.518  1.00  0.00     0.138 A 
HETATM   17  F1  UNL     1      30.500  -0.648  53.793  1.00  0.00    -0.204 F 
HETATM   18  C11 UNL     1      28.550   0.717  53.741  1.00  0.00     0.074 A 
HETATM   19 CL1  UNL     1      29.473   2.083  54.407  1.00  0.00    -0.081 Cl
HETATM   20  C12 UNL     1      27.198   0.963  53.472  1.00  0.00     0.056 A 
ENDBRANCH  11  13
ENDBRANCH   8  11
BRANCH   1  21
HETATM   21  N2  UNL     1      20.109   1.866  52.283  1.00  0.00    -0.319 N 
HETATM   22  C1  UNL     1      19.178   2.713  51.823  1.00  0.00     0.249 C 
HETATM   23  N1  UNL     1      17.929   2.598  51.100  1.00  0.00    -0.363 N 
HETATM   24  O1  UNL     1      19.804   3.772  52.277  1.00  0.00    -0.152 OA
HETATM   25  H1  UNL     1      17.512   2.720  52.015  1.00  0.00     0.159 HD
HETATM   26  H2  UNL     1      17.864   2.445  50.042  1.00  0.00     0.159 HD
HETATM   27  H3  UNL     1      19.622   0.942  51.948  1.00  0.00     0.169 HD
ENDBRANCH   1  21
TORSDOF 3
ENDMDL
MODEL 2
REMARK VINA RESULT:      -8.5      2.381      4.005
REMARK  3 active torsions:
REMARK  status: ('A' for Active; 'I' for Inactive)
REMARK       I    between atoms: N1_1  and  C1_2 
REMARK    1  A    between atoms: N2_4  and  C2_5 
REMARK    2  A    between atoms: C6_12  and  N5_13 
REMARK    3  A    between atoms: N5_13  and  C7_14 
ROOT
HETATM    1  C2  UNL     1      22.435   0.614  53.273  1.00  0.00     0.058 A 
HETATM    2  C3  UNL     1      21.609   1.267  52.503  1.00  0.00     0.167 A 
HETATM    3  O2  UNL     1      21.832   2.398  51.676  1.00  0.00    -0.329 OA
HETATM    4  C4  UNL     1      23.092   2.972  51.655  1.00  0.00     0.288 A 
HETATM    5  N3  UNL     1      23.771   3.088  50.333  1.00  0.00    -0.246 NA
HETATM    6  C5  UNL     1      25.097   2.954  50.447  1.00  0.00     0.232 C 
HETATM    7  N4  UNL     1      26.095   2.700  51.481  1.00  0.00    -0.224 NA
HETATM    8  C6  UNL     1      25.506   2.514  52.714  1.00  0.00     0.140 C 
HETATM    9  C13 UNL     1      24.048   2.240  52.509  1.00  0.00     0.040 A 
HETATM   10  C14 UNL     1      23.735   1.176  53.236  1.00  0.00     0.047 A 
ENDROOT
BRANCH   8  11
HETATM   11  N5  UNL     1      26.182   2.266  53.971  1.00  0.00    -0.340 N 
HETATM   12  H7  UNL     1      25.742   2.753  54.788  1.00  0.00     0.167 HD
BRANCH  11  13
HETATM   13  C7  UNL     1      27.292   1.383  53.778  1.00  0.00     0.035 A 
HETATM   14  C8  UNL     1      28.596   1.784  53.954  1.00  0.00     0.032 A 
HETATM   15  C9  UNL     1      29.447   0.775  53.711  1.00  0.00     0.046 A 
HETATM   16  C10 UNL     1      29.263  -0.524  53.334  1.00  0.00     0.138 A 
HETATM   17  F1  UNL     1      30.188  -1.472  53.126  1.00  0.00    -0.204 F 
HETATM   18  C11 UNL     1      27.900  -0.820  53.185  1.00  0.00     0.074 A 
HETATM   19 CL1  UNL     1      27.407  -2.458  52.701  1.00  0.00    -0.081 Cl
HETATM   20  C12 UNL     1      26.861   0.097  53.393  1.00  0.00     0.056 A 
ENDBRANCH  11  13
ENDBRANCH   8  11
BRANCH   1  21
HETATM   21  N2  UNL     1      21.544  -0.311  53.728  1.00  0.00    -0.319 N 
HETATM   22  C1  UNL     1      20.671  -1.223  54.179  1.00  0.00     0.249 C 
HETATM   23  N1  UNL     1      19.289  -1.563  53.916  1.00  0.00    -0.363 N 
HETATM   24  O1  UNL     1      21.539  -1.762  55.001  1.00  0.00    -0.152 OA
HETATM   25  H1  UNL     1      19.690  -2.303  53.353  1.00  0.00     0.159 HD
HETATM   26  H2  UNL     1      18.456  -1.024  54.318  1.00  0.00     0.159 HD
HETATM   27  H3  UNL     1      20.872   0.167  53.005  1.00  0.00     0.169 HD
ENDBRANCH   1  21
TORSDOF 3
ENDMDL
MODEL 3
REMARK VINA RESULT:      -8.4      4.300      5.885
REMARK  3 active torsions:
REMARK  status: ('A' for Active; 'I' for Inactive)
REMARK       I    between atoms: N1_1  and  C1_2 
REMARK    1  A    between atoms: N2_4  and  C2_5 
REMARK    2  A    between atoms: C6_12  and  N5_13 
REMARK    3  A    between atoms: N5_13  and  C7_14 
ROOT
HETATM    1  C2  UNL     1      24.250  -0.133  53.761  1.00  0.00     0.058 A 
HETATM    2  C3  UNL     1      24.988  -0.787  54.614  1.00  0.00     0.167 A 
HETATM    3  O2  UNL     1      26.398  -0.811  54.773  1.00  0.00    -0.329 OA
HETATM    4  C4  UNL     1      27.181  -0.073  53.903  1.00  0.00     0.288 A 
HETATM    5  N3  UNL     1      28.106   0.933  54.498  1.00  0.00    -0.246 NA
HETATM    6  C5  UNL     1      28.250   2.001  53.704  1.00  0.00     0.232 C 
HETATM    7  N4  UNL     1      27.750   2.501  52.428  1.00  0.00    -0.224 NA
HETATM    8  C6  UNL     1      26.832   1.634  51.872  1.00  0.00     0.140 C 
HETATM    9  C13 UNL     1      26.365   0.689  52.936  1.00  0.00     0.040 A 
HETATM   10  C14 UNL     1      25.042   0.649  52.883  1.00  0.00     0.047 A 
ENDROOT
BRANCH   8  11
HETATM   11  N5  UNL     1      26.148   1.789  50.604  1.00  0.00    -0.340 N 
HETATM   12  H7  UNL     1      26.004   0.886  50.092  1.00  0.00     0.167 HD
BRANCH  11  13
HETATM   13  C7  UNL     1      25.816   3.163  50.378  1.00  0.00     0.035 A 
HETATM   14  C8  UNL     1      24.710   3.757  50.938  1.00  0.00     0.032 A 
HETATM   15  C9  UNL     1      24.619   5.046  50.573  1.00  0.00     0.046 A 
HETATM   16  C10 UNL     1      25.392   5.842  49.777  1.00  0.00     0.138 A 
HETATM   17  F1  UNL     1      25.224   7.138  49.478  1.00  0.00    -0.204 F 
HETATM   18  C11 UNL     1      26.486   5.132  49.261  1.00  0.00     0.074 A 
HETATM   19 CL1  UNL     1      27.643   5.960  48.195  1.00  0.00    -0.081 Cl
HETATM   20  C12 UNL     1      26.754   3.783  49.527  1.00  0.00     0.056 A 
ENDBRANCH  11  13
ENDBRANCH   8  11
BRANCH   1  21
HETATM   21  N2  UNL     1      23.043  -0.588  54.200  1.00  0.00    -0.319 N 
HETATM   22  C1  UNL     1      21.858  -1.038  54.633  1.00  0.00     0.249 C 
HETATM   23  N1  UNL     1      20.467  -0.744  54.361  1.00  0.00    -0.363 N 
HETATM   24  O1  UNL     1      22.399  -1.909  55.450  1.00  0.00    -0.152 OA
HETATM   25  H1  UNL     1      20.514  -1.578  53.788  1.00  0.00     0.159 HD
HETATM   26  H2  UNL     1      19.944   0.097  54.768  1.00  0.00     0.159 HD
HETATM   27  H3  UNL     1      22.650   0.143  53.482  1.00  0.00     0.169 HD
ENDBRANCH   1  21
TORSDOF 3
ENDMDL
MODEL 4
REMARK VINA RESULT:      -8.3      5.479      7.578
REMARK  3 active torsions:
REMARK  status: ('A' for Active; 'I' for Inactive)
REMARK       I    between atoms: N1_1  and  C1_2 
REMARK    1  A    between atoms: N2_4  and  C2_5 
REMARK    2  A    between atoms: C6_12  and  N5_13 
REMARK    3  A    between atoms: N5_13  and  C7_14 
ROOT
HETATM    1  C2  UNL     1      27.169   0.357  52.547  1.00  0.00     0.058 A 
HETATM    2  C3  UNL     1      26.667   0.572  53.731  1.00  0.00     0.167 A 
HETATM    3  O2  UNL     1      25.702   1.521  54.155  1.00  0.00    -0.329 OA
HETATM    4  C4  UNL     1      25.187   2.411  53.228  1.00  0.00     0.288 A 
HETATM    5  N3  UNL     1      23.708   2.435  53.048  1.00  0.00    -0.246 NA
HETATM    6  C5  UNL     1      23.370   2.711  51.783  1.00  0.00     0.232 C 
HETATM    7  N4  UNL     1      24.017   2.973  50.501  1.00  0.00    -0.224 NA
HETATM    8  C6  UNL     1      25.390   2.890  50.604  1.00  0.00     0.140 C 
HETATM    9  C13 UNL     1      25.730   2.176  51.875  1.00  0.00     0.040 A 
HETATM   10  C14 UNL     1      26.627   1.245  51.584  1.00  0.00     0.047 A 
ENDROOT
BRANCH   8  11
HETATM   11  N5  UNL     1      26.355   3.114  49.547  1.00  0.00    -0.340 N 
HETATM   12  H7  UNL     1      26.727   2.230  49.123  1.00  0.00     0.167 HD
BRANCH  11  13
HETATM   13  C7  UNL     1      26.543   4.516  49.328  1.00  0.00     0.035 A 
HETATM   14  C8  UNL     1      25.637   5.459  49.754  1.00  0.00     0.032 A 
HETATM   15  C9  UNL     1      26.041   6.696  49.427  1.00  0.00     0.046 A 
HETATM   16  C10 UNL     1      27.141   7.172  48.773  1.00  0.00     0.138 A 
HETATM   17  F1  UNL     1      27.466   8.444  48.502  1.00  0.00    -0.204 F 
HETATM   18  C11 UNL     1      27.991   6.125  48.385  1.00  0.00     0.074 A 
HETATM   19 CL1  UNL     1      29.498   6.497  47.518  1.00  0.00    -0.081 Cl
HETATM   20  C12 UNL     1      27.745   4.769  48.636  1.00  0.00     0.056 A 
ENDBRANCH  11  13
ENDBRANCH   8  11
BRANCH   1  21
HETATM   21  N2  UNL     1      27.997  -0.666  52.898  1.00  0.00    -0.319 N 
HETATM   22  C1  UNL     1      28.815  -1.669  53.245  1.00  0.00     0.249 C 
HETATM   23  N1  UNL     1      28.740  -3.115  53.274  1.00  0.00    -0.363 N 
HETATM   24  O1  UNL     1      29.794  -0.861  53.574  1.00  0.00    -0.152 OA
HETATM   25  H1  UNL     1      29.268  -3.052  52.411  1.00  0.00     0.159 HD
HETATM   26  H2  UNL     1      28.243  -3.670  54.042  1.00  0.00     0.159 HD
HETATM   27  H3  UNL     1      27.151  -1.290  52.585  1.00  0.00     0.169 HD
ENDBRANCH   1  21
TORSDOF 3
ENDMDL
MODEL 5
REMARK VINA RESULT:      -8.1      1.908      3.112
REMARK  3 active torsions:
REMARK  status: ('A' for Active; 'I' for Inactive)
REMARK       I    between atoms: N1_1  and  C1_2 
REMARK    1  A    between atoms: N2_4  and  C2_5 
REMARK    2  A    between atoms: C6_12  and  N5_13 
REMARK    3  A    between atoms: N5_13  and  C7_14 
ROOT
HETATM    1  C2  UNL     1      20.841   0.393  52.756  1.00  0.00     0.058 A 
HETATM    2  C3  UNL     1      20.383   1.569  52.432  1.00  0.00     0.167 A 
HETATM    3  O2  UNL     1      21.076   2.776  52.159  1.00  0.00    -0.329 OA
HETATM    4  C4  UNL     1      22.457   2.792  52.264  1.00  0.00     0.288 A 
HETATM    5  N3  UNL     1      23.231   3.215  51.063  1.00  0.00    -0.246 NA
HETATM    6  C5  UNL     1      24.399   2.567  50.976  1.00  0.00     0.232 C 
HETATM    7  N4  UNL     1      25.145   1.538  51.694  1.00  0.00    -0.224 NA
HETATM    8  C6  UNL     1      24.434   1.064  52.776  1.00  0.00     0.140 C 
HETATM    9  C13 UNL     1      23.000   1.466  52.617  1.00  0.00     0.040 A 
HETATM   10  C14 UNL     1      22.257   0.391  52.839  1.00  0.00     0.047 A 
ENDROOT
BRANCH   8  11
HETATM   11  N5  UNL     1      24.868   0.062  53.728  1.00  0.00    -0.340 N 
HETATM   12  H7  UNL     1      24.094  -0.308  54.331  1.00  0.00     0.167 HD
BRANCH  11  13
HETATM   13  C7  UNL     1      26.269  -0.192  53.586  1.00  0.00     0.035 A 
HETATM   14  C8  UNL     1      26.757  -1.321  52.969  1.00  0.00     0.032 A 
HETATM   15  C9  UNL     1      28.099  -1.325  52.964  1.00  0.00     0.046 A 
HETATM   16  C10 UNL     1      29.032  -0.450  53.443  1.00  0.00     0.138 A 
HETATM   17  F1  UNL     1      30.368  -0.537  53.378  1.00  0.00    -0.204 F 
HETATM   18  C11 UNL     1      28.422   0.658  54.050  1.00  0.00     0.074 A 
HETATM   19 CL1  UNL     1      29.435   1.942  54.747  1.00  0.00    -0.081 Cl
HETATM   20  C12 UNL     1      27.038   0.845  54.152  1.00  0.00     0.056 A 
ENDBRANCH  11  13
ENDBRANCH   8  11
BRANCH   1  21
HETATM   21  N2  UNL     1      19.637  -0.237  52.852  1.00  0.00    -0.319 N 
HETATM   22  C1  UNL     1      18.451  -0.854  52.941  1.00  0.00     0.249 C 
HETATM   23  N1  UNL     1      17.734  -1.596  53.957  1.00  0.00    -0.363 N 
HETATM   24  O1  UNL     1      18.110  -0.547  51.713  1.00  0.00    -0.152 OA
HETATM   25  H1  UNL     1      17.231  -0.725  54.084  1.00  0.00     0.159 HD
HETATM   26  H2  UNL     1      17.934  -2.618  54.201  1.00  0.00     0.159 HD
HETATM   27  H3  UNL     1      19.969  -0.443  53.877  1.00  0.00     0.169 HD
ENDBRANCH   1  21
TORSDOF 3
ENDMDL
MODEL 6
REMARK VINA RESULT:      -8.0      4.688      6.321
REMARK  3 active torsions:
REMARK  status: ('A' for Active; 'I' for Inactive)
REMARK       I    between atoms: N1_1  and  C1_2 
REMARK    1  A    between atoms: N2_4  and  C2_5 
REMARK    2  A    between atoms: C6_12  and  N5_13 
REMARK    3  A    between atoms: N5_13  and  C7_14 
ROOT
HETATM    1  C2  UNL     1      23.953   0.504  52.942  1.00  0.00     0.058 A 
HETATM    2  C3  UNL     1      22.880  -0.229  52.833  1.00  0.00     0.167 A 
HETATM    3  O2  UNL     1      21.746  -0.068  51.996  1.00  0.00    -0.329 OA
HETATM    4  C4  UNL     1      21.683   1.032  51.159  1.00  0.00     0.288 A 
HETATM    5  N3  UNL     1      21.510   0.776  49.700  1.00  0.00    -0.246 NA
HETATM    6  C5  UNL     1      22.141   1.695  48.960  1.00  0.00     0.232 C 
HETATM    7  N4  UNL     1      22.982   2.874  49.146  1.00  0.00    -0.224 NA
HETATM    8  C6  UNL     1      23.229   3.109  50.483  1.00  0.00     0.140 C 
HETATM    9  C13 UNL     1      22.895   1.870  51.255  1.00  0.00     0.040 A 
HETATM   10  C14 UNL     1      23.912   1.619  52.067  1.00  0.00     0.047 A 
ENDROOT
BRANCH   8  11
HETATM   11  N5  UNL     1      23.999   4.200  51.044  1.00  0.00    -0.340 N 
HETATM   12  H7  UNL     1      23.601   4.580  51.936  1.00  0.00     0.167 HD
BRANCH  11  13
HETATM   13  C7  UNL     1      25.146   4.474  50.232  1.00  0.00     0.035 A 
HETATM   14  C8  UNL     1      26.153   3.557  50.042  1.00  0.00     0.032 A 
HETATM   15  C9  UNL     1      27.112   4.054  49.245  1.00  0.00     0.046 A 
HETATM   16  C10 UNL     1      27.265   5.255  48.614  1.00  0.00     0.138 A 
HETATM   17  F1  UNL     1      28.266   5.658  47.818  1.00  0.00    -0.204 F 
HETATM   18  C11 UNL     1      26.183   6.107  48.879  1.00  0.00     0.074 A 
HETATM   19 CL1  UNL     1      26.154   7.734  48.163  1.00  0.00    -0.081 Cl
HETATM   20  C12 UNL     1      25.088   5.772  49.685  1.00  0.00     0.056 A 
ENDBRANCH  11  13
ENDBRANCH   8  11
BRANCH   1  21
HETATM   21  N2  UNL     1      24.570  -0.242  53.901  1.00  0.00    -0.319 N 
HETATM   22  C1  UNL     1      25.179  -0.976  54.841  1.00  0.00     0.249 C 
HETATM   23  N1  UNL     1      24.869  -1.417  56.185  1.00  0.00    -0.363 N 
HETATM   24  O1  UNL     1      26.236  -1.195  54.096  1.00  0.00    -0.152 OA
HETATM   25  H1  UNL     1      24.636  -2.291  55.728  1.00  0.00     0.159 HD
HETATM   26  H2  UNL     1      24.963  -0.797  57.052  1.00  0.00     0.159 HD
HETATM   27  H3  UNL     1      23.651  -0.043  54.466  1.00  0.00     0.169 HD
ENDBRANCH   1  21
TORSDOF 3
ENDMDL
MODEL 7
REMARK VINA RESULT:      -7.9      3.945      4.982
REMARK  3 active torsions:
REMARK  status: ('A' for Active; 'I' for Inactive)
REMARK       I    between atoms: N1_1  and  C1_2 
REMARK    1  A    between atoms: N2_4  and  C2_5 
REMARK    2  A    between atoms: C6_12  and  N5_13 
REMARK    3  A    between atoms: N5_13  and  C7_14 
ROOT
HETATM    1  C2  UNL     1      24.503   4.840  50.903  1.00  0.00     0.058 A 
HETATM    2  C3  UNL     1      24.319   4.619  49.631  1.00  0.00     0.167 A 
HETATM    3  O2  UNL     1      23.871   3.451  48.962  1.00  0.00    -0.329 OA
HETATM    4  C4  UNL     1      23.595   2.318  49.708  1.00  0.00     0.288 A 
HETATM    5  N3  UNL     1      22.229   1.734  49.588  1.00  0.00    -0.246 NA
HETATM    6  C5  UNL     1      21.824   1.186  50.740  1.00  0.00     0.232 C 
HETATM    7  N4  UNL     1      22.307   1.006  52.105  1.00  0.00    -0.224 NA
HETATM    8  C6  UNL     1      23.542   1.595  52.283  1.00  0.00     0.140 C 
HETATM    9  C13 UNL     1      23.782   2.549  51.154  1.00  0.00     0.040 A 
HETATM   10  C14 UNL     1      24.196   3.694  51.679  1.00  0.00     0.047 A 
ENDROOT
BRANCH   8  11
HETATM   11  N5  UNL     1      24.336   1.597  53.495  1.00  0.00    -0.340 N 
HETATM   12  H7  UNL     1      23.906   2.145  54.278  1.00  0.00     0.167 HD
BRANCH  11  13
HETATM   13  C7  UNL     1      25.521   0.813  53.319  1.00  0.00     0.035 A 
HETATM   14  C8  UNL     1      25.509  -0.417  52.705  1.00  0.00     0.032 A 
HETATM   15  C9  UNL     1      26.742  -0.947  52.665  1.00  0.00     0.046 A 
HETATM   16  C10 UNL     1      27.957  -0.507  53.108  1.00  0.00     0.138 A 
HETATM   17  F1  UNL     1      29.150  -1.111  53.010  1.00  0.00    -0.204 F 
HETATM   18  C11 UNL     1      27.848   0.752  53.716  1.00  0.00     0.074 A 
HETATM   19 CL1  UNL     1      29.303   1.537  54.370  1.00  0.00    -0.081 Cl
HETATM   20  C12 UNL     1      26.651   1.467  53.852  1.00  0.00     0.056 A 
ENDBRANCH  11  13
ENDBRANCH   8  11
BRANCH   1  21
HETATM   21  N2  UNL     1      24.923   6.131  50.790  1.00  0.00    -0.319 N 
HETATM   22  C1  UNL     1      25.330   7.403  50.680  1.00  0.00     0.249 C 
HETATM   23  N1  UNL     1      26.596   8.080  50.489  1.00  0.00    -0.363 N 
HETATM   24  O1  UNL     1      24.118   7.885  50.806  1.00  0.00    -0.152 OA
HETATM   25  H1  UNL     1      26.289   8.150  49.526  1.00  0.00     0.159 HD
HETATM   26  H2  UNL     1      27.306   8.248  51.271  1.00  0.00     0.159 HD
HETATM   27  H3  UNL     1      25.909   5.667  50.668  1.00  0.00     0.169 HD
ENDBRANCH   1  21
TORSDOF 3
ENDMDL
MODEL 8
REMARK VINA RESULT:      -7.8      5.402      7.469
REMARK  3 active torsions:
REMARK  status: ('A' for Active; 'I' for Inactive)
REMARK       I    between atoms: N1_1  and  C1_2 
REMARK    1  A    between atoms: N2_4  and  C2_5 
REMARK    2  A    between atoms: C6_12  and  N5_13 
REMARK    3  A    between atoms: N5_13  and  C7_14 
ROOT
HETATM    1  C2  UNL     1      26.257  -0.051  52.543  1.00  0.00     0.058 A 
HETATM    2  C3  UNL     1      25.280  -0.597  53.212  1.00  0.00     0.167 A 
HETATM    3  O2  UNL     1      23.914  -0.225  53.303  1.00  0.00    -0.329 OA
HETATM    4  C4  UNL     1      23.483   0.903  52.626  1.00  0.00     0.288 A 
HETATM    5  N3  UNL     1      22.366   0.734  51.654  1.00  0.00    -0.246 NA
HETATM    6  C5  UNL     1      22.487   1.568  50.614  1.00  0.00     0.232 C 
HETATM    7  N4  UNL     1      23.406   2.589  50.120  1.00  0.00    -0.224 NA
HETATM    8  C6  UNL     1      24.496   2.729  50.954  1.00  0.00     0.140 C 
HETATM    9  C13 UNL     1      24.570   1.531  51.849  1.00  0.00     0.040 A 
HETATM   10  C14 UNL     1      25.819   1.089  51.823  1.00  0.00     0.047 A 
ENDROOT
BRANCH   8  11
HETATM   11  N5  UNL     1      25.595   3.661  50.796  1.00  0.00    -0.340 N 
HETATM   12  H7  UNL     1      26.539   3.219  50.910  1.00  0.00     0.167 HD
BRANCH  11  13
HETATM   13  C7  UNL     1      25.103   4.971  50.495  1.00  0.00     0.035 A 
HETATM   14  C8  UNL     1      24.160   5.602  51.272  1.00  0.00     0.032 A 
HETATM   15  C9  UNL     1      23.866   6.816  50.779  1.00  0.00     0.046 A 
HETATM   16  C10 UNL     1      24.312   7.510  49.691  1.00  0.00     0.138 A 
HETATM   17  F1  UNL     1      23.963   8.738  49.283  1.00  0.00    -0.204 F 
HETATM   18  C11 UNL     1      25.266   6.770  48.976  1.00  0.00     0.074 A 
HETATM   19 CL1  UNL     1      26.000   7.469  47.515  1.00  0.00    -0.081 Cl
HETATM   20  C12 UNL     1      25.706   5.489  49.331  1.00  0.00     0.056 A 
ENDBRANCH  11  13
ENDBRANCH   8  11
BRANCH   1  21
HETATM   21  N2  UNL     1      27.231  -0.923  52.926  1.00  0.00    -0.319 N 
HETATM   22  C1  UNL     1      28.192  -1.777  53.304  1.00  0.00     0.249 C 
HETATM   23  N1  UNL     1      28.519  -3.163  53.041  1.00  0.00    -0.363 N 
HETATM   24  O1  UNL     1      28.799  -0.886  54.050  1.00  0.00    -0.152 OA
HETATM   25  H1  UNL     1      29.196  -2.768  52.399  1.00  0.00     0.159 HD
HETATM   26  H2  UNL     1      28.031  -3.990  53.513  1.00  0.00     0.159 HD
HETATM   27  H3  UNL     1      26.692  -1.616  52.269  1.00  0.00     0.169 HD
ENDBRANCH   1  21
TORSDOF 3
ENDMDL
MODEL 9
REMARK VINA RESULT:      -7.7      5.830      7.433
REMARK  3 active torsions:
REMARK  status: ('A' for Active; 'I' for Inactive)
REMARK       I    between atoms: N1_1  and  C1_2 
REMARK    1  A    between atoms: N2_4  and  C2_5 
REMARK    2  A    between atoms: C6_12  and  N5_13 
REMARK    3  A    between atoms: N5_13  and  C7_14 
ROOT
HETATM    1  C2  UNL     1      25.702   7.081  50.197  1.00  0.00     0.058 A 
HETATM    2  C3  UNL     1      25.509   7.020  48.909  1.00  0.00     0.167 A 
HETATM    3  O2  UNL     1      24.699   6.138  48.147  1.00  0.00    -0.329 OA
HETATM    4  C4  UNL     1      23.997   5.142  48.803  1.00  0.00     0.288 A 
HETATM    5  N3  UNL     1      22.519   5.105  48.612  1.00  0.00    -0.246 NA
HETATM    6  C5  UNL     1      21.891   4.674  49.712  1.00  0.00     0.232 C 
HETATM    7  N4  UNL     1      22.212   4.248  51.070  1.00  0.00    -0.224 NA
HETATM    8  C6  UNL     1      23.567   4.335  51.317  1.00  0.00     0.140 C 
HETATM    9  C13 UNL     1      24.188   5.201  50.266  1.00  0.00     0.040 A 
HETATM   10  C14 UNL     1      24.964   6.082  50.881  1.00  0.00     0.047 A 
ENDROOT
BRANCH   8  11
HETATM   11  N5  UNL     1      24.251   3.973  52.542  1.00  0.00    -0.340 N 
HETATM   12  H7  UNL     1      24.136   4.677  53.310  1.00  0.00     0.167 HD
BRANCH  11  13
HETATM   13  C7  UNL     1      24.904   2.708  52.398  1.00  0.00     0.035 A 
HETATM   14  C8  UNL     1      26.040   2.546  51.639  1.00  0.00     0.032 A 
HETATM   15  C9  UNL     1      26.456   1.270  51.662  1.00  0.00     0.046 A 
HETATM   16  C10 UNL     1      25.976   0.148  52.275  1.00  0.00     0.138 A 
HETATM   17  F1  UNL     1      26.475  -1.097  52.249  1.00  0.00    -0.204 F 
HETATM   18  C11 UNL     1      24.820   0.432  53.017  1.00  0.00     0.074 A 
HETATM   19 CL1  UNL     1      24.010  -0.874  53.912  1.00  0.00    -0.081 Cl
HETATM   20  C12 UNL     1      24.233   1.700  53.118  1.00  0.00     0.056 A 
ENDBRANCH  11  13
ENDBRANCH   8  11
BRANCH   1  21
HETATM   21  N2  UNL     1      26.566   8.135  50.188  1.00  0.00    -0.319 N 
HETATM   22  C1  UNL     1      27.411   9.174  50.178  1.00  0.00     0.249 C 
HETATM   23  N1  UNL     1      28.848   9.350  50.158  1.00  0.00    -0.363 N 
HETATM   24  O1  UNL     1      26.445  10.061  50.189  1.00  0.00    -0.152 OA
HETATM   25  H1  UNL     1      28.704   9.526  49.171  1.00  0.00     0.159 HD
HETATM   26  H2  UNL     1      29.473   9.250  51.021  1.00  0.00     0.159 HD
HETATM   27  H3  UNL     1      27.327   7.346  50.156  1.00  0.00     0.169 HD
ENDBRANCH   1  21
TORSDOF 3
ENDMDL
