MODEL 1
REMARK VINA RESULT:      -7.4      0.000      0.000
REMARK  5 active torsions:
REMARK  status: ('A' for Active; 'I' for Inactive)
REMARK    1  A    between atoms: C5_5  and  O1_6 
REMARK    2  A    between atoms: O1_6  and  C6_7 
REMARK    3  A    between atoms: C7_10  and  S1_11 
REMARK    4  A    between atoms: S1_11  and  C8_12 
REMARK    5  A    between atoms: C8_12  and  C9_13 
ROOT
HETATM    1  C6  UNL     1      25.992   2.133  53.218  1.00  0.00     0.318 A 
HETATM    2  N1  UNL     1      26.534   2.438  52.002  1.00  0.00    -0.095 NA
HETATM    3  N2  UNL     1      25.504   2.658  51.196  1.00  0.00    -0.112 NA
HETATM    4  C7  UNL     1      24.345   2.496  51.881  1.00  0.00     0.233 A 
HETATM    5  O2  UNL     1      24.689   2.179  53.104  1.00  0.00    -0.244 OA
ENDROOT
BRANCH   4   6
HETATM    6  S1  UNL     1      22.701   2.688  51.208  1.00  0.00    -0.078 SA
BRANCH   6   7
HETATM    7  C8  UNL     1      21.990   1.035  50.982  1.00  0.00     0.121 C 
BRANCH   7   8
HETATM    8  C9  UNL     1      21.748   0.468  52.354  1.00  0.00    -0.049 A 
HETATM    9  C10 UNL     1      20.816   0.975  53.235  1.00  0.00     0.008 A 
HETATM   10  C11 UNL     1      20.684   0.372  54.465  1.00  0.00     0.001 A 
HETATM   11  C12 UNL     1      21.465  -0.722  54.825  1.00  0.00     0.000 A 
HETATM   12  C13 UNL     1      22.414  -1.251  53.947  1.00  0.00     0.001 A 
HETATM   13  C14 UNL     1      22.521  -0.618  52.715  1.00  0.00     0.008 A 
ENDBRANCH   7   8
ENDBRANCH   6   7
ENDBRANCH   4   6
BRANCH   1  14
HETATM   14  O1  UNL     1      26.859   1.857  54.258  1.00  0.00    -0.275 OA
BRANCH  14  15
HETATM   15  C5  UNL     1      27.935   1.000  53.993  1.00  0.00     0.061 A 
HETATM   16  C4  UNL     1      29.272   1.112  53.926  1.00  0.00     0.033 A 
HETATM   17  C3  UNL     1      29.802  -0.209  53.594  1.00  0.00     0.005 A 
HETATM   18  C2  UNL     1      28.812  -1.071  53.469  1.00  0.00    -0.078 A 
HETATM   19  C1  UNL     1      28.984  -2.518  53.134  1.00  0.00     0.044 C 
HETATM   20  C15 UNL     1      27.496  -0.395  53.710  1.00  0.00     0.098 A 
ENDBRANCH  14  15
ENDBRANCH   1  14
TORSDOF 5
ENDMDL
MODEL 2
REMARK VINA RESULT:      -7.3      3.031      5.223
REMARK  5 active torsions:
REMARK  status: ('A' for Active; 'I' for Inactive)
REMARK    1  A    between atoms: C5_5  and  O1_6 
REMARK    2  A    between atoms: O1_6  and  C6_7 
REMARK    3  A    between atoms: C7_10  and  S1_11 
REMARK    4  A    between atoms: S1_11  and  C8_12 
REMARK    5  A    between atoms: C8_12  and  C9_13 
ROOT
HETATM    1  C6  UNL     1      24.307   0.637  52.907  1.00  0.00     0.318 A 
HETATM    2  N1  UNL     1      22.954   0.633  53.085  1.00  0.00    -0.095 NA
HETATM    3  N2  UNL     1      22.532   1.810  52.642  1.00  0.00    -0.112 NA
HETATM    4  C7  UNL     1      23.587   2.537  52.198  1.00  0.00     0.233 A 
HETATM    5  O2  UNL     1      24.644   1.784  52.377  1.00  0.00    -0.244 OA
ENDROOT
BRANCH   4   6
HETATM    6  S1  UNL     1      23.503   4.184  51.513  1.00  0.00    -0.078 SA
BRANCH   6   7
HETATM    7  C8  UNL     1      23.619   4.048  49.707  1.00  0.00     0.121 C 
BRANCH   7   8
HETATM    8  C9  UNL     1      24.966   4.587  49.311  1.00  0.00    -0.049 A 
HETATM    9  C10 UNL     1      26.132   3.853  49.382  1.00  0.00     0.008 A 
HETATM   10  C11 UNL     1      27.307   4.453  48.991  1.00  0.00     0.001 A 
HETATM   11  C12 UNL     1      27.334   5.767  48.534  1.00  0.00     0.000 A 
HETATM   12  C13 UNL     1      26.165   6.527  48.454  1.00  0.00     0.001 A 
HETATM   13  C14 UNL     1      24.998   5.891  48.857  1.00  0.00     0.008 A 
ENDBRANCH   7   8
ENDBRANCH   6   7
ENDBRANCH   4   6
BRANCH   1  14
HETATM   14  O1  UNL     1      25.010  -0.490  53.290  1.00  0.00    -0.275 OA
BRANCH  14  15
HETATM   15  C5  UNL     1      26.287  -0.302  53.833  1.00  0.00     0.061 A 
HETATM   16  C4  UNL     1      26.801   0.289  54.925  1.00  0.00     0.033 A 
HETATM   17  C3  UNL     1      28.251   0.110  54.874  1.00  0.00     0.005 A 
HETATM   18  C2  UNL     1      28.582  -0.563  53.790  1.00  0.00    -0.078 A 
HETATM   19  C1  UNL     1      29.981  -0.930  53.413  1.00  0.00     0.044 C 
HETATM   20  C15 UNL     1      27.359  -0.906  52.994  1.00  0.00     0.098 A 
ENDBRANCH  14  15
ENDBRANCH   1  14
TORSDOF 5
ENDMDL
MODEL 3
REMARK VINA RESULT:      -7.3      3.244      6.251
REMARK  5 active torsions:
REMARK  status: ('A' for Active; 'I' for Inactive)
REMARK    1  A    between atoms: C5_5  and  O1_6 
REMARK    2  A    between atoms: O1_6  and  C6_7 
REMARK    3  A    between atoms: C7_10  and  S1_11 
REMARK    4  A    between atoms: S1_11  and  C8_12 
REMARK    5  A    between atoms: C8_12  and  C9_13 
ROOT
HETATM    1  C6  UNL     1      24.368   3.332  51.039  1.00  0.00     0.318 A 
HETATM    2  N1  UNL     1      23.429   2.529  50.459  1.00  0.00    -0.095 NA
HETATM    3  N2  UNL     1      23.405   1.422  51.189  1.00  0.00    -0.112 NA
HETATM    4  C7  UNL     1      24.302   1.521  52.200  1.00  0.00     0.233 A 
HETATM    5  O2  UNL     1      24.863   2.698  52.071  1.00  0.00    -0.244 OA
ENDROOT
BRANCH   4   6
HETATM    6  S1  UNL     1      24.620   0.273  53.438  1.00  0.00    -0.078 SA
BRANCH   6   7
HETATM    7  C8  UNL     1      26.186   0.681  54.258  1.00  0.00     0.121 C 
BRANCH   7   8
HETATM    8  C9  UNL     1      27.200  -0.332  53.800  1.00  0.00    -0.049 A 
HETATM    9  C10 UNL     1      26.878  -1.451  53.061  1.00  0.00     0.008 A 
HETATM   10  C11 UNL     1      27.893  -2.308  52.698  1.00  0.00     0.001 A 
HETATM   11  C12 UNL     1      29.214  -2.064  53.061  1.00  0.00     0.000 A 
HETATM   12  C13 UNL     1      29.560  -0.936  53.809  1.00  0.00     0.001 A 
HETATM   13  C14 UNL     1      28.512  -0.093  54.158  1.00  0.00     0.008 A 
ENDBRANCH   7   8
ENDBRANCH   6   7
ENDBRANCH   4   6
BRANCH   1  14
HETATM   14  O1  UNL     1      24.598   4.570  50.469  1.00  0.00    -0.275 OA
BRANCH  14  15
HETATM   15  C5  UNL     1      25.780   4.736  49.737  1.00  0.00     0.061 A 
HETATM   16  C4  UNL     1      26.804   3.953  49.355  1.00  0.00     0.033 A 
HETATM   17  C3  UNL     1      27.728   4.789  48.591  1.00  0.00     0.005 A 
HETATM   18  C2  UNL     1      27.266   6.022  48.524  1.00  0.00    -0.078 A 
HETATM   19  C1  UNL     1      27.952   7.148  47.819  1.00  0.00     0.044 C 
HETATM   20  C15 UNL     1      25.961   6.133  49.253  1.00  0.00     0.098 A 
ENDBRANCH  14  15
ENDBRANCH   1  14
TORSDOF 5
ENDMDL
MODEL 4
REMARK VINA RESULT:      -7.3      2.869      4.124
REMARK  5 active torsions:
REMARK  status: ('A' for Active; 'I' for Inactive)
REMARK    1  A    between atoms: C5_5  and  O1_6 
REMARK    2  A    between atoms: O1_6  and  C6_7 
REMARK    3  A    between atoms: C7_10  and  S1_11 
REMARK    4  A    between atoms: S1_11  and  C8_12 
REMARK    5  A    between atoms: C8_12  and  C9_13 
ROOT
HETATM    1  C6  UNL     1      23.713  -1.020  54.777  1.00  0.00     0.318 A 
HETATM    2  N1  UNL     1      22.802  -1.644  55.580  1.00  0.00    -0.095 NA
HETATM    3  N2  UNL     1      21.613  -1.328  55.084  1.00  0.00    -0.112 NA
HETATM    4  C7  UNL     1      21.766  -0.529  54.001  1.00  0.00     0.233 A 
HETATM    5  O2  UNL     1      23.058  -0.369  53.850  1.00  0.00    -0.244 OA
ENDROOT
BRANCH   4   6
HETATM    6  S1  UNL     1      20.444   0.146  53.007  1.00  0.00    -0.078 SA
BRANCH   6   7
HETATM    7  C8  UNL     1      21.127   0.582  51.384  1.00  0.00     0.121 C 
BRANCH   7   8
HETATM    8  C9  UNL     1      22.167   1.645  51.616  1.00  0.00    -0.049 A 
HETATM    9  C10 UNL     1      23.505   1.478  51.329  1.00  0.00     0.008 A 
HETATM   10  C11 UNL     1      24.364   2.524  51.583  1.00  0.00     0.001 A 
HETATM   11  C12 UNL     1      23.907   3.725  52.117  1.00  0.00     0.000 A 
HETATM   12  C13 UNL     1      22.555   3.914  52.414  1.00  0.00     0.001 A 
HETATM   13  C14 UNL     1      21.718   2.839  52.145  1.00  0.00     0.008 A 
ENDBRANCH   7   8
ENDBRANCH   6   7
ENDBRANCH   4   6
BRANCH   1  14
HETATM   14  O1  UNL     1      25.053  -1.186  55.073  1.00  0.00    -0.275 OA
BRANCH  14  15
HETATM   15  C5  UNL     1      25.985  -0.628  54.188  1.00  0.00     0.061 A 
HETATM   16  C4  UNL     1      26.559  -0.988  53.028  1.00  0.00     0.033 A 
HETATM   17  C3  UNL     1      27.465   0.091  52.638  1.00  0.00     0.005 A 
HETATM   18  C2  UNL     1      27.427   1.054  53.538  1.00  0.00    -0.078 A 
HETATM   19  C1  UNL     1      28.228   2.315  53.464  1.00  0.00     0.044 C 
HETATM   20  C15 UNL     1      26.473   0.705  54.640  1.00  0.00     0.098 A 
ENDBRANCH  14  15
ENDBRANCH   1  14
TORSDOF 5
ENDMDL
MODEL 5
REMARK VINA RESULT:      -7.0      1.660      2.204
REMARK  5 active torsions:
REMARK  status: ('A' for Active; 'I' for Inactive)
REMARK    1  A    between atoms: C5_5  and  O1_6 
REMARK    2  A    between atoms: O1_6  and  C6_7 
REMARK    3  A    between atoms: C7_10  and  S1_11 
REMARK    4  A    between atoms: S1_11  and  C8_12 
REMARK    5  A    between atoms: C8_12  and  C9_13 
ROOT
HETATM    1  C6  UNL     1      25.154   3.197  51.108  1.00  0.00     0.318 A 
HETATM    2  N1  UNL     1      24.632   3.456  49.873  1.00  0.00    -0.095 NA
HETATM    3  N2  UNL     1      23.320   3.536  50.048  1.00  0.00    -0.112 NA
HETATM    4  C7  UNL     1      23.020   3.334  51.355  1.00  0.00     0.233 A 
HETATM    5  O2  UNL     1      24.164   3.132  51.961  1.00  0.00    -0.244 OA
ENDROOT
BRANCH   4   6
HETATM    6  S1  UNL     1      21.380   3.349  52.062  1.00  0.00    -0.078 SA
BRANCH   6   7
HETATM    7  C8  UNL     1      20.638   1.715  51.796  1.00  0.00     0.121 C 
BRANCH   7   8
HETATM    8  C9  UNL     1      21.348   0.755  52.712  1.00  0.00    -0.049 A 
HETATM    9  C10 UNL     1      22.500   0.080  52.364  1.00  0.00     0.008 A 
HETATM   10  C11 UNL     1      23.061  -0.773  53.287  1.00  0.00     0.001 A 
HETATM   11  C12 UNL     1      22.491  -0.962  54.542  1.00  0.00     0.000 A 
HETATM   12  C13 UNL     1      21.325  -0.288  54.914  1.00  0.00     0.001 A 
HETATM   13  C14 UNL     1      20.786   0.565  53.959  1.00  0.00     0.008 A 
ENDBRANCH   7   8
ENDBRANCH   6   7
ENDBRANCH   4   6
BRANCH   1  14
HETATM   14  O1  UNL     1      26.526   3.064  51.212  1.00  0.00    -0.275 OA
BRANCH  14  15
HETATM   15  C5  UNL     1      27.016   2.016  52.002  1.00  0.00     0.061 A 
HETATM   16  C4  UNL     1      27.902   1.886  53.004  1.00  0.00     0.033 A 
HETATM   17  C3  UNL     1      27.932   0.473  53.377  1.00  0.00     0.005 A 
HETATM   18  C2  UNL     1      27.094  -0.208  52.621  1.00  0.00    -0.078 A 
HETATM   19  C1  UNL     1      26.865  -1.682  52.723  1.00  0.00     0.044 C 
HETATM   20  C15 UNL     1      26.407   0.703  51.648  1.00  0.00     0.098 A 
ENDBRANCH  14  15
ENDBRANCH   1  14
TORSDOF 5
ENDMDL
MODEL 6
REMARK VINA RESULT:      -7.0      3.845      4.739
REMARK  5 active torsions:
REMARK  status: ('A' for Active; 'I' for Inactive)
REMARK    1  A    between atoms: C5_5  and  O1_6 
REMARK    2  A    between atoms: O1_6  and  C6_7 
REMARK    3  A    between atoms: C7_10  and  S1_11 
REMARK    4  A    between atoms: S1_11  and  C8_12 
REMARK    5  A    between atoms: C8_12  and  C9_13 
ROOT
HETATM    1  C6  UNL     1      23.523  -1.050  54.867  1.00  0.00     0.318 A 
HETATM    2  N1  UNL     1      22.658  -1.865  55.539  1.00  0.00    -0.095 NA
HETATM    3  N2  UNL     1      21.459  -1.607  55.035  1.00  0.00    -0.112 NA
HETATM    4  C7  UNL     1      21.561  -0.657  54.073  1.00  0.00     0.233 A 
HETATM    5  O2  UNL     1      22.833  -0.349  54.004  1.00  0.00    -0.244 OA
ENDROOT
BRANCH   4   6
HETATM    6  S1  UNL     1      20.207   0.008  53.116  1.00  0.00    -0.078 SA
BRANCH   6   7
HETATM    7  C8  UNL     1      18.734  -0.995  53.454  1.00  0.00     0.121 C 
BRANCH   7   8
HETATM    8  C9  UNL     1      17.801  -0.812  52.289  1.00  0.00    -0.049 A 
HETATM    9  C10 UNL     1      16.535  -1.357  52.234  1.00  0.00     0.008 A 
HETATM   10  C11 UNL     1      15.770  -1.120  51.114  1.00  0.00     0.001 A 
HETATM   11  C12 UNL     1      16.249  -0.353  50.056  1.00  0.00     0.000 A 
HETATM   12  C13 UNL     1      17.528   0.207  50.093  1.00  0.00     0.001 A 
HETATM   13  C14 UNL     1      18.272  -0.051  51.237  1.00  0.00     0.008 A 
ENDBRANCH   7   8
ENDBRANCH   6   7
ENDBRANCH   4   6
BRANCH   1  14
HETATM   14  O1  UNL     1      24.863  -1.117  55.200  1.00  0.00    -0.275 OA
BRANCH  14  15
HETATM   15  C5  UNL     1      25.787  -0.633  54.266  1.00  0.00     0.061 A 
HETATM   16  C4  UNL     1      26.185  -0.971  53.028  1.00  0.00     0.033 A 
HETATM   17  C3  UNL     1      27.215  -0.014  52.626  1.00  0.00     0.005 A 
HETATM   18  C2  UNL     1      27.418   0.858  53.594  1.00  0.00    -0.078 A 
HETATM   19  C1  UNL     1      28.403   1.981  53.531  1.00  0.00     0.044 C 
HETATM   20  C15 UNL     1      26.525   0.562  54.761  1.00  0.00     0.098 A 
ENDBRANCH  14  15
ENDBRANCH   1  14
TORSDOF 5
ENDMDL
MODEL 7
REMARK VINA RESULT:      -7.0      1.257      1.603
REMARK  5 active torsions:
REMARK  status: ('A' for Active; 'I' for Inactive)
REMARK    1  A    between atoms: C5_5  and  O1_6 
REMARK    2  A    between atoms: O1_6  and  C6_7 
REMARK    3  A    between atoms: C7_10  and  S1_11 
REMARK    4  A    between atoms: S1_11  and  C8_12 
REMARK    5  A    between atoms: C8_12  and  C9_13 
ROOT
HETATM    1  C6  UNL     1      25.065   2.393  52.649  1.00  0.00     0.318 A 
HETATM    2  N1  UNL     1      24.343   3.379  53.258  1.00  0.00    -0.095 NA
HETATM    3  N2  UNL     1      23.182   3.418  52.618  1.00  0.00    -0.112 NA
HETATM    4  C7  UNL     1      23.169   2.487  51.633  1.00  0.00     0.233 A 
HETATM    5  O2  UNL     1      24.333   1.887  51.690  1.00  0.00    -0.244 OA
ENDROOT
BRANCH   4   6
HETATM    6  S1  UNL     1      21.816   2.174  50.511  1.00  0.00    -0.078 SA
BRANCH   6   7
HETATM    7  C8  UNL     1      21.294   0.450  50.727  1.00  0.00     0.121 C 
BRANCH   7   8
HETATM    8  C9  UNL     1      21.355   0.154  52.201  1.00  0.00    -0.049 A 
HETATM    9  C10 UNL     1      20.507   0.722  53.129  1.00  0.00     0.008 A 
HETATM   10  C11 UNL     1      20.659   0.373  54.452  1.00  0.00     0.001 A 
HETATM   11  C12 UNL     1      21.639  -0.528  54.857  1.00  0.00     0.000 A 
HETATM   12  C13 UNL     1      22.507  -1.114  53.934  1.00  0.00     0.001 A 
HETATM   13  C14 UNL     1      22.326  -0.740  52.608  1.00  0.00     0.008 A 
ENDBRANCH   7   8
ENDBRANCH   6   7
ENDBRANCH   4   6
BRANCH   1  14
HETATM   14  O1  UNL     1      26.336   2.137  53.128  1.00  0.00    -0.275 OA
BRANCH  14  15
HETATM   15  C5  UNL     1      26.798   0.816  53.060  1.00  0.00     0.061 A 
HETATM   16  C4  UNL     1      26.276  -0.381  52.742  1.00  0.00     0.033 A 
HETATM   17  C3  UNL     1      27.342  -1.371  52.887  1.00  0.00     0.005 A 
HETATM   18  C2  UNL     1      28.454  -0.780  53.276  1.00  0.00    -0.078 A 
HETATM   19  C1  UNL     1      29.748  -1.486  53.526  1.00  0.00     0.044 C 
HETATM   20  C15 UNL     1      28.234   0.695  53.434  1.00  0.00     0.098 A 
ENDBRANCH  14  15
ENDBRANCH   1  14
TORSDOF 5
ENDMDL
MODEL 8
REMARK VINA RESULT:      -7.0      3.372      5.742
REMARK  5 active torsions:
REMARK  status: ('A' for Active; 'I' for Inactive)
REMARK    1  A    between atoms: C5_5  and  O1_6 
REMARK    2  A    between atoms: O1_6  and  C6_7 
REMARK    3  A    between atoms: C7_10  and  S1_11 
REMARK    4  A    between atoms: S1_11  and  C8_12 
REMARK    5  A    between atoms: C8_12  and  C9_13 
ROOT
HETATM    1  C6  UNL     1      24.066   1.106  52.509  1.00  0.00     0.318 A 
HETATM    2  N1  UNL     1      22.798   1.581  52.677  1.00  0.00    -0.095 NA
HETATM    3  N2  UNL     1      22.572   2.371  51.636  1.00  0.00    -0.112 NA
HETATM    4  C7  UNL     1      23.665   2.397  50.835  1.00  0.00     0.233 A 
HETATM    5  O2  UNL     1      24.547   1.613  51.403  1.00  0.00    -0.244 OA
ENDROOT
BRANCH   4   6
HETATM    6  S1  UNL     1      23.824   3.325  49.317  1.00  0.00    -0.078 SA
BRANCH   6   7
HETATM    7  C8  UNL     1      24.228   5.040  49.748  1.00  0.00     0.121 C 
BRANCH   7   8
HETATM    8  C9  UNL     1      25.600   5.320  49.198  1.00  0.00    -0.049 A 
HETATM    9  C10 UNL     1      26.632   4.406  49.222  1.00  0.00     0.008 A 
HETATM   10  C11 UNL     1      27.846   4.775  48.688  1.00  0.00     0.001 A 
HETATM   11  C12 UNL     1      28.041   6.037  48.135  1.00  0.00     0.000 A 
HETATM   12  C13 UNL     1      27.009   6.978  48.101  1.00  0.00     0.001 A 
HETATM   13  C14 UNL     1      25.799   6.571  48.648  1.00  0.00     0.008 A 
ENDBRANCH   7   8
ENDBRANCH   6   7
ENDBRANCH   4   6
BRANCH   1  14
HETATM   14  O1  UNL     1      24.563   0.242  53.468  1.00  0.00    -0.275 OA
BRANCH  14  15
HETATM   15  C5  UNL     1      25.867  -0.237  53.294  1.00  0.00     0.061 A 
HETATM   16  C4  UNL     1      26.437  -1.319  52.736  1.00  0.00     0.033 A 
HETATM   17  C3  UNL     1      27.883  -1.186  52.911  1.00  0.00     0.005 A 
HETATM   18  C2  UNL     1      28.156  -0.065  53.549  1.00  0.00    -0.078 A 
HETATM   19  C1  UNL     1      29.533   0.397  53.901  1.00  0.00     0.044 C 
HETATM   20  C15 UNL     1      26.892   0.675  53.871  1.00  0.00     0.098 A 
ENDBRANCH  14  15
ENDBRANCH   1  14
TORSDOF 5
ENDMDL
MODEL 9
REMARK VINA RESULT:      -6.9      2.261      4.557
REMARK  5 active torsions:
REMARK  status: ('A' for Active; 'I' for Inactive)
REMARK    1  A    between atoms: C5_5  and  O1_6 
REMARK    2  A    between atoms: O1_6  and  C6_7 
REMARK    3  A    between atoms: C7_10  and  S1_11 
REMARK    4  A    between atoms: S1_11  and  C8_12 
REMARK    5  A    between atoms: C8_12  and  C9_13 
ROOT
HETATM    1  C6  UNL     1      26.531   0.430  52.805  1.00  0.00     0.318 A 
HETATM    2  N1  UNL     1      27.531   1.267  53.209  1.00  0.00    -0.095 NA
HETATM    3  N2  UNL     1      27.515   2.282  52.356  1.00  0.00    -0.112 NA
HETATM    4  C7  UNL     1      26.535   2.093  51.438  1.00  0.00     0.233 A 
HETATM    5  O2  UNL     1      25.963   0.956  51.750  1.00  0.00    -0.244 OA
ENDROOT
BRANCH   4   6
HETATM    6  S1  UNL     1      26.139   3.198  50.092  1.00  0.00    -0.078 SA
BRANCH   6   7
HETATM    7  C8  UNL     1      24.508   3.922  50.421  1.00  0.00     0.121 C 
BRANCH   7   8
HETATM    8  C9  UNL     1      23.482   2.912  49.983  1.00  0.00    -0.049 A 
HETATM    9  C10 UNL     1      22.853   2.041  50.847  1.00  0.00     0.008 A 
HETATM   10  C11 UNL     1      21.930   1.160  50.329  1.00  0.00     0.001 A 
HETATM   11  C12 UNL     1      21.630   1.138  48.970  1.00  0.00     0.000 A 
HETATM   12  C13 UNL     1      22.256   2.012  48.079  1.00  0.00     0.001 A 
HETATM   13  C14 UNL     1      23.182   2.887  48.635  1.00  0.00     0.008 A 
ENDBRANCH   7   8
ENDBRANCH   6   7
ENDBRANCH   4   6
BRANCH   1  14
HETATM   14  O1  UNL     1      26.325  -0.726  53.534  1.00  0.00    -0.275 OA
BRANCH  14  15
HETATM   15  C5  UNL     1      25.099  -0.862  54.197  1.00  0.00     0.061 A 
HETATM   16  C4  UNL     1      24.697  -1.181  55.440  1.00  0.00     0.033 A 
HETATM   17  C3  UNL     1      23.235  -1.135  55.448  1.00  0.00     0.005 A 
HETATM   18  C2  UNL     1      22.790  -0.801  54.252  1.00  0.00    -0.078 A 
HETATM   19  C1  UNL     1      21.346  -0.658  53.894  1.00  0.00     0.044 C 
HETATM   20  C15 UNL     1      23.936  -0.588  53.308  1.00  0.00     0.098 A 
ENDBRANCH  14  15
ENDBRANCH   1  14
TORSDOF 5
ENDMDL
