MODEL 1
REMARK VINA RESULT:      -8.8      0.000      0.000
REMARK  2 active torsions:
REMARK  status: ('A' for Active; 'I' for Inactive)
REMARK    1  A    between atoms: O1_1  and  C1_2 
REMARK    2  A    between atoms: C6_9  and  N3_10 
ROOT
HETATM    1  C1  UNL     1      18.257  -1.121  52.905  1.00  0.00     0.171 C 
HETATM    2  C2  UNL     1      19.705  -0.967  53.258  1.00  0.00     0.019 C 
HETATM    3  C3  UNL     1      20.546  -0.153  52.643  1.00  0.00    -0.019 C 
HETATM    4  C4  UNL     1      21.780  -0.426  53.403  1.00  0.00     0.095 A 
HETATM    5  N1  UNL     1      21.453  -1.300  54.367  1.00  0.00    -0.239 NA
HETATM    6  C5  UNL     1      22.426  -1.705  55.198  1.00  0.00     0.236 A 
HETATM    7  N2  UNL     1      23.719  -1.274  55.104  1.00  0.00    -0.222 NA
HETATM    8  C6  UNL     1      24.065  -0.387  54.127  1.00  0.00     0.156 A 
HETATM    9  C12 UNL     1      23.088   0.051  53.258  1.00  0.00     0.104 A 
HETATM   10  N4  UNL     1      23.764   0.957  52.384  1.00  0.00    -0.382 N 
HETATM   11  C13 UNL     1      23.502   1.405  51.031  1.00  0.00     0.147 C 
HETATM   12  C14 UNL     1      22.215   2.190  51.013  1.00  0.00    -0.011 C 
HETATM   13  C15 UNL     1      20.956   1.815  51.212  1.00  0.00    -0.019 C 
HETATM   14  C16 UNL     1      20.065   0.689  51.515  1.00  0.00     0.055 C 
HETATM   15  C17 UNL     1      18.694   1.201  51.953  1.00  0.00     0.052 A 
HETATM   16  C18 UNL     1      17.509   1.033  51.198  1.00  0.00    -0.010 A 
HETATM   17  C19 UNL     1      17.827  -0.011  51.993  1.00  0.00    -0.042 A 
HETATM   18  H12 UNL     1      24.585   1.311  52.925  1.00  0.00     0.160 HD
ENDROOT
BRANCH   8  19
HETATM   19  N3  UNL     1      25.428   0.016  54.067  1.00  0.00    -0.359 N 
HETATM   20  C7  UNL     1      26.207   1.138  54.620  1.00  0.00     0.151 C 
HETATM   21  C8  UNL     1      26.492   2.003  53.439  1.00  0.00    -0.010 C 
HETATM   22  C9  UNL     1      27.108   1.380  52.440  1.00  0.00    -0.012 C 
HETATM   23  C10 UNL     1      27.432  -0.084  52.621  1.00  0.00     0.098 C 
HETATM   24 BR1  UNL     1      29.031  -0.261  53.689  1.00  0.00    -0.085 Br
HETATM   25  C11 UNL     1      26.328  -0.842  53.288  1.00  0.00     0.144 C 
ENDBRANCH   8  19
BRANCH   1  26
HETATM   26  O1  UNL     1      17.533  -1.004  54.077  1.00  0.00    -0.387 OA
HETATM   27  H1  UNL     1      16.573  -0.914  53.834  1.00  0.00     0.210 HD
ENDBRANCH   1  26
TORSDOF 2
ENDMDL
MODEL 2
REMARK VINA RESULT:      -8.8      1.493      3.260
REMARK  2 active torsions:
REMARK  status: ('A' for Active; 'I' for Inactive)
REMARK    1  A    between atoms: O1_1  and  C1_2 
REMARK    2  A    between atoms: C6_9  and  N3_10 
ROOT
HETATM    1  C1  UNL     1      18.075   0.924  51.553  1.00  0.00     0.171 C 
HETATM    2  C2  UNL     1      19.569   1.035  51.577  1.00  0.00     0.019 C 
HETATM    3  C3  UNL     1      20.356   0.394  52.423  1.00  0.00    -0.019 C 
HETATM    4  C4  UNL     1      21.675   0.882  51.978  1.00  0.00     0.095 A 
HETATM    5  N1  UNL     1      21.454   1.673  50.917  1.00  0.00    -0.239 NA
HETATM    6  C5  UNL     1      22.519   2.243  50.331  1.00  0.00     0.236 A 
HETATM    7  N2  UNL     1      23.801   2.057  50.765  1.00  0.00    -0.222 NA
HETATM    8  C6  UNL     1      24.039   1.256  51.844  1.00  0.00     0.156 A 
HETATM    9  C12 UNL     1      22.966   0.655  52.467  1.00  0.00     0.104 A 
HETATM   10  N4  UNL     1      23.548  -0.106  53.529  1.00  0.00    -0.382 N 
HETATM   11  C13 UNL     1      23.035  -0.582  54.798  1.00  0.00     0.147 C 
HETATM   12  C14 UNL     1      21.944  -1.590  54.540  1.00  0.00    -0.011 C 
HETATM   13  C15 UNL     1      20.730  -1.454  54.016  1.00  0.00    -0.019 C 
HETATM   14  C16 UNL     1      19.762  -0.513  53.442  1.00  0.00     0.055 C 
HETATM   15  C17 UNL     1      18.657  -1.271  52.707  1.00  0.00     0.052 A 
HETATM   16  C18 UNL     1      17.310  -1.317  53.136  1.00  0.00    -0.010 A 
HETATM   17  C19 UNL     1      17.630  -0.239  52.388  1.00  0.00    -0.042 A 
HETATM   18  H12 UNL     1      24.528  -0.307  53.227  1.00  0.00     0.160 HD
ENDROOT
BRANCH   8  19
HETATM   19  N3  UNL     1      25.392   1.111  52.260  1.00  0.00    -0.359 N 
HETATM   20  C7  UNL     1      26.513   0.240  51.868  1.00  0.00     0.151 C 
HETATM   21  C8  UNL     1      26.657  -0.710  53.009  1.00  0.00    -0.010 C 
HETATM   22  C9  UNL     1      26.836  -0.124  54.189  1.00  0.00    -0.012 C 
HETATM   23  C10 UNL     1      26.871   1.385  54.224  1.00  0.00     0.098 C 
HETATM   24 BR1  UNL     1      28.617   2.001  53.676  1.00  0.00    -0.085 Br
HETATM   25  C11 UNL     1      25.845   2.007  53.330  1.00  0.00     0.144 C 
ENDBRANCH   8  19
BRANCH   1  26
HETATM   26  O1  UNL     1      17.703   0.666  50.246  1.00  0.00    -0.387 OA
HETATM   27  H1  UNL     1      17.544  -0.313  50.162  1.00  0.00     0.210 HD
ENDBRANCH   1  26
TORSDOF 2
ENDMDL
MODEL 3
REMARK VINA RESULT:      -8.4      3.575      5.432
REMARK  2 active torsions:
REMARK  status: ('A' for Active; 'I' for Inactive)
REMARK    1  A    between atoms: O1_1  and  C1_2 
REMARK    2  A    between atoms: C6_9  and  N3_10 
ROOT
HETATM    1  C1  UNL     1      19.979   0.005  53.832  1.00  0.00     0.171 C 
HETATM    2  C2  UNL     1      20.641   1.152  53.130  1.00  0.00     0.019 C 
HETATM    3  C3  UNL     1      21.949   1.312  53.020  1.00  0.00    -0.019 C 
HETATM    4  C4  UNL     1      21.996   2.571  52.254  1.00  0.00     0.095 A 
HETATM    5  N1  UNL     1      20.726   2.908  51.988  1.00  0.00    -0.239 NA
HETATM    6  C5  UNL     1      20.512   4.036  51.292  1.00  0.00     0.236 A 
HETATM    7  N2  UNL     1      21.519   4.845  50.850  1.00  0.00    -0.222 NA
HETATM    8  C6  UNL     1      22.816   4.514  51.115  1.00  0.00     0.156 A 
HETATM    9  C12 UNL     1      23.070   3.361  51.827  1.00  0.00     0.104 A 
HETATM   10  N4  UNL     1      24.495   3.303  51.921  1.00  0.00    -0.382 N 
HETATM   11  C13 UNL     1      25.397   2.671  52.863  1.00  0.00     0.147 C 
HETATM   12  C14 UNL     1      25.242   1.175  52.765  1.00  0.00    -0.011 C 
HETATM   13  C15 UNL     1      24.231   0.375  53.084  1.00  0.00    -0.019 C 
HETATM   14  C16 UNL     1      22.867   0.309  53.622  1.00  0.00     0.055 C 
HETATM   15  C17 UNL     1      22.239  -1.048  53.310  1.00  0.00     0.052 A 
HETATM   16  C18 UNL     1      21.929  -2.021  54.290  1.00  0.00    -0.010 A 
HETATM   17  C19 UNL     1      20.978  -1.080  54.104  1.00  0.00    -0.042 A 
HETATM   18  H12 UNL     1      24.854   3.846  51.104  1.00  0.00     0.160 HD
ENDROOT
BRANCH   8  19
HETATM   19  N3  UNL     1      23.823   5.401  50.643  1.00  0.00    -0.359 N 
HETATM   20  C7  UNL     1      24.536   6.561  51.207  1.00  0.00     0.151 C 
HETATM   21  C8  UNL     1      23.965   7.732  50.481  1.00  0.00    -0.010 C 
HETATM   22  C9  UNL     1      24.058   7.653  49.158  1.00  0.00    -0.012 C 
HETATM   23  C10 UNL     1      24.712   6.424  48.573  1.00  0.00     0.098 C 
HETATM   24 BR1  UNL     1      26.631   6.605  48.676  1.00  0.00    -0.085 Br
HETATM   25  C11 UNL     1      24.314   5.166  49.280  1.00  0.00     0.144 C 
ENDBRANCH   8  19
BRANCH   1  26
HETATM   26  O1  UNL     1      19.028  -0.510  52.971  1.00  0.00    -0.387 OA
HETATM   27  H1  UNL     1      18.163  -0.058  53.167  1.00  0.00     0.210 HD
ENDBRANCH   1  26
TORSDOF 2
ENDMDL
MODEL 4
REMARK VINA RESULT:      -8.3      3.975      7.595
REMARK  2 active torsions:
REMARK  status: ('A' for Active; 'I' for Inactive)
REMARK    1  A    between atoms: O1_1  and  C1_2 
REMARK    2  A    between atoms: C6_9  and  N3_10 
ROOT
HETATM    1  C1  UNL     1      27.928   1.677  52.641  1.00  0.00     0.171 C 
HETATM    2  C2  UNL     1      26.526   1.910  52.164  1.00  0.00     0.019 C 
HETATM    3  C3  UNL     1      25.476   1.202  52.543  1.00  0.00    -0.019 C 
HETATM    4  C4  UNL     1      24.415   1.873  51.769  1.00  0.00     0.095 A 
HETATM    5  N1  UNL     1      24.996   2.890  51.118  1.00  0.00    -0.239 NA
HETATM    6  C5  UNL     1      24.220   3.657  50.336  1.00  0.00     0.236 A 
HETATM    7  N2  UNL     1      22.880   3.447  50.176  1.00  0.00    -0.222 NA
HETATM    8  C6  UNL     1      22.276   2.414  50.832  1.00  0.00     0.156 A 
HETATM    9  C12 UNL     1      23.046   1.609  51.644  1.00  0.00     0.104 A 
HETATM   10  N4  UNL     1      22.126   0.652  52.176  1.00  0.00    -0.382 N 
HETATM   11  C13 UNL     1      22.290  -0.693  52.693  1.00  0.00     0.147 C 
HETATM   12  C14 UNL     1      23.118  -0.638  53.951  1.00  0.00    -0.011 C 
HETATM   13  C15 UNL     1      24.394  -0.328  54.149  1.00  0.00    -0.019 C 
HETATM   14  C16 UNL     1      25.649   0.085  53.509  1.00  0.00     0.055 C 
HETATM   15  C17 UNL     1      26.631   0.610  54.556  1.00  0.00     0.052 A 
HETATM   16  C18 UNL     1      27.835  -0.043  54.910  1.00  0.00    -0.010 A 
HETATM   17  C19 UNL     1      27.923   0.762  53.830  1.00  0.00    -0.042 A 
HETATM   18  H12 UNL     1      21.190   1.114  52.147  1.00  0.00     0.160 HD
ENDROOT
BRANCH   8  19
HETATM   19  N3  UNL     1      20.881   2.233  50.615  1.00  0.00    -0.359 N 
HETATM   20  C7  UNL     1      20.069   1.454  49.665  1.00  0.00     0.151 C 
HETATM   21  C8  UNL     1      19.500   2.478  48.741  1.00  0.00    -0.010 C 
HETATM   22  C9  UNL     1      18.816   3.442  49.348  1.00  0.00    -0.012 C 
HETATM   23  C10 UNL     1      18.703   3.381  50.853  1.00  0.00     0.098 C 
HETATM   24 BR1  UNL     1      17.324   2.122  51.343  1.00  0.00    -0.085 Br
HETATM   25  C11 UNL     1      19.981   2.967  51.512  1.00  0.00     0.144 C 
ENDBRANCH   8  19
BRANCH   1  26
HETATM   26  O1  UNL     1      28.429   2.897  53.056  1.00  0.00    -0.387 OA
HETATM   27  H1  UNL     1      28.966   3.275  52.309  1.00  0.00     0.210 HD
ENDBRANCH   1  26
TORSDOF 2
ENDMDL
MODEL 5
REMARK VINA RESULT:      -8.3      3.526      4.897
REMARK  2 active torsions:
REMARK  status: ('A' for Active; 'I' for Inactive)
REMARK    1  A    between atoms: O1_1  and  C1_2 
REMARK    2  A    between atoms: C6_9  and  N3_10 
ROOT
HETATM    1  C1  UNL     1      21.896  -1.599  54.002  1.00  0.00     0.171 C 
HETATM    2  C2  UNL     1      22.438  -0.347  53.381  1.00  0.00     0.019 C 
HETATM    3  C3  UNL     1      21.759   0.444  52.570  1.00  0.00    -0.019 C 
HETATM    4  C4  UNL     1      22.778   1.475  52.294  1.00  0.00     0.095 A 
HETATM    5  N1  UNL     1      23.855   1.158  53.028  1.00  0.00    -0.239 NA
HETATM    6  C5  UNL     1      24.928   1.961  52.941  1.00  0.00     0.236 A 
HETATM    7  N2  UNL     1      24.969   3.071  52.147  1.00  0.00    -0.222 NA
HETATM    8  C6  UNL     1      23.880   3.404  51.395  1.00  0.00     0.156 A 
HETATM    9  C12 UNL     1      22.762   2.600  51.462  1.00  0.00     0.104 A 
HETATM   10  N4  UNL     1      21.822   3.220  50.582  1.00  0.00    -0.382 N 
HETATM   11  C13 UNL     1      20.684   2.714  49.839  1.00  0.00     0.147 C 
HETATM   12  C14 UNL     1      19.626   2.258  50.811  1.00  0.00    -0.011 C 
HETATM   13  C15 UNL     1      19.604   1.248  51.674  1.00  0.00    -0.019 C 
HETATM   14  C16 UNL     1      20.353   0.109  52.218  1.00  0.00     0.055 C 
HETATM   15  C17 UNL     1      19.717  -0.369  53.523  1.00  0.00     0.052 A 
HETATM   16  C18 UNL     1      19.066  -1.615  53.676  1.00  0.00    -0.010 A 
HETATM   17  C19 UNL     1      20.406  -1.652  53.838  1.00  0.00    -0.042 A 
HETATM   18  H12 UNL     1      22.094   4.227  50.541  1.00  0.00     0.160 HD
ENDROOT
BRANCH   8  19
HETATM   19  N3  UNL     1      23.986   4.562  50.575  1.00  0.00    -0.359 N 
HETATM   20  C7  UNL     1      24.213   4.803  49.139  1.00  0.00     0.151 C 
HETATM   21  C8  UNL     1      25.609   5.323  49.069  1.00  0.00    -0.010 C 
HETATM   22  C9  UNL     1      25.831   6.395  49.822  1.00  0.00    -0.012 C 
HETATM   23  C10 UNL     1      24.676   6.937  50.630  1.00  0.00     0.098 C 
HETATM   24 BR1  UNL     1      23.536   7.999  49.489  1.00  0.00    -0.085 Br
HETATM   25  C11 UNL     1      23.849   5.856  51.253  1.00  0.00     0.144 C 
ENDBRANCH   8  19
BRANCH   1  26
HETATM   26  O1  UNL     1      22.165  -1.536  55.357  1.00  0.00    -0.387 OA
HETATM   27  H1  UNL     1      22.725  -0.730  55.519  1.00  0.00     0.210 HD
ENDBRANCH   1  26
TORSDOF 2
ENDMDL
MODEL 6
REMARK VINA RESULT:      -8.3      3.876      7.061
REMARK  2 active torsions:
REMARK  status: ('A' for Active; 'I' for Inactive)
REMARK    1  A    between atoms: O1_1  and  C1_2 
REMARK    2  A    between atoms: C6_9  and  N3_10 
ROOT
HETATM    1  C1  UNL     1      25.941   0.134  54.523  1.00  0.00     0.171 C 
HETATM    2  C2  UNL     1      24.915   0.543  53.510  1.00  0.00     0.019 C 
HETATM    3  C3  UNL     1      25.143   1.361  52.498  1.00  0.00    -0.019 C 
HETATM    4  C4  UNL     1      23.808   1.383  51.872  1.00  0.00     0.095 A 
HETATM    5  N1  UNL     1      23.039   0.537  52.573  1.00  0.00    -0.239 NA
HETATM    6  C5  UNL     1      21.762   0.388  52.188  1.00  0.00     0.236 A 
HETATM    7  N2  UNL     1      21.218   1.053  51.126  1.00  0.00    -0.222 NA
HETATM    8  C6  UNL     1      21.989   1.918  50.405  1.00  0.00     0.156 A 
HETATM    9  C12 UNL     1      23.306   2.092  50.774  1.00  0.00     0.104 A 
HETATM   10  N4  UNL     1      23.822   3.033  49.830  1.00  0.00    -0.382 N 
HETATM   11  C13 UNL     1      24.920   3.979  49.878  1.00  0.00     0.147 C 
HETATM   12  C14 UNL     1      26.218   3.220  49.983  1.00  0.00    -0.011 C 
HETATM   13  C15 UNL     1      26.721   2.474  50.960  1.00  0.00    -0.019 C 
HETATM   14  C16 UNL     1      26.499   1.943  52.311  1.00  0.00     0.055 C 
HETATM   15  C17 UNL     1      27.469   0.797  52.597  1.00  0.00     0.052 A 
HETATM   16  C18 UNL     1      28.515   0.865  53.547  1.00  0.00    -0.010 A 
HETATM   17  C19 UNL     1      27.313   0.515  54.051  1.00  0.00    -0.042 A 
HETATM   18  H12 UNL     1      23.226   2.933  48.978  1.00  0.00     0.160 HD
ENDROOT
BRANCH   8  19
HETATM   19  N3  UNL     1      21.365   2.595  49.319  1.00  0.00    -0.359 N 
HETATM   20  C7  UNL     1      21.042   2.247  47.925  1.00  0.00     0.151 C 
HETATM   21  C8  UNL     1      22.013   3.037  47.114  1.00  0.00    -0.010 C 
HETATM   22  C9  UNL     1      21.985   4.345  47.349  1.00  0.00    -0.012 C 
HETATM   23  C10 UNL     1      21.001   4.852  48.376  1.00  0.00     0.098 C 
HETATM   24 BR1  UNL     1      19.247   4.978  47.578  1.00  0.00    -0.085 Br
HETATM   25  C11 UNL     1      20.914   3.966  49.579  1.00  0.00     0.144 C 
ENDBRANCH   8  19
BRANCH   1  26
HETATM   26  O1  UNL     1      25.900  -1.245  54.617  1.00  0.00    -0.387 OA
HETATM   27  H1  UNL     1      25.866  -1.483  55.582  1.00  0.00     0.210 HD
ENDBRANCH   1  26
TORSDOF 2
ENDMDL
MODEL 7
REMARK VINA RESULT:      -8.2      4.619      7.925
REMARK  2 active torsions:
REMARK  status: ('A' for Active; 'I' for Inactive)
REMARK    1  A    between atoms: O1_1  and  C1_2 
REMARK    2  A    between atoms: C6_9  and  N3_10 
ROOT
HETATM    1  C1  UNL     1      28.213   1.504  52.836  1.00  0.00     0.171 C 
HETATM    2  C2  UNL     1      27.161   2.109  51.957  1.00  0.00     0.019 C 
HETATM    3  C3  UNL     1      25.878   1.793  51.994  1.00  0.00    -0.019 C 
HETATM    4  C4  UNL     1      25.357   2.683  50.940  1.00  0.00     0.095 A 
HETATM    5  N1  UNL     1      26.395   3.411  50.503  1.00  0.00    -0.239 NA
HETATM    6  C5  UNL     1      26.165   4.305  49.528  1.00  0.00     0.236 A 
HETATM    7  N2  UNL     1      24.936   4.499  48.967  1.00  0.00    -0.222 NA
HETATM    8  C6  UNL     1      23.871   3.764  49.401  1.00  0.00     0.156 A 
HETATM    9  C12 UNL     1      24.075   2.839  50.403  1.00  0.00     0.104 A 
HETATM   10  N4  UNL     1      22.786   2.261  50.624  1.00  0.00    -0.382 N 
HETATM   11  C13 UNL     1      22.355   0.983  51.156  1.00  0.00     0.147 C 
HETATM   12  C14 UNL     1      22.755   0.895  52.607  1.00  0.00    -0.011 C 
HETATM   13  C15 UNL     1      23.949   0.817  53.185  1.00  0.00    -0.019 C 
HETATM   14  C16 UNL     1      25.398   0.768  52.960  1.00  0.00     0.055 C 
HETATM   15  C17 UNL     1      26.147   1.061  54.259  1.00  0.00     0.052 A 
HETATM   16  C18 UNL     1      26.924   0.106  54.957  1.00  0.00    -0.010 A 
HETATM   17  C19 UNL     1      27.573   0.745  53.961  1.00  0.00    -0.042 A 
HETATM   18  H12 UNL     1      22.096   2.982  50.314  1.00  0.00     0.160 HD
ENDROOT
BRANCH   8  19
HETATM   19  N3  UNL     1      22.618   3.998  48.769  1.00  0.00    -0.359 N 
HETATM   20  C7  UNL     1      21.776   3.252  47.818  1.00  0.00     0.151 C 
HETATM   21  C8  UNL     1      21.918   4.000  46.536  1.00  0.00    -0.010 C 
HETATM   22  C9  UNL     1      21.601   5.288  46.616  1.00  0.00    -0.012 C 
HETATM   23  C10 UNL     1      21.151   5.817  47.958  1.00  0.00     0.098 C 
HETATM   24 BR1  UNL     1      19.294   5.364  48.236  1.00  0.00    -0.085 Br
HETATM   25  C11 UNL     1      21.950   5.263  49.095  1.00  0.00     0.144 C 
ENDBRANCH   8  19
BRANCH   1  26
HETATM   26  O1  UNL     1      28.933   2.545  53.392  1.00  0.00    -0.387 OA
HETATM   27  H1  UNL     1      28.487   3.395  53.135  1.00  0.00     0.210 HD
ENDBRANCH   1  26
TORSDOF 2
ENDMDL
MODEL 8
REMARK VINA RESULT:      -8.0      4.969      7.613
REMARK  2 active torsions:
REMARK  status: ('A' for Active; 'I' for Inactive)
REMARK    1  A    between atoms: O1_1  and  C1_2 
REMARK    2  A    between atoms: C6_9  and  N3_10 
ROOT
HETATM    1  C1  UNL     1      26.816  -0.014  52.206  1.00  0.00     0.171 C 
HETATM    2  C2  UNL     1      26.337   1.230  51.522  1.00  0.00     0.019 C 
HETATM    3  C3  UNL     1      25.107   1.707  51.606  1.00  0.00    -0.019 C 
HETATM    4  C4  UNL     1      25.231   2.905  50.755  1.00  0.00     0.095 A 
HETATM    5  N1  UNL     1      26.513   2.970  50.365  1.00  0.00    -0.239 NA
HETATM    6  C5  UNL     1      26.873   3.990  49.570  1.00  0.00     0.236 A 
HETATM    7  N2  UNL     1      26.002   4.951  49.145  1.00  0.00    -0.222 NA
HETATM    8  C6  UNL     1      24.695   4.897  49.534  1.00  0.00     0.156 A 
HETATM    9  C12 UNL     1      24.293   3.863  50.352  1.00  0.00     0.104 A 
HETATM   10  N4  UNL     1      22.901   4.101  50.575  1.00  0.00    -0.382 N 
HETATM   11  C13 UNL     1      21.794   3.232  50.923  1.00  0.00     0.147 C 
HETATM   12  C14 UNL     1      22.023   2.674  52.304  1.00  0.00    -0.011 C 
HETATM   13  C15 UNL     1      22.932   1.823  52.767  1.00  0.00    -0.019 C 
HETATM   14  C16 UNL     1      24.093   0.992  52.425  1.00  0.00     0.055 C 
HETATM   15  C17 UNL     1      24.831   0.564  53.693  1.00  0.00     0.052 A 
HETATM   16  C18 UNL     1      24.889  -0.769  54.163  1.00  0.00    -0.010 A 
HETATM   17  C19 UNL     1      25.819  -0.453  53.237  1.00  0.00    -0.042 A 
HETATM   18  H12 UNL     1      22.766   5.128  50.442  1.00  0.00     0.160 HD
ENDROOT
BRANCH   8  19
HETATM   19  N3  UNL     1      23.829   5.917  49.049  1.00  0.00    -0.359 N 
HETATM   20  C7  UNL     1      22.882   6.030  47.926  1.00  0.00     0.151 C 
HETATM   21  C8  UNL     1      23.563   6.941  46.961  1.00  0.00    -0.010 C 
HETATM   22  C9  UNL     1      23.913   8.117  47.472  1.00  0.00    -0.012 C 
HETATM   23  C10 UNL     1      23.586   8.375  48.924  1.00  0.00     0.098 C 
HETATM   24 BR1  UNL     1      21.729   8.881  49.084  1.00  0.00    -0.085 Br
HETATM   25  C11 UNL     1      23.830   7.181  49.792  1.00  0.00     0.144 C 
ENDBRANCH   8  19
BRANCH   1  26
HETATM   26  O1  UNL     1      27.988   0.305  52.867  1.00  0.00    -0.387 OA
HETATM   27  H1  UNL     1      28.036   1.296  52.940  1.00  0.00     0.210 HD
ENDBRANCH   1  26
TORSDOF 2
ENDMDL
MODEL 9
REMARK VINA RESULT:      -7.9      4.189      7.848
REMARK  2 active torsions:
REMARK  status: ('A' for Active; 'I' for Inactive)
REMARK    1  A    between atoms: O1_1  and  C1_2 
REMARK    2  A    between atoms: C6_9  and  N3_10 
ROOT
HETATM    1  C1  UNL     1      26.622   1.961  51.209  1.00  0.00     0.171 C 
HETATM    2  C2  UNL     1      25.172   2.263  50.981  1.00  0.00     0.019 C 
HETATM    3  C3  UNL     1      24.172   1.657  51.598  1.00  0.00    -0.019 C 
HETATM    4  C4  UNL     1      23.025   2.353  50.985  1.00  0.00     0.095 A 
HETATM    5  N1  UNL     1      23.533   3.284  50.164  1.00  0.00    -0.239 NA
HETATM    6  C5  UNL     1      22.669   4.055  49.484  1.00  0.00     0.236 A 
HETATM    7  N2  UNL     1      21.313   3.931  49.588  1.00  0.00    -0.222 NA
HETATM    8  C6  UNL     1      20.784   2.986  50.418  1.00  0.00     0.156 A 
HETATM    9  C12 UNL     1      21.644   2.180  51.132  1.00  0.00     0.104 A 
HETATM   10  N4  UNL     1      20.787   1.326  51.893  1.00  0.00    -0.382 N 
HETATM   11  C13 UNL     1      20.965   0.007  52.469  1.00  0.00     0.147 C 
HETATM   12  C14 UNL     1      22.017   0.080  53.547  1.00  0.00    -0.011 C 
HETATM   13  C15 UNL     1      23.324   0.310  53.483  1.00  0.00    -0.019 C 
HETATM   14  C16 UNL     1      24.458   0.592  52.596  1.00  0.00     0.055 C 
HETATM   15  C17 UNL     1      25.648   1.110  53.403  1.00  0.00     0.052 A 
HETATM   16  C18 UNL     1      26.856   0.395  53.577  1.00  0.00    -0.010 A 
HETATM   17  C19 UNL     1      26.787   1.124  52.443  1.00  0.00    -0.042 A 
HETATM   18  H12 UNL     1      19.890   1.850  52.002  1.00  0.00     0.160 HD
ENDROOT
BRANCH   8  19
HETATM   19  N3  UNL     1      19.365   2.892  50.474  1.00  0.00    -0.359 N 
HETATM   20  C7  UNL     1      18.353   2.040  49.827  1.00  0.00     0.151 C 
HETATM   21  C8  UNL     1      17.684   2.944  48.847  1.00  0.00    -0.010 C 
HETATM   22  C9  UNL     1      17.175   4.050  49.381  1.00  0.00    -0.012 C 
HETATM   23  C10 UNL     1      17.333   4.245  50.870  1.00  0.00     0.098 C 
HETATM   24 BR1  UNL     1      15.997   3.206  51.800  1.00  0.00    -0.085 Br
HETATM   25  C11 UNL     1      18.684   3.836  51.367  1.00  0.00     0.144 C 
ENDBRANCH   8  19
BRANCH   1  26
HETATM   26  O1  UNL     1      27.263   3.166  51.434  1.00  0.00    -0.387 OA
HETATM   27  H1  UNL     1      27.615   3.490  50.562  1.00  0.00     0.210 HD
ENDBRANCH   1  26
TORSDOF 2
ENDMDL
