MODEL 1
REMARK VINA RESULT:      -7.1      0.000      0.000
REMARK  6 active torsions:
REMARK  status: ('A' for Active; 'I' for Inactive)
REMARK    1  A    between atoms: O1_2  and  C2_3 
REMARK    2  A    between atoms: C6_9  and  N3_10 
REMARK    3  A    between atoms: N3_10  and  C7_11 
REMARK    4  A    between atoms: C7_11  and  N4_14 
REMARK    5  A    between atoms: N4_14  and  P1_15 
REMARK    6  A    between atoms: C13_20  and  O2_21 
ROOT
HETATM    1  C2  UNL     1      20.164  -0.371  53.112  1.00  0.00     0.103 A 
HETATM    2  C3  UNL     1      20.789  -0.921  54.202  1.00  0.00     0.072 A 
HETATM    3  C4  UNL     1      22.182  -0.845  54.278  1.00  0.00     0.075 A 
HETATM    4  N1  UNL     1      22.729  -1.402  55.375  1.00  0.00    -0.241 NA
HETATM    5  C5  UNL     1      24.077  -1.377  55.545  1.00  0.00     0.236 A 
HETATM    6  N2  UNL     1      24.861  -0.786  54.600  1.00  0.00    -0.223 NA
HETATM    7  C6  UNL     1      24.309  -0.232  53.508  1.00  0.00     0.143 A 
HETATM    8  C11 UNL     1      22.942  -0.226  53.280  1.00  0.00     0.042 A 
HETATM    9  C12 UNL     1      22.316   0.327  52.186  1.00  0.00     0.057 A 
HETATM   10  C13 UNL     1      20.940   0.241  52.127  1.00  0.00     0.102 A 
ENDROOT
BRANCH   7  11
HETATM   11  N3  UNL     1      25.147   0.403  52.522  1.00  0.00    -0.326 N 
HETATM   12  H6  UNL     1      25.345   0.294  51.489  1.00  0.00     0.169 HD
BRANCH  11  13
HETATM   13  C7  UNL     1      25.832   1.422  53.275  1.00  0.00     0.141 C 
HETATM   14  C8  UNL     1      25.241   2.596  53.558  1.00  0.00     0.493 C 
HETATM   15  F1  UNL     1      24.117   3.348  53.422  1.00  0.00    -0.449 F 
BRANCH  13  16
HETATM   16  N4  UNL     1      26.916   2.005  53.995  1.00  0.00    -0.240 NA
BRANCH  16  17
HETATM   17  P1  UNL     1      28.288   1.173  54.057  1.00  0.00     0.048 P 
HETATM   18  C9  UNL     1      28.811  -0.142  54.820  1.00  0.00     0.063 A 
HETATM   19  C10 UNL     1      29.425  -0.045  53.432  1.00  0.00     0.024 A 
ENDBRANCH  16  17
ENDBRANCH  13  16
ENDBRANCH  11  13
ENDBRANCH   7  11
BRANCH  10  20
HETATM   20  O2  UNL     1      20.234   0.762  51.077  1.00  0.00    -0.353 OA
HETATM   21  C14 UNL     1      20.726   1.074  49.809  1.00  0.00     0.210 C 
ENDBRANCH  10  20
BRANCH   1  22
HETATM   22  O1  UNL     1      18.779  -0.441  53.030  1.00  0.00    -0.353 OA
HETATM   23  C1  UNL     1      18.108  -1.610  53.426  1.00  0.00     0.210 C 
ENDBRANCH   1  22
TORSDOF 6
ENDMDL
MODEL 2
REMARK VINA RESULT:      -6.8      4.037      5.831
REMARK  6 active torsions:
REMARK  status: ('A' for Active; 'I' for Inactive)
REMARK    1  A    between atoms: O1_2  and  C2_3 
REMARK    2  A    between atoms: C6_9  and  N3_10 
REMARK    3  A    between atoms: N3_10  and  C7_11 
REMARK    4  A    between atoms: C7_11  and  N4_14 
REMARK    5  A    between atoms: N4_14  and  P1_15 
REMARK    6  A    between atoms: C13_20  and  O2_21 
ROOT
HETATM    1  C2  UNL     1      25.926   0.180  53.554  1.00  0.00     0.103 A 
HETATM    2  C3  UNL     1      24.689  -0.033  53.002  1.00  0.00     0.072 A 
HETATM    3  C4  UNL     1      23.891   1.077  52.712  1.00  0.00     0.075 A 
HETATM    4  N1  UNL     1      22.691   0.796  52.170  1.00  0.00    -0.241 NA
HETATM    5  C5  UNL     1      21.841   1.807  51.848  1.00  0.00     0.236 A 
HETATM    6  N2  UNL     1      22.216   3.097  52.078  1.00  0.00    -0.223 NA
HETATM    7  C6  UNL     1      23.414   3.370  52.620  1.00  0.00     0.143 A 
HETATM    8  C11 UNL     1      24.323   2.382  52.968  1.00  0.00     0.042 A 
HETATM    9  C12 UNL     1      25.564   2.597  53.521  1.00  0.00     0.057 A 
HETATM   10  C13 UNL     1      26.339   1.489  53.802  1.00  0.00     0.102 A 
ENDROOT
BRANCH   7  11
HETATM   11  N3  UNL     1      23.807   4.738  52.846  1.00  0.00    -0.326 N 
HETATM   12  H6  UNL     1      24.051   5.346  53.676  1.00  0.00     0.169 HD
BRANCH  11  13
HETATM   13  C7  UNL     1      23.827   5.302  51.520  1.00  0.00     0.141 C 
HETATM   14  C8  UNL     1      22.856   6.129  51.099  1.00  0.00     0.493 C 
HETATM   15  F1  UNL     1      21.693   6.754  51.426  1.00  0.00    -0.449 F 
BRANCH  13  16
HETATM   16  N4  UNL     1      24.338   5.533  50.209  1.00  0.00    -0.240 NA
BRANCH  16  17
HETATM   17  P1  UNL     1      25.353   4.442  49.614  1.00  0.00     0.048 P 
HETATM   18  C9  UNL     1      26.881   4.433  49.114  1.00  0.00     0.063 A 
HETATM   19  C10 UNL     1      26.529   3.117  49.791  1.00  0.00     0.024 A 
ENDBRANCH  16  17
ENDBRANCH  13  16
ENDBRANCH  11  13
ENDBRANCH   7  11
BRANCH  10  20
HETATM   20  O2  UNL     1      27.585   1.608  54.353  1.00  0.00    -0.353 OA
HETATM   21  C14 UNL     1      28.739   2.074  53.723  1.00  0.00     0.210 C 
ENDBRANCH  10  20
BRANCH   1  22
HETATM   22  O1  UNL     1      26.726  -0.918  53.843  1.00  0.00    -0.353 OA
HETATM   23  C1  UNL     1      27.095  -1.811  52.822  1.00  0.00     0.210 C 
ENDBRANCH   1  22
TORSDOF 6
ENDMDL
MODEL 3
REMARK VINA RESULT:      -6.5      3.971      6.996
REMARK  6 active torsions:
REMARK  status: ('A' for Active; 'I' for Inactive)
REMARK    1  A    between atoms: O1_2  and  C2_3 
REMARK    2  A    between atoms: C6_9  and  N3_10 
REMARK    3  A    between atoms: N3_10  and  C7_11 
REMARK    4  A    between atoms: C7_11  and  N4_14 
REMARK    5  A    between atoms: N4_14  and  P1_15 
REMARK    6  A    between atoms: C13_20  and  O2_21 
ROOT
HETATM    1  C2  UNL     1      26.417   1.383  53.833  1.00  0.00     0.103 A 
HETATM    2  C3  UNL     1      25.614   2.460  53.559  1.00  0.00     0.072 A 
HETATM    3  C4  UNL     1      24.330   2.222  53.059  1.00  0.00     0.075 A 
HETATM    4  N1  UNL     1      23.595   3.323  52.815  1.00  0.00    -0.241 NA
HETATM    5  C5  UNL     1      22.331   3.198  52.331  1.00  0.00     0.236 A 
HETATM    6  N2  UNL     1      21.821   1.956  52.100  1.00  0.00    -0.223 NA
HETATM    7  C6  UNL     1      22.560   0.862  52.345  1.00  0.00     0.143 A 
HETATM    8  C11 UNL     1      23.854   0.926  52.839  1.00  0.00     0.042 A 
HETATM    9  C12 UNL     1      24.659  -0.156  53.114  1.00  0.00     0.057 A 
HETATM   10  C13 UNL     1      25.924   0.098  53.605  1.00  0.00     0.102 A 
ENDROOT
BRANCH   7  11
HETATM   11  N3  UNL     1      22.007  -0.448  52.110  1.00  0.00    -0.326 N 
HETATM   12  H6  UNL     1      22.205  -1.270  51.474  1.00  0.00     0.169 HD
BRANCH  11  13
HETATM   13  C7  UNL     1      20.911  -0.519  53.043  1.00  0.00     0.141 C 
HETATM   14  C8  UNL     1      21.123  -0.746  54.351  1.00  0.00     0.493 C 
HETATM   15  F1  UNL     1      22.055  -0.973  55.314  1.00  0.00    -0.449 F 
BRANCH  13  16
HETATM   16  N4  UNL     1      19.547  -0.487  53.458  1.00  0.00    -0.240 NA
BRANCH  16  17
HETATM   17  P1  UNL     1      18.448  -0.143  52.341  1.00  0.00     0.048 P 
HETATM   18  C9  UNL     1      18.061   1.140  51.453  1.00  0.00     0.063 A 
HETATM   19  C10 UNL     1      17.845  -0.143  50.666  1.00  0.00     0.024 A 
ENDBRANCH  16  17
ENDBRANCH  13  16
ENDBRANCH  11  13
ENDBRANCH   7  11
BRANCH  10  20
HETATM   20  O2  UNL     1      26.793  -0.915  53.906  1.00  0.00    -0.353 OA
HETATM   21  C14 UNL     1      27.375  -1.813  53.011  1.00  0.00     0.210 C 
ENDBRANCH  10  20
BRANCH   1  22
HETATM   22  O1  UNL     1      27.693   1.611  54.330  1.00  0.00    -0.353 OA
HETATM   23  C1  UNL     1      28.669   2.218  53.520  1.00  0.00     0.210 C 
ENDBRANCH   1  22
TORSDOF 6
ENDMDL
MODEL 4
REMARK VINA RESULT:      -6.4      3.957      6.451
REMARK  6 active torsions:
REMARK  status: ('A' for Active; 'I' for Inactive)
REMARK    1  A    between atoms: O1_2  and  C2_3 
REMARK    2  A    between atoms: C6_9  and  N3_10 
REMARK    3  A    between atoms: N3_10  and  C7_11 
REMARK    4  A    between atoms: C7_11  and  N4_14 
REMARK    5  A    between atoms: N4_14  and  P1_15 
REMARK    6  A    between atoms: C13_20  and  O2_21 
ROOT
HETATM    1  C2  UNL     1      27.322  -0.353  53.595  1.00  0.00     0.103 A 
HETATM    2  C3  UNL     1      26.022  -0.787  53.552  1.00  0.00     0.072 A 
HETATM    3  C4  UNL     1      25.024   0.137  53.230  1.00  0.00     0.075 A 
HETATM    4  N1  UNL     1      23.772  -0.356  53.203  1.00  0.00    -0.241 NA
HETATM    5  C5  UNL     1      22.729   0.461  52.897  1.00  0.00     0.236 A 
HETATM    6  N2  UNL     1      22.966   1.774  52.618  1.00  0.00    -0.223 NA
HETATM    7  C6  UNL     1      24.218   2.259  52.648  1.00  0.00     0.143 A 
HETATM    8  C11 UNL     1      25.320   1.475  52.952  1.00  0.00     0.042 A 
HETATM    9  C12 UNL     1      26.625   1.911  52.995  1.00  0.00     0.057 A 
HETATM   10  C13 UNL     1      27.597   0.986  53.316  1.00  0.00     0.102 A 
ENDROOT
BRANCH   7  11
HETATM   11  N3  UNL     1      24.459   3.646  52.338  1.00  0.00    -0.326 N 
HETATM   12  H6  UNL     1      24.789   4.508  52.854  1.00  0.00     0.169 HD
BRANCH  11  13
HETATM   13  C7  UNL     1      24.120   3.739  50.941  1.00  0.00     0.141 C 
HETATM   14  C8  UNL     1      24.979   3.340  49.987  1.00  0.00     0.493 C 
HETATM   15  F1  UNL     1      26.205   2.813  49.730  1.00  0.00    -0.449 F 
BRANCH  13  16
HETATM   16  N4  UNL     1      23.300   4.047  49.815  1.00  0.00    -0.240 NA
BRANCH  16  17
HETATM   17  P1  UNL     1      22.309   2.898  49.293  1.00  0.00     0.048 P 
HETATM   18  C9  UNL     1      22.218   1.946  48.000  1.00  0.00     0.063 A 
HETATM   19  C10 UNL     1      21.731   1.215  49.241  1.00  0.00     0.024 A 
ENDBRANCH  16  17
ENDBRANCH  13  16
ENDBRANCH  11  13
ENDBRANCH   7  11
BRANCH  10  20
HETATM   20  O2  UNL     1      28.919   1.330  53.382  1.00  0.00    -0.353 OA
HETATM   21  C14 UNL     1      29.544   2.069  54.387  1.00  0.00     0.210 C 
ENDBRANCH  10  20
BRANCH   1  22
HETATM   22  O1  UNL     1      28.320  -1.266  53.913  1.00  0.00    -0.353 OA
HETATM   23  C1  UNL     1      28.605  -2.331  53.042  1.00  0.00     0.210 C 
ENDBRANCH   1  22
TORSDOF 6
ENDMDL
MODEL 5
REMARK VINA RESULT:      -6.4      4.048      6.746
REMARK  6 active torsions:
REMARK  status: ('A' for Active; 'I' for Inactive)
REMARK    1  A    between atoms: O1_2  and  C2_3 
REMARK    2  A    between atoms: C6_9  and  N3_10 
REMARK    3  A    between atoms: N3_10  and  C7_11 
REMARK    4  A    between atoms: C7_11  and  N4_14 
REMARK    5  A    between atoms: N4_14  and  P1_15 
REMARK    6  A    between atoms: C13_20  and  O2_21 
ROOT
HETATM    1  C2  UNL     1      26.864   0.078  53.729  1.00  0.00     0.103 A 
HETATM    2  C3  UNL     1      27.303   0.973  52.788  1.00  0.00     0.072 A 
HETATM    3  C4  UNL     1      26.356   1.602  51.976  1.00  0.00     0.075 A 
HETATM    4  N1  UNL     1      26.855   2.470  51.077  1.00  0.00    -0.241 NA
HETATM    5  C5  UNL     1      26.015   3.136  50.241  1.00  0.00     0.236 A 
HETATM    6  N2  UNL     1      24.672   2.917  50.326  1.00  0.00    -0.223 NA
HETATM    7  C6  UNL     1      24.181   2.049  51.225  1.00  0.00     0.143 A 
HETATM    8  C11 UNL     1      24.987   1.341  52.103  1.00  0.00     0.042 A 
HETATM    9  C12 UNL     1      24.546   0.443  53.048  1.00  0.00     0.057 A 
HETATM   10  C13 UNL     1      25.496  -0.169  53.840  1.00  0.00     0.102 A 
ENDROOT
BRANCH   7  11
HETATM   11  N3  UNL     1      22.758   1.835  51.316  1.00  0.00    -0.326 N 
HETATM   12  H6  UNL     1      22.073   1.072  51.060  1.00  0.00     0.169 HD
BRANCH  11  13
HETATM   13  C7  UNL     1      22.277   3.048  51.926  1.00  0.00     0.141 C 
HETATM   14  C8  UNL     1      21.041   3.124  52.448  1.00  0.00     0.493 C 
HETATM   15  F1  UNL     1      19.879   2.459  52.682  1.00  0.00    -0.449 F 
BRANCH  13  16
HETATM   16  N4  UNL     1      22.345   4.404  52.363  1.00  0.00    -0.240 NA
BRANCH  16  17
HETATM   17  P1  UNL     1      22.105   5.544  51.258  1.00  0.00     0.048 P 
HETATM   18  C9  UNL     1      20.906   5.970  50.276  1.00  0.00     0.063 A 
HETATM   19  C10 UNL     1      21.663   7.196  50.764  1.00  0.00     0.024 A 
ENDBRANCH  16  17
ENDBRANCH  13  16
ENDBRANCH  11  13
ENDBRANCH   7  11
BRANCH  10  20
HETATM   20  O2  UNL     1      25.149  -1.076  54.804  1.00  0.00    -0.353 OA
HETATM   21  C14 UNL     1      23.883  -1.263  55.362  1.00  0.00     0.210 C 
ENDBRANCH  10  20
BRANCH   1  22
HETATM   22  O1  UNL     1      27.800  -0.550  54.542  1.00  0.00    -0.353 OA
HETATM   23  C1  UNL     1      29.158  -0.194  54.459  1.00  0.00     0.210 C 
ENDBRANCH   1  22
TORSDOF 6
ENDMDL
MODEL 6
REMARK VINA RESULT:      -6.3      3.733      6.494
REMARK  6 active torsions:
REMARK  status: ('A' for Active; 'I' for Inactive)
REMARK    1  A    between atoms: O1_2  and  C2_3 
REMARK    2  A    between atoms: C6_9  and  N3_10 
REMARK    3  A    between atoms: N3_10  and  C7_11 
REMARK    4  A    between atoms: C7_11  and  N4_14 
REMARK    5  A    between atoms: N4_14  and  P1_15 
REMARK    6  A    between atoms: C13_20  and  O2_21 
ROOT
HETATM    1  C2  UNL     1      26.007   0.169  52.676  1.00  0.00     0.103 A 
HETATM    2  C3  UNL     1      25.288  -0.564  53.584  1.00  0.00     0.072 A 
HETATM    3  C4  UNL     1      23.924  -0.295  53.725  1.00  0.00     0.075 A 
HETATM    4  N1  UNL     1      23.279  -1.052  54.631  1.00  0.00    -0.241 NA
HETATM    5  C5  UNL     1      21.949  -0.871  54.840  1.00  0.00     0.236 A 
HETATM    6  N2  UNL     1      21.281   0.078  54.126  1.00  0.00    -0.223 NA
HETATM    7  C6  UNL     1      21.931   0.831  53.223  1.00  0.00     0.143 A 
HETATM    8  C11 UNL     1      23.286   0.692  52.966  1.00  0.00     0.042 A 
HETATM    9  C12 UNL     1      24.007   1.428  52.053  1.00  0.00     0.057 A 
HETATM   10  C13 UNL     1      25.353   1.149  51.929  1.00  0.00     0.102 A 
ENDROOT
BRANCH   7  11
HETATM   11  N3  UNL     1      21.213   1.823  52.463  1.00  0.00    -0.326 N 
HETATM   12  H6  UNL     1      21.158   2.878  52.424  1.00  0.00     0.169 HD
BRANCH  11  13
HETATM   13  C7  UNL     1      20.399   1.035  51.572  1.00  0.00     0.141 C 
HETATM   14  C8  UNL     1      20.853   0.656  50.365  1.00  0.00     0.493 C 
HETATM   15  F1  UNL     1      21.894   0.702  49.492  1.00  0.00    -0.449 F 
BRANCH  13  16
HETATM   16  N4  UNL     1      19.237   0.321  51.155  1.00  0.00    -0.240 NA
BRANCH  16  17
HETATM   17  P1  UNL     1      18.321  -0.325  52.304  1.00  0.00     0.048 P 
HETATM   18  C9  UNL     1      16.923  -1.118  52.361  1.00  0.00     0.063 A 
HETATM   19  C10 UNL     1      17.882  -1.638  53.421  1.00  0.00     0.024 A 
ENDBRANCH  16  17
ENDBRANCH  13  16
ENDBRANCH  11  13
ENDBRANCH   7  11
BRANCH  10  20
HETATM   20  O2  UNL     1      26.147   1.831  51.048  1.00  0.00    -0.353 OA
HETATM   21  C14 UNL     1      26.199   3.213  50.862  1.00  0.00     0.210 C 
ENDBRANCH  10  20
BRANCH   1  22
HETATM   22  O1  UNL     1      27.363  -0.094  52.529  1.00  0.00    -0.353 OA
HETATM   23  C1  UNL     1      28.117  -0.546  53.626  1.00  0.00     0.210 C 
ENDBRANCH   1  22
TORSDOF 6
ENDMDL
MODEL 7
REMARK VINA RESULT:      -6.2      4.372      6.256
REMARK  6 active torsions:
REMARK  status: ('A' for Active; 'I' for Inactive)
REMARK    1  A    between atoms: O1_2  and  C2_3 
REMARK    2  A    between atoms: C6_9  and  N3_10 
REMARK    3  A    between atoms: N3_10  and  C7_11 
REMARK    4  A    between atoms: C7_11  and  N4_14 
REMARK    5  A    between atoms: N4_14  and  P1_15 
REMARK    6  A    between atoms: C13_20  and  O2_21 
ROOT
HETATM    1  C2  UNL     1      25.731   0.054  53.597  1.00  0.00     0.103 A 
HETATM    2  C3  UNL     1      24.475  -0.098  53.069  1.00  0.00     0.072 A 
HETATM    3  C4  UNL     1      23.741   1.049  52.758  1.00  0.00     0.075 A 
HETATM    4  N1  UNL     1      22.518   0.827  52.241  1.00  0.00    -0.241 NA
HETATM    5  C5  UNL     1      21.727   1.879  51.901  1.00  0.00     0.236 A 
HETATM    6  N2  UNL     1      22.183   3.149  52.088  1.00  0.00    -0.223 NA
HETATM    7  C6  UNL     1      23.404   3.364  52.605  1.00  0.00     0.143 A 
HETATM    8  C11 UNL     1      24.256   2.333  52.969  1.00  0.00     0.042 A 
HETATM    9  C12 UNL     1      25.517   2.487  53.498  1.00  0.00     0.057 A 
HETATM   10  C13 UNL     1      26.227   1.342  53.801  1.00  0.00     0.102 A 
ENDROOT
BRANCH   7  11
HETATM   11  N3  UNL     1      23.883   4.711  52.785  1.00  0.00    -0.326 N 
HETATM   12  H6  UNL     1      24.143   5.338  53.596  1.00  0.00     0.169 HD
BRANCH  11  13
HETATM   13  C7  UNL     1      23.982   5.212  51.438  1.00  0.00     0.141 C 
HETATM   14  C8  UNL     1      24.872   4.704  50.568  1.00  0.00     0.493 C 
HETATM   15  F1  UNL     1      25.864   3.794  50.382  1.00  0.00    -0.449 F 
BRANCH  13  16
HETATM   16  N4  UNL     1      23.649   6.043  50.327  1.00  0.00    -0.240 NA
BRANCH  16  17
HETATM   17  P1  UNL     1      24.762   7.090  49.835  1.00  0.00     0.048 P 
HETATM   18  C9  UNL     1      24.918   8.690  49.814  1.00  0.00     0.063 A 
HETATM   19  C10 UNL     1      26.262   8.021  50.059  1.00  0.00     0.024 A 
ENDBRANCH  16  17
ENDBRANCH  13  16
ENDBRANCH  11  13
ENDBRANCH   7  11
BRANCH  10  20
HETATM   20  O2  UNL     1      27.487   1.399  54.331  1.00  0.00    -0.353 OA
HETATM   21  C14 UNL     1      28.630   1.916  53.720  1.00  0.00     0.210 C 
ENDBRANCH  10  20
BRANCH   1  22
HETATM   22  O1  UNL     1      26.467  -1.083  53.907  1.00  0.00    -0.353 OA
HETATM   23  C1  UNL     1      27.079  -1.828  52.885  1.00  0.00     0.210 C 
ENDBRANCH   1  22
TORSDOF 6
ENDMDL
MODEL 8
REMARK VINA RESULT:      -6.1      3.613      5.735
REMARK  6 active torsions:
REMARK  status: ('A' for Active; 'I' for Inactive)
REMARK    1  A    between atoms: O1_2  and  C2_3 
REMARK    2  A    between atoms: C6_9  and  N3_10 
REMARK    3  A    between atoms: N3_10  and  C7_11 
REMARK    4  A    between atoms: C7_11  and  N4_14 
REMARK    5  A    between atoms: N4_14  and  P1_15 
REMARK    6  A    between atoms: C13_20  and  O2_21 
ROOT
HETATM    1  C2  UNL     1      26.376   0.646  54.152  1.00  0.00     0.103 A 
HETATM    2  C3  UNL     1      25.576  -0.172  54.907  1.00  0.00     0.072 A 
HETATM    3  C4  UNL     1      24.296  -0.472  54.434  1.00  0.00     0.075 A 
HETATM    4  N1  UNL     1      23.566  -1.281  55.224  1.00  0.00    -0.241 NA
HETATM    5  C5  UNL     1      22.308  -1.636  54.850  1.00  0.00     0.236 A 
HETATM    6  N2  UNL     1      21.800  -1.166  53.676  1.00  0.00    -0.223 NA
HETATM    7  C6  UNL     1      22.533  -0.358  52.893  1.00  0.00     0.143 A 
HETATM    8  C11 UNL     1      23.821   0.037  53.221  1.00  0.00     0.042 A 
HETATM    9  C12 UNL     1      24.624   0.858  52.461  1.00  0.00     0.057 A 
HETATM   10  C13 UNL     1      25.884   1.144  52.945  1.00  0.00     0.102 A 
ENDROOT
BRANCH   7  11
HETATM   11  N3  UNL     1      21.992   0.123  51.647  1.00  0.00    -0.326 N 
HETATM   12  H6  UNL     1      22.058  -0.135  50.624  1.00  0.00     0.169 HD
BRANCH  11  13
HETATM   13  C7  UNL     1      21.177   1.241  52.048  1.00  0.00     0.141 C 
HETATM   14  C8  UNL     1      19.836   1.191  51.967  1.00  0.00     0.493 C 
HETATM   15  F1  UNL     1      18.760   0.436  51.619  1.00  0.00    -0.449 F 
BRANCH  13  16
HETATM   16  N4  UNL     1      20.913   2.551  52.547  1.00  0.00    -0.240 NA
BRANCH  16  17
HETATM   17  P1  UNL     1      21.840   3.743  52.005  1.00  0.00     0.048 P 
HETATM   18  C9  UNL     1      23.188   4.474  52.488  1.00  0.00     0.063 A 
HETATM   19  C10 UNL     1      23.137   4.390  50.971  1.00  0.00     0.024 A 
ENDBRANCH  16  17
ENDBRANCH  13  16
ENDBRANCH  11  13
ENDBRANCH   7  11
BRANCH  10  20
HETATM   20  O2  UNL     1      26.749   1.951  52.258  1.00  0.00    -0.353 OA
HETATM   21  C14 UNL     1      26.497   2.623  51.061  1.00  0.00     0.210 C 
ENDBRANCH  10  20
BRANCH   1  22
HETATM   22  O1  UNL     1      27.651   0.947  54.615  1.00  0.00    -0.353 OA
HETATM   23  C1  UNL     1      28.652  -0.040  54.616  1.00  0.00     0.210 C 
ENDBRANCH   1  22
TORSDOF 6
ENDMDL
MODEL 9
REMARK VINA RESULT:      -6.0      4.158      6.419
REMARK  6 active torsions:
REMARK  status: ('A' for Active; 'I' for Inactive)
REMARK    1  A    between atoms: O1_2  and  C2_3 
REMARK    2  A    between atoms: C6_9  and  N3_10 
REMARK    3  A    between atoms: N3_10  and  C7_11 
REMARK    4  A    between atoms: C7_11  and  N4_14 
REMARK    5  A    between atoms: N4_14  and  P1_15 
REMARK    6  A    between atoms: C13_20  and  O2_21 
ROOT
HETATM    1  C2  UNL     1      27.008   1.639  52.493  1.00  0.00     0.103 A 
HETATM    2  C3  UNL     1      26.337   0.760  53.303  1.00  0.00     0.072 A 
HETATM    3  C4  UNL     1      24.964   0.592  53.108  1.00  0.00     0.075 A 
HETATM    4  N1  UNL     1      24.369  -0.288  53.935  1.00  0.00    -0.241 NA
HETATM    5  C5  UNL     1      23.035  -0.526  53.824  1.00  0.00     0.236 A 
HETATM    6  N2  UNL     1      22.314   0.130  52.871  1.00  0.00    -0.223 NA
HETATM    7  C6  UNL     1      22.914   1.007  52.049  1.00  0.00     0.143 A 
HETATM    8  C11 UNL     1      24.269   1.290  52.114  1.00  0.00     0.042 A 
HETATM    9  C12 UNL     1      24.942   2.172  51.300  1.00  0.00     0.057 A 
HETATM   10  C13 UNL     1      26.298   2.327  51.509  1.00  0.00     0.102 A 
ENDROOT
BRANCH   7  11
HETATM   11  N3  UNL     1      22.145   1.685  51.035  1.00  0.00    -0.326 N 
HETATM   12  H6  UNL     1      21.870   1.514  50.029  1.00  0.00     0.169 HD
BRANCH  11  13
HETATM   13  C7  UNL     1      21.705   2.885  51.700  1.00  0.00     0.141 C 
HETATM   14  C8  UNL     1      20.449   3.004  52.163  1.00  0.00     0.493 C 
HETATM   15  F1  UNL     1      19.238   2.399  52.294  1.00  0.00    -0.449 F 
BRANCH  13  16
HETATM   16  N4  UNL     1      21.828   4.204  52.229  1.00  0.00    -0.240 NA
BRANCH  16  17
HETATM   17  P1  UNL     1      22.049   5.398  51.180  1.00  0.00     0.048 P 
HETATM   18  C9  UNL     1      21.108   6.438  50.395  1.00  0.00     0.063 A 
HETATM   19  C10 UNL     1      22.432   7.086  50.767  1.00  0.00     0.024 A 
ENDBRANCH  16  17
ENDBRANCH  13  16
ENDBRANCH  11  13
ENDBRANCH   7  11
BRANCH  10  20
HETATM   20  O2  UNL     1      27.047   3.183  50.748  1.00  0.00    -0.353 OA
HETATM   21  C14 UNL     1      26.637   3.857  49.597  1.00  0.00     0.210 C 
ENDBRANCH  10  20
BRANCH   1  22
HETATM   22  O1  UNL     1      28.373   1.811  52.681  1.00  0.00    -0.353 OA
HETATM   23  C1  UNL     1      29.025   1.170  53.747  1.00  0.00     0.210 C 
ENDBRANCH   1  22
TORSDOF 6
ENDMDL
