MODEL 1
REMARK VINA RESULT:      -8.3      0.000      0.000
REMARK  4 active torsions:
REMARK  status: ('A' for Active; 'I' for Inactive)
REMARK    1  A    between atoms: N1_1  and  C1_2 
REMARK    2  A    between atoms: C8_9  and  O1_10 
REMARK    3  A    between atoms: O1_10  and  C9_11 
REMARK    4  A    between atoms: N3_18  and  N4_19 
ROOT
HETATM    1  C1  UNL     1      27.262  -1.186  53.059  1.00  0.00     0.123 C 
HETATM    2  C2  UNL     1      26.036  -1.496  52.659  1.00  0.00     0.064 C 
HETATM    3  C3  UNL     1      25.540  -0.148  52.546  1.00  0.00     0.002 A 
HETATM    4  C4  UNL     1      26.126   0.736  51.673  1.00  0.00     0.027 A 
HETATM    5  C5  UNL     1      25.631   2.018  51.716  1.00  0.00    -0.016 A 
HETATM    6  C6  UNL     1      24.615   2.402  52.559  1.00  0.00     0.016 A 
HETATM    7  C7  UNL     1      24.039   1.465  53.434  1.00  0.00     0.038 A 
HETATM    8  C8  UNL     1      24.523   0.136  53.429  1.00  0.00     0.080 A 
HETATM    9  C14 UNL     1      26.456   2.851  50.828  1.00  0.00     0.151 C 
HETATM   10  N2  UNL     1      27.581   2.904  51.508  1.00  0.00    -0.167 NA
HETATM   11  N3  UNL     1      27.782   2.278  52.738  1.00  0.00    -0.192 N 
HETATM   12  C15 UNL     1      28.323   1.013  53.232  1.00  0.00     0.251 C 
HETATM   13  N5  UNL     1      28.185  -0.231  53.372  1.00  0.00    -0.224 NA
ENDROOT
BRANCH   8  14
HETATM   14  O1  UNL     1      23.836  -0.561  54.332  1.00  0.00    -0.337 OA
BRANCH  14  15
HETATM   15  C9  UNL     1      22.640  -1.218  54.264  1.00  0.00     0.174 A 
HETATM   16  C10 UNL     1      22.119  -0.993  52.849  1.00  0.00     0.009 A 
HETATM   17  C11 UNL     1      21.019  -0.270  52.864  1.00  0.00    -0.001 A 
HETATM   18  C12 UNL     1      20.652   0.084  54.229  1.00  0.00    -0.001 A 
HETATM   19  C13 UNL     1      21.573  -0.457  55.002  1.00  0.00     0.009 A 
ENDBRANCH  14  15
ENDBRANCH   8  14
BRANCH   1  20
HETATM   20  N1  UNL     1      27.692  -2.548  53.152  1.00  0.00    -0.384 N 
HETATM   21  H1  UNL     1      28.420  -3.024  53.744  1.00  0.00     0.157 HD
HETATM   22  H2  UNL     1      27.114  -3.108  52.461  1.00  0.00     0.157 HD
ENDBRANCH   1  20
BRANCH  11  23
HETATM   23  N4  UNL     1      27.579   2.554  54.121  1.00  0.00    -0.225 NA
HETATM   24  H13 UNL     1      27.227   3.524  54.284  1.00  0.00     0.145 HD
HETATM   25  H14 UNL     1      28.480   2.397  54.664  1.00  0.00     0.145 HD
ENDBRANCH  11  23
TORSDOF 4
ENDMDL
MODEL 2
REMARK VINA RESULT:      -7.9      3.480      5.562
REMARK  4 active torsions:
REMARK  status: ('A' for Active; 'I' for Inactive)
REMARK    1  A    between atoms: N1_1  and  C1_2 
REMARK    2  A    between atoms: C8_9  and  O1_10 
REMARK    3  A    between atoms: O1_10  and  C9_11 
REMARK    4  A    between atoms: N3_18  and  N4_19 
ROOT
HETATM    1  C1  UNL     1      24.056   3.600  51.345  1.00  0.00     0.123 C 
HETATM    2  C2  UNL     1      24.705   2.446  51.264  1.00  0.00     0.064 C 
HETATM    3  C3  UNL     1      23.563   1.586  51.437  1.00  0.00     0.002 A 
HETATM    4  C4  UNL     1      22.525   1.622  50.538  1.00  0.00     0.027 A 
HETATM    5  C5  UNL     1      21.448   0.827  50.854  1.00  0.00    -0.016 A 
HETATM    6  C6  UNL     1      21.402   0.038  51.978  1.00  0.00     0.016 A 
HETATM    7  C7  UNL     1      22.488   0.026  52.870  1.00  0.00     0.038 A 
HETATM    8  C8  UNL     1      23.614   0.835  52.589  1.00  0.00     0.080 A 
HETATM    9  C14 UNL     1      20.387   1.092  49.870  1.00  0.00     0.151 C 
HETATM   10  N2  UNL     1      20.019   2.306  50.218  1.00  0.00    -0.167 NA
HETATM   11  N3  UNL     1      20.586   3.023  51.272  1.00  0.00    -0.192 N 
HETATM   12  C15 UNL     1      21.645   4.013  51.459  1.00  0.00     0.251 C 
HETATM   13  N5  UNL     1      22.878   4.272  51.496  1.00  0.00    -0.224 NA
ENDROOT
BRANCH   8  14
HETATM   14  O1  UNL     1      24.504   0.663  53.565  1.00  0.00    -0.337 OA
BRANCH  14  15
HETATM   15  C9  UNL     1      25.302  -0.394  53.898  1.00  0.00     0.174 A 
HETATM   16  C10 UNL     1      26.428   0.183  54.748  1.00  0.00     0.009 A 
HETATM   17  C11 UNL     1      27.586   0.068  54.133  1.00  0.00    -0.001 A 
HETATM   18  C12 UNL     1      27.421  -0.574  52.835  1.00  0.00    -0.001 A 
HETATM   19  C13 UNL     1      26.132  -0.826  52.720  1.00  0.00     0.009 A 
ENDBRANCH  14  15
ENDBRANCH   8  14
BRANCH   1  20
HETATM   20  N1  UNL     1      25.230   4.397  51.170  1.00  0.00    -0.384 N 
HETATM   21  H1  UNL     1      25.557   5.018  50.386  1.00  0.00     0.157 HD
HETATM   22  H2  UNL     1      25.824   4.279  52.042  1.00  0.00     0.157 HD
ENDBRANCH   1  20
BRANCH  11  23
HETATM   23  N4  UNL     1      20.415   3.165  52.679  1.00  0.00    -0.225 NA
HETATM   24  H13 UNL     1      21.214   2.762  53.218  1.00  0.00     0.145 HD
HETATM   25  H14 UNL     1      19.503   2.715  52.987  1.00  0.00     0.145 HD
ENDBRANCH  11  23
TORSDOF 4
ENDMDL
MODEL 3
REMARK VINA RESULT:      -7.9      3.786      5.708
REMARK  4 active torsions:
REMARK  status: ('A' for Active; 'I' for Inactive)
REMARK    1  A    between atoms: N1_1  and  C1_2 
REMARK    2  A    between atoms: C8_9  and  O1_10 
REMARK    3  A    between atoms: O1_10  and  C9_11 
REMARK    4  A    between atoms: N3_18  and  N4_19 
ROOT
HETATM    1  C1  UNL     1      26.352   4.535  49.657  1.00  0.00     0.123 C 
HETATM    2  C2  UNL     1      26.511   3.218  49.677  1.00  0.00     0.064 C 
HETATM    3  C3  UNL     1      25.404   2.918  50.548  1.00  0.00     0.002 A 
HETATM    4  C4  UNL     1      24.122   3.245  50.178  1.00  0.00     0.027 A 
HETATM    5  C5  UNL     1      23.157   2.997  51.126  1.00  0.00    -0.016 A 
HETATM    6  C6  UNL     1      23.436   2.450  52.356  1.00  0.00     0.016 A 
HETATM    7  C7  UNL     1      24.761   2.124  52.693  1.00  0.00     0.038 A 
HETATM    8  C8  UNL     1      25.788   2.371  51.751  1.00  0.00     0.080 A 
HETATM    9  C14 UNL     1      21.882   3.529  50.622  1.00  0.00     0.151 C 
HETATM   10  N2  UNL     1      22.102   4.824  50.701  1.00  0.00    -0.167 NA
HETATM   11  N3  UNL     1      23.291   5.388  51.165  1.00  0.00    -0.192 N 
HETATM   12  C15 UNL     1      24.542   5.888  50.599  1.00  0.00     0.251 C 
HETATM   13  N5  UNL     1      25.651   5.635  50.056  1.00  0.00    -0.224 NA
ENDROOT
BRANCH   8  14
HETATM   14  O1  UNL     1      26.945   1.989  52.288  1.00  0.00    -0.337 OA
BRANCH  14  15
HETATM   15  C9  UNL     1      27.246   1.365  53.465  1.00  0.00     0.174 A 
HETATM   16  C10 UNL     1      28.686   1.747  53.785  1.00  0.00     0.009 A 
HETATM   17  C11 UNL     1      29.473   0.692  53.738  1.00  0.00    -0.001 A 
HETATM   18  C12 UNL     1      28.714  -0.504  53.394  1.00  0.00    -0.001 A 
HETATM   19  C13 UNL     1      27.466  -0.107  53.245  1.00  0.00     0.009 A 
ENDBRANCH  14  15
ENDBRANCH   8  14
BRANCH   1  20
HETATM   20  N1  UNL     1      27.466   4.765  48.790  1.00  0.00    -0.384 N 
HETATM   21  H1  UNL     1      27.617   4.587  47.764  1.00  0.00     0.157 HD
HETATM   22  H2  UNL     1      28.238   5.197  49.377  1.00  0.00     0.157 HD
ENDBRANCH   1  20
BRANCH  11  23
HETATM   23  N4  UNL     1      23.876   5.774  52.405  1.00  0.00    -0.225 NA
HETATM   24  H13 UNL     1      24.622   5.113  52.713  1.00  0.00     0.145 HD
HETATM   25  H14 UNL     1      23.127   5.856  53.156  1.00  0.00     0.145 HD
ENDBRANCH  11  23
TORSDOF 4
ENDMDL
MODEL 4
REMARK VINA RESULT:      -7.5      3.185      5.125
REMARK  4 active torsions:
REMARK  status: ('A' for Active; 'I' for Inactive)
REMARK    1  A    between atoms: N1_1  and  C1_2 
REMARK    2  A    between atoms: C8_9  and  O1_10 
REMARK    3  A    between atoms: O1_10  and  C9_11 
REMARK    4  A    between atoms: N3_18  and  N4_19 
ROOT
HETATM    1  C1  UNL     1      22.507  -0.328  52.922  1.00  0.00     0.123 C 
HETATM    2  C2  UNL     1      23.568  -0.156  53.699  1.00  0.00     0.064 C 
HETATM    3  C3  UNL     1      24.099   0.999  53.021  1.00  0.00     0.002 A 
HETATM    4  C4  UNL     1      23.364   2.156  52.942  1.00  0.00     0.027 A 
HETATM    5  C5  UNL     1      23.930   3.161  52.193  1.00  0.00    -0.016 A 
HETATM    6  C6  UNL     1      25.149   3.037  51.571  1.00  0.00     0.016 A 
HETATM    7  C7  UNL     1      25.873   1.837  51.682  1.00  0.00     0.038 A 
HETATM    8  C8  UNL     1      25.324   0.773  52.436  1.00  0.00     0.080 A 
HETATM    9  C14 UNL     1      22.956   4.260  52.102  1.00  0.00     0.151 C 
HETATM   10  N2  UNL     1      22.049   3.726  51.313  1.00  0.00    -0.167 NA
HETATM   11  N3  UNL     1      22.134   2.439  50.782  1.00  0.00    -0.192 N 
HETATM   12  C15 UNL     1      21.662   1.098  51.120  1.00  0.00     0.251 C 
HETATM   13  N5  UNL     1      21.755   0.081  51.860  1.00  0.00    -0.224 NA
ENDROOT
BRANCH   8  14
HETATM   14  O1  UNL     1      26.177  -0.249  52.396  1.00  0.00    -0.337 OA
BRANCH  14  15
HETATM   15  C9  UNL     1      26.827  -0.937  53.381  1.00  0.00     0.174 A 
HETATM   16  C10 UNL     1      27.105   0.076  54.485  1.00  0.00     0.009 A 
HETATM   17  C11 UNL     1      28.399   0.275  54.624  1.00  0.00    -0.001 A 
HETATM   18  C12 UNL     1      29.151  -0.538  53.675  1.00  0.00    -0.001 A 
HETATM   19  C13 UNL     1      28.252  -1.211  52.986  1.00  0.00     0.009 A 
ENDBRANCH  14  15
ENDBRANCH   8  14
BRANCH   1  20
HETATM   20  N1  UNL     1      22.034  -1.473  53.638  1.00  0.00    -0.384 N 
HETATM   21  H1  UNL     1      22.425  -2.440  53.770  1.00  0.00     0.157 HD
HETATM   22  H2  UNL     1      21.111  -1.203  54.089  1.00  0.00     0.157 HD
ENDBRANCH   1  20
BRANCH  11  23
HETATM   23  N4  UNL     1      22.701   1.787  49.650  1.00  0.00    -0.225 NA
HETATM   24  H13 UNL     1      23.604   2.222  49.354  1.00  0.00     0.145 HD
HETATM   25  H14 UNL     1      22.012   1.789  48.840  1.00  0.00     0.145 HD
ENDBRANCH  11  23
TORSDOF 4
ENDMDL
MODEL 5
REMARK VINA RESULT:      -7.3      1.910      3.719
REMARK  4 active torsions:
REMARK  status: ('A' for Active; 'I' for Inactive)
REMARK    1  A    between atoms: N1_1  and  C1_2 
REMARK    2  A    between atoms: C8_9  and  O1_10 
REMARK    3  A    between atoms: O1_10  and  C9_11 
REMARK    4  A    between atoms: N3_18  and  N4_19 
ROOT
HETATM    1  C1  UNL     1      25.438   2.859  51.590  1.00  0.00     0.123 C 
HETATM    2  C2  UNL     1      24.401   3.063  52.391  1.00  0.00     0.064 C 
HETATM    3  C3  UNL     1      24.494   1.825  53.121  1.00  0.00     0.002 A 
HETATM    4  C4  UNL     1      25.621   1.533  53.851  1.00  0.00     0.027 A 
HETATM    5  C5  UNL     1      25.638   0.286  54.431  1.00  0.00    -0.016 A 
HETATM    6  C6  UNL     1      24.605  -0.613  54.307  1.00  0.00     0.016 A 
HETATM    7  C7  UNL     1      23.467  -0.273  53.555  1.00  0.00     0.038 A 
HETATM    8  C8  UNL     1      23.411   0.997  52.935  1.00  0.00     0.080 A 
HETATM    9  C14 UNL     1      26.959   0.093  55.048  1.00  0.00     0.151 C 
HETATM   10  N2  UNL     1      27.720  -0.024  53.981  1.00  0.00    -0.167 NA
HETATM   11  N3  UNL     1      27.245   0.041  52.671  1.00  0.00    -0.192 N 
HETATM   12  C15 UNL     1      27.090   1.052  51.627  1.00  0.00     0.251 C 
HETATM   13  N5  UNL     1      26.474   2.064  51.195  1.00  0.00    -0.224 NA
ENDROOT
BRANCH   8  14
HETATM   14  O1  UNL     1      22.253   1.091  52.283  1.00  0.00    -0.337 OA
BRANCH  14  15
HETATM   15  C9  UNL     1      21.565   0.201  51.508  1.00  0.00     0.174 A 
HETATM   16  C10 UNL     1      21.534   0.803  50.108  1.00  0.00     0.009 A 
HETATM   17  C11 UNL     1      20.303   1.115  49.759  1.00  0.00    -0.001 A 
HETATM   18  C12 UNL     1      19.364   0.785  50.824  1.00  0.00    -0.001 A 
HETATM   19  C13 UNL     1      20.091   0.273  51.798  1.00  0.00     0.009 A 
ENDBRANCH  14  15
ENDBRANCH   8  14
BRANCH   1  20
HETATM   20  N1  UNL     1      25.289   4.105  50.902  1.00  0.00    -0.384 N 
HETATM   21  H1  UNL     1      24.485   4.534  50.376  1.00  0.00     0.157 HD
HETATM   22  H2  UNL     1      26.209   4.626  50.992  1.00  0.00     0.157 HD
ENDBRANCH   1  20
BRANCH  11  23
HETATM   23  N4  UNL     1      26.693  -0.834  51.692  1.00  0.00    -0.225 NA
HETATM   24  H13 UNL     1      25.653  -0.755  51.632  1.00  0.00     0.145 HD
HETATM   25  H14 UNL     1      26.971  -1.839  51.897  1.00  0.00     0.145 HD
ENDBRANCH  11  23
TORSDOF 4
ENDMDL
MODEL 6
REMARK VINA RESULT:      -7.2      4.664      7.123
REMARK  4 active torsions:
REMARK  status: ('A' for Active; 'I' for Inactive)
REMARK    1  A    between atoms: N1_1  and  C1_2 
REMARK    2  A    between atoms: C8_9  and  O1_10 
REMARK    3  A    between atoms: O1_10  and  C9_11 
REMARK    4  A    between atoms: N3_18  and  N4_19 
ROOT
HETATM    1  C1  UNL     1      20.696   2.185  48.970  1.00  0.00     0.123 C 
HETATM    2  C2  UNL     1      21.872   1.619  48.735  1.00  0.00     0.064 C 
HETATM    3  C3  UNL     1      22.227   1.370  50.109  1.00  0.00     0.002 A 
HETATM    4  C4  UNL     1      21.445   0.554  50.890  1.00  0.00     0.027 A 
HETATM    5  C5  UNL     1      21.827   0.462  52.208  1.00  0.00    -0.016 A 
HETATM    6  C6  UNL     1      22.918   1.122  52.720  1.00  0.00     0.016 A 
HETATM    7  C7  UNL     1      23.696   1.943  51.885  1.00  0.00     0.038 A 
HETATM    8  C8  UNL     1      23.334   2.074  50.524  1.00  0.00     0.080 A 
HETATM    9  C14 UNL     1      20.811  -0.329  52.918  1.00  0.00     0.151 C 
HETATM   10  N2  UNL     1      19.798   0.510  52.923  1.00  0.00    -0.167 NA
HETATM   11  N3  UNL     1      19.835   1.784  52.357  1.00  0.00    -0.192 N 
HETATM   12  C15 UNL     1      19.485   2.413  51.085  1.00  0.00     0.251 C 
HETATM   13  N5  UNL     1      19.750   2.589  49.866  1.00  0.00    -0.224 NA
ENDROOT
BRANCH   8  14
HETATM   14  O1  UNL     1      24.205   2.894  49.939  1.00  0.00    -0.337 OA
BRANCH  14  15
HETATM   15  C9  UNL     1      25.139   3.752  50.448  1.00  0.00     0.174 A 
HETATM   16  C10 UNL     1      24.957   5.064  49.695  1.00  0.00     0.009 A 
HETATM   17  C11 UNL     1      26.014   5.331  48.956  1.00  0.00    -0.001 A 
HETATM   18  C12 UNL     1      27.020   4.285  49.097  1.00  0.00    -0.001 A 
HETATM   19  C13 UNL     1      26.511   3.407  49.938  1.00  0.00     0.009 A 
ENDBRANCH  14  15
ENDBRANCH   8  14
BRANCH   1  20
HETATM   20  N1  UNL     1      20.405   2.407  47.587  1.00  0.00    -0.384 N 
HETATM   21  H1  UNL     1      19.950   3.206  47.076  1.00  0.00     0.157 HD
HETATM   22  H2  UNL     1      20.748   1.556  47.053  1.00  0.00     0.157 HD
ENDBRANCH   1  20
BRANCH  11  23
HETATM   23  N4  UNL     1      20.214   3.106  52.730  1.00  0.00    -0.225 NA
HETATM   24  H13 UNL     1      19.892   3.820  52.039  1.00  0.00     0.145 HD
HETATM   25  H14 UNL     1      21.268   3.166  52.854  1.00  0.00     0.145 HD
ENDBRANCH  11  23
TORSDOF 4
ENDMDL
MODEL 7
REMARK VINA RESULT:      -7.1      4.645      6.345
REMARK  4 active torsions:
REMARK  status: ('A' for Active; 'I' for Inactive)
REMARK    1  A    between atoms: N1_1  and  C1_2 
REMARK    2  A    between atoms: C8_9  and  O1_10 
REMARK    3  A    between atoms: O1_10  and  C9_11 
REMARK    4  A    between atoms: N3_18  and  N4_19 
ROOT
HETATM    1  C1  UNL     1      20.194  -0.241  53.223  1.00  0.00     0.123 C 
HETATM    2  C2  UNL     1      21.213   0.369  53.812  1.00  0.00     0.064 C 
HETATM    3  C3  UNL     1      21.366   1.430  52.850  1.00  0.00     0.002 A 
HETATM    4  C4  UNL     1      20.339   2.313  52.621  1.00  0.00     0.027 A 
HETATM    5  C5  UNL     1      20.562   3.226  51.617  1.00  0.00    -0.016 A 
HETATM    6  C6  UNL     1      21.729   3.272  50.891  1.00  0.00     0.016 A 
HETATM    7  C7  UNL     1      22.758   2.353  51.161  1.00  0.00     0.038 A 
HETATM    8  C8  UNL     1      22.568   1.391  52.180  1.00  0.00     0.080 A 
HETATM    9  C14 UNL     1      19.322   3.990  51.418  1.00  0.00     0.151 C 
HETATM   10  N2  UNL     1      18.549   3.077  50.872  1.00  0.00    -0.167 NA
HETATM   11  N3  UNL     1      18.949   1.765  50.615  1.00  0.00    -0.192 N 
HETATM   12  C15 UNL     1      18.883   0.465  51.279  1.00  0.00     0.251 C 
HETATM   13  N5  UNL     1      19.296  -0.294  52.197  1.00  0.00    -0.224 NA
ENDROOT
BRANCH   8  14
HETATM   14  O1  UNL     1      23.663   0.637  52.251  1.00  0.00    -0.337 OA
BRANCH  14  15
HETATM   15  C9  UNL     1      24.809   0.755  52.986  1.00  0.00     0.174 A 
HETATM   16  C10 UNL     1      25.944   0.876  51.975  1.00  0.00     0.009 A 
HETATM   17  C11 UNL     1      26.743  -0.168  52.040  1.00  0.00    -0.001 A 
HETATM   18  C12 UNL     1      26.286  -1.106  53.058  1.00  0.00    -0.001 A 
HETATM   19  C13 UNL     1      25.199  -0.571  53.578  1.00  0.00     0.009 A 
ENDBRANCH  14  15
ENDBRANCH   8  14
BRANCH   1  20
HETATM   20  N1  UNL     1      20.096  -1.268  54.213  1.00  0.00    -0.384 N 
HETATM   21  H1  UNL     1      19.785  -1.259  55.218  1.00  0.00     0.157 HD
HETATM   22  H2  UNL     1      20.417  -2.174  53.761  1.00  0.00     0.157 HD
ENDBRANCH   1  20
BRANCH  11  23
HETATM   23  N4  UNL     1      19.603   1.033  49.583  1.00  0.00    -0.225 NA
HETATM   24  H13 UNL     1      19.736   1.602  48.717  1.00  0.00     0.145 HD
HETATM   25  H14 UNL     1      19.058   0.147  49.358  1.00  0.00     0.145 HD
ENDBRANCH  11  23
TORSDOF 4
ENDMDL
MODEL 8
REMARK VINA RESULT:      -7.0      3.654      4.853
REMARK  4 active torsions:
REMARK  status: ('A' for Active; 'I' for Inactive)
REMARK    1  A    between atoms: N1_1  and  C1_2 
REMARK    2  A    between atoms: C8_9  and  O1_10 
REMARK    3  A    between atoms: O1_10  and  C9_11 
REMARK    4  A    between atoms: N3_18  and  N4_19 
ROOT
HETATM    1  C1  UNL     1      23.980   3.299  52.358  1.00  0.00     0.123 C 
HETATM    2  C2  UNL     1      24.266   2.062  51.975  1.00  0.00     0.064 C 
HETATM    3  C3  UNL     1      23.324   1.990  50.888  1.00  0.00     0.002 A 
HETATM    4  C4  UNL     1      23.420   2.859  49.828  1.00  0.00     0.027 A 
HETATM    5  C5  UNL     1      22.414   2.760  48.895  1.00  0.00    -0.016 A 
HETATM    6  C6  UNL     1      21.385   1.854  48.995  1.00  0.00     0.016 A 
HETATM    7  C7  UNL     1      21.326   0.979  50.093  1.00  0.00     0.038 A 
HETATM    8  C8  UNL     1      22.336   1.051  51.081  1.00  0.00     0.080 A 
HETATM    9  C14 UNL     1      22.598   3.843  47.917  1.00  0.00     0.151 C 
HETATM   10  N2  UNL     1      22.278   4.893  48.643  1.00  0.00    -0.167 NA
HETATM   11  N3  UNL     1      21.887   4.829  49.980  1.00  0.00    -0.192 N 
HETATM   12  C15 UNL     1      22.513   4.946  51.296  1.00  0.00     0.251 C 
HETATM   13  N5  UNL     1      23.256   4.442  52.180  1.00  0.00    -0.224 NA
ENDROOT
BRANCH   8  14
HETATM   14  O1  UNL     1      22.072   0.139  52.014  1.00  0.00    -0.337 OA
BRANCH  14  15
HETATM   15  C9  UNL     1      21.616   0.248  53.298  1.00  0.00     0.174 A 
HETATM   16  C10 UNL     1      22.612  -0.517  54.162  1.00  0.00     0.009 A 
HETATM   17  C11 UNL     1      22.046  -1.575  54.705  1.00  0.00    -0.001 A 
HETATM   18  C12 UNL     1      20.647  -1.674  54.306  1.00  0.00    -0.001 A 
HETATM   19  C13 UNL     1      20.424  -0.643  53.516  1.00  0.00     0.009 A 
ENDBRANCH  14  15
ENDBRANCH   8  14
BRANCH   1  20
HETATM   20  N1  UNL     1      24.934   3.305  53.424  1.00  0.00    -0.384 N 
HETATM   21  H1  UNL     1      25.957   3.062  53.464  1.00  0.00     0.157 HD
HETATM   22  H2  UNL     1      24.427   3.628  54.299  1.00  0.00     0.157 HD
ENDBRANCH   1  20
BRANCH  11  23
HETATM   23  N4  UNL     1      20.694   4.636  50.735  1.00  0.00    -0.225 NA
HETATM   24  H13 UNL     1      20.538   3.633  50.979  1.00  0.00     0.145 HD
HETATM   25  H14 UNL     1      19.856   5.018  50.203  1.00  0.00     0.145 HD
ENDBRANCH  11  23
TORSDOF 4
ENDMDL
MODEL 9
REMARK VINA RESULT:      -7.0     10.077     12.042
REMARK  4 active torsions:
REMARK  status: ('A' for Active; 'I' for Inactive)
REMARK    1  A    between atoms: N1_1  and  C1_2 
REMARK    2  A    between atoms: C8_9  and  O1_10 
REMARK    3  A    between atoms: O1_10  and  C9_11 
REMARK    4  A    between atoms: N3_18  and  N4_19 
ROOT
HETATM    1  C1  UNL     1      34.141   5.797  48.813  1.00  0.00     0.123 C 
HETATM    2  C2  UNL     1      34.845   6.478  47.919  1.00  0.00     0.064 C 
HETATM    3  C3  UNL     1      33.740   7.183  47.321  1.00  0.00     0.002 A 
HETATM    4  C4  UNL     1      32.968   8.031  48.078  1.00  0.00     0.027 A 
HETATM    5  C5  UNL     1      31.887   8.577  47.427  1.00  0.00    -0.016 A 
HETATM    6  C6  UNL     1      31.591   8.313  46.111  1.00  0.00     0.016 A 
HETATM    7  C7  UNL     1      32.410   7.443  45.370  1.00  0.00     0.038 A 
HETATM    8  C8  UNL     1      33.529   6.852  46.002  1.00  0.00     0.080 A 
HETATM    9  C14 UNL     1      31.104   9.338  48.413  1.00  0.00     0.151 C 
HETATM   10  N2  UNL     1      30.599   8.364  49.139  1.00  0.00    -0.167 NA
HETATM   11  N3  UNL     1      30.840   7.009  48.905  1.00  0.00    -0.192 N 
HETATM   12  C15 UNL     1      31.766   5.980  49.375  1.00  0.00     0.251 C 
HETATM   13  N5  UNL     1      32.933   5.505  49.375  1.00  0.00    -0.224 NA
ENDROOT
BRANCH   8  14
HETATM   14  O1  UNL     1      34.146   6.073  45.115  1.00  0.00    -0.337 OA
BRANCH  14  15
HETATM   15  C9  UNL     1      33.957   4.769  44.754  1.00  0.00     0.174 A 
HETATM   16  C10 UNL     1      32.871   4.233  45.679  1.00  0.00     0.009 A 
HETATM   17  C11 UNL     1      33.351   3.299  46.474  1.00  0.00    -0.001 A 
HETATM   18  C12 UNL     1      34.768   3.078  46.215  1.00  0.00    -0.001 A 
HETATM   19  C13 UNL     1      35.091   3.913  45.246  1.00  0.00     0.009 A 
ENDBRANCH  14  15
ENDBRANCH   8  14
BRANCH   1  20
HETATM   20  N1  UNL     1      35.281   5.128  49.360  1.00  0.00    -0.384 N 
HETATM   21  H1  UNL     1      35.835   4.292  49.042  1.00  0.00     0.157 HD
HETATM   22  H2  UNL     1      35.548   5.639  50.251  1.00  0.00     0.157 HD
ENDBRANCH   1  20
BRANCH  11  23
HETATM   23  N4  UNL     1      30.306   5.951  48.115  1.00  0.00    -0.225 NA
HETATM   24  H13 UNL     1      29.493   6.261  47.537  1.00  0.00     0.145 HD
HETATM   25  H14 UNL     1      30.024   5.135  48.735  1.00  0.00     0.145 HD
ENDBRANCH  11  23
TORSDOF 4
ENDMDL
