MODEL 1
REMARK VINA RESULT:      -8.0      0.000      0.000
REMARK  4 active torsions:
REMARK  status: ('A' for Active; 'I' for Inactive)
REMARK    1  A    between atoms: C2_2  and  O1_3 
REMARK    2  A    between atoms: C2_2  and  C11_14 
REMARK    3  A    between atoms: O1_3  and  C3_4 
REMARK    4  A    between atoms: C4_5  and  C5_6 
ROOT
HETATM    1  O1  UNL     1      25.179   1.130  53.212  1.00  0.00    -0.353 OA
ENDROOT
BRANCH   1   2
HETATM    2  C2  UNL     1      26.458   1.499  52.797  1.00  0.00     0.161 C 
HETATM    3  C1  UNL     1      26.370   1.864  51.309  1.00  0.00     0.045 C 
BRANCH   2   4
HETATM    4  C11 UNL     1      27.508   0.488  53.030  1.00  0.00     0.031 A 
HETATM    5  C12 UNL     1      27.307  -0.874  52.789  1.00  0.00     0.127 A 
HETATM    6  F1  UNL     1      26.108  -1.301  52.322  1.00  0.00    -0.205 F 
HETATM    7  C13 UNL     1      28.293  -1.816  53.008  1.00  0.00     0.043 A 
HETATM    8  C14 UNL     1      29.539  -1.424  53.487  1.00  0.00     0.005 A 
HETATM    9  C15 UNL     1      29.735  -0.079  53.725  1.00  0.00     0.024 A 
HETATM   10  C16 UNL     1      28.760   0.871  53.510  1.00  0.00     0.045 A 
HETATM   11 CL2  UNL     1      29.051   2.582  53.825  1.00  0.00    -0.084 Cl
ENDBRANCH   2   4
ENDBRANCH   1   2
BRANCH   1  12
HETATM   12  C3  UNL     1      24.034   1.278  52.442  1.00  0.00     0.135 C 
HETATM   13  C4  UNL     1      22.970   0.507  52.643  1.00  0.00     0.026 C 
BRANCH  13  14
HETATM   14  C5  UNL     1      21.746   0.648  51.838  1.00  0.00     0.031 C 
HETATM   15  C6  UNL     1      20.581   0.107  52.154  1.00  0.00     0.056 A 
HETATM   16  N1  UNL     1      19.449   0.301  51.310  1.00  0.00    -0.264 NA
HETATM   17  C10 UNL     1      20.510  -0.693  53.409  1.00  0.00     0.157 A 
HETATM   18  C7  UNL     1      18.302  -0.218  51.601  1.00  0.00     0.116 A 
HETATM   19  C8  UNL     1      18.089  -1.024  52.796  1.00  0.00     0.017 A 
HETATM   20  C9  UNL     1      19.114  -1.217  53.591  1.00  0.00     0.001 A 
HETATM   21 CL1  UNL     1      20.755   0.492  54.737  1.00  0.00    -0.114 Cl
ENDBRANCH  13  14
ENDBRANCH   1  12
TORSDOF 4
ENDMDL
MODEL 2
REMARK VINA RESULT:      -7.8      4.280      7.225
REMARK  4 active torsions:
REMARK  status: ('A' for Active; 'I' for Inactive)
REMARK    1  A    between atoms: C2_2  and  O1_3 
REMARK    2  A    between atoms: C2_2  and  C11_14 
REMARK    3  A    between atoms: O1_3  and  C3_4 
REMARK    4  A    between atoms: C4_5  and  C5_6 
ROOT
HETATM    1  O1  UNL     1      24.917   3.182  51.910  1.00  0.00    -0.353 OA
ENDROOT
BRANCH   1   2
HETATM    2  C2  UNL     1      24.430   3.858  50.792  1.00  0.00     0.161 C 
HETATM    3  C1  UNL     1      23.758   2.820  49.885  1.00  0.00     0.045 C 
BRANCH   2   4
HETATM    4  C11 UNL     1      25.437   4.638  50.044  1.00  0.00     0.031 A 
HETATM    5  C12 UNL     1      26.515   4.039  49.385  1.00  0.00     0.127 A 
HETATM    6  F1  UNL     1      26.657   2.690  49.425  1.00  0.00    -0.205 F 
HETATM    7  C13 UNL     1      27.453   4.772  48.687  1.00  0.00     0.043 A 
HETATM    8  C14 UNL     1      27.348   6.158  48.619  1.00  0.00     0.005 A 
HETATM    9  C15 UNL     1      26.283   6.747  49.270  1.00  0.00     0.024 A 
HETATM   10  C16 UNL     1      25.340   6.026  49.970  1.00  0.00     0.045 A 
HETATM   11 CL2  UNL     1      23.992   6.818  50.789  1.00  0.00    -0.084 Cl
ENDBRANCH   2   4
ENDBRANCH   1   2
BRANCH   1  12
HETATM   12  C3  UNL     1      25.030   1.802  52.002  1.00  0.00     0.135 C 
HETATM   13  C4  UNL     1      26.202   1.228  52.255  1.00  0.00     0.026 C 
BRANCH  13  14
HETATM   14  C5  UNL     1      26.343  -0.234  52.356  1.00  0.00     0.031 C 
HETATM   15  C6  UNL     1      27.449  -0.850  52.742  1.00  0.00     0.056 A 
HETATM   16  N1  UNL     1      27.489  -2.272  52.810  1.00  0.00    -0.264 NA
HETATM   17  C10 UNL     1      28.622  -0.002  53.096  1.00  0.00     0.157 A 
HETATM   18  C7  UNL     1      28.559  -2.894  53.184  1.00  0.00     0.116 A 
HETATM   19  C8  UNL     1      29.780  -2.192  53.558  1.00  0.00     0.017 A 
HETATM   20  C9  UNL     1      29.769  -0.882  53.505  1.00  0.00     0.001 A 
HETATM   21 CL1  UNL     1      28.135   0.876  54.585  1.00  0.00    -0.114 Cl
ENDBRANCH  13  14
ENDBRANCH   1  12
TORSDOF 4
ENDMDL
MODEL 3
REMARK VINA RESULT:      -7.6      3.497      7.131
REMARK  4 active torsions:
REMARK  status: ('A' for Active; 'I' for Inactive)
REMARK    1  A    between atoms: C2_2  and  O1_3 
REMARK    2  A    between atoms: C2_2  and  C11_14 
REMARK    3  A    between atoms: O1_3  and  C3_4 
REMARK    4  A    between atoms: C4_5  and  C5_6 
ROOT
HETATM    1  O1  UNL     1      21.973   0.646  52.773  1.00  0.00    -0.353 OA
ENDROOT
BRANCH   1   2
HETATM    2  C2  UNL     1      21.900   1.919  52.207  1.00  0.00     0.161 C 
HETATM    3  C1  UNL     1      20.547   2.522  52.606  1.00  0.00     0.045 C 
BRANCH   2   4
HETATM    4  C11 UNL     1      22.085   1.965  50.743  1.00  0.00     0.031 A 
HETATM    5  C12 UNL     1      21.392   1.122  49.870  1.00  0.00     0.127 A 
HETATM    6  F1  UNL     1      20.510   0.220  50.370  1.00  0.00    -0.205 F 
HETATM    7  C13 UNL     1      21.569   1.170  48.502  1.00  0.00     0.043 A 
HETATM    8  C14 UNL     1      22.462   2.078  47.944  1.00  0.00     0.005 A 
HETATM    9  C15 UNL     1      23.146   2.910  48.807  1.00  0.00     0.024 A 
HETATM   10  C16 UNL     1      22.978   2.872  50.175  1.00  0.00     0.045 A 
HETATM   11 CL2  UNL     1      23.871   3.954  51.245  1.00  0.00    -0.084 Cl
ENDBRANCH   2   4
ENDBRANCH   1   2
BRANCH   1  12
HETATM   12  C3  UNL     1      23.021   0.202  53.565  1.00  0.00     0.135 C 
HETATM   13  C4  UNL     1      24.229  -0.004  53.050  1.00  0.00     0.026 C 
BRANCH  13  14
HETATM   14  C5  UNL     1      25.354  -0.475  53.873  1.00  0.00     0.031 C 
HETATM   15  C6  UNL     1      26.532   0.123  53.935  1.00  0.00     0.056 A 
HETATM   16  N1  UNL     1      27.562  -0.408  54.764  1.00  0.00    -0.264 NA
HETATM   17  C10 UNL     1      26.725   1.353  53.116  1.00  0.00     0.157 A 
HETATM   18  C7  UNL     1      28.721   0.160  54.839  1.00  0.00     0.116 A 
HETATM   19  C8  UNL     1      29.048   1.368  54.092  1.00  0.00     0.017 A 
HETATM   20  C9  UNL     1      28.117   1.879  53.323  1.00  0.00     0.001 A 
HETATM   21 CL1  UNL     1      25.635   2.580  53.848  1.00  0.00    -0.114 Cl
ENDBRANCH  13  14
ENDBRANCH   1  12
TORSDOF 4
ENDMDL
MODEL 4
REMARK VINA RESULT:      -7.5      2.991      8.055
REMARK  4 active torsions:
REMARK  status: ('A' for Active; 'I' for Inactive)
REMARK    1  A    between atoms: C2_2  and  O1_3 
REMARK    2  A    between atoms: C2_2  and  C11_14 
REMARK    3  A    between atoms: O1_3  and  C3_4 
REMARK    4  A    between atoms: C4_5  and  C5_6 
ROOT
HETATM    1  O1  UNL     1      22.556   0.899  51.709  1.00  0.00    -0.353 OA
ENDROOT
BRANCH   1   2
HETATM    2  C2  UNL     1      21.281   1.444  51.556  1.00  0.00     0.161 C 
HETATM    3  C1  UNL     1      21.255   2.773  52.321  1.00  0.00     0.045 C 
BRANCH   2   4
HETATM    4  C11 UNL     1      20.171   0.569  51.984  1.00  0.00     0.031 A 
HETATM    5  C12 UNL     1      20.199  -0.151  53.182  1.00  0.00     0.127 A 
HETATM    6  F1  UNL     1      21.280  -0.053  53.995  1.00  0.00    -0.205 F 
HETATM    7  C13 UNL     1      19.159  -0.967  53.577  1.00  0.00     0.043 A 
HETATM    8  C14 UNL     1      18.030  -1.099  52.775  1.00  0.00     0.005 A 
HETATM    9  C15 UNL     1      18.003  -0.388  51.593  1.00  0.00     0.024 A 
HETATM   10  C16 UNL     1      19.036   0.431  51.187  1.00  0.00     0.045 A 
HETATM   11 CL2  UNL     1      18.963   1.325  49.667  1.00  0.00    -0.084 Cl
ENDBRANCH   2   4
ENDBRANCH   1   2
BRANCH   1  12
HETATM   12  C3  UNL     1      23.689   1.638  52.017  1.00  0.00     0.135 C 
HETATM   13  C4  UNL     1      24.443   1.327  53.066  1.00  0.00     0.026 C 
BRANCH  13  14
HETATM   14  C5  UNL     1      25.649   2.097  53.410  1.00  0.00     0.031 C 
HETATM   15  C6  UNL     1      26.836   1.558  53.638  1.00  0.00     0.056 A 
HETATM   16  N1  UNL     1      27.948   2.388  53.964  1.00  0.00    -0.264 NA
HETATM   17  C10 UNL     1      26.951   0.077  53.538  1.00  0.00     0.157 A 
HETATM   18  C7  UNL     1      29.116   1.883  54.191  1.00  0.00     0.116 A 
HETATM   19  C8  UNL     1      29.372   0.449  54.128  1.00  0.00     0.017 A 
HETATM   20  C9  UNL     1      28.366  -0.336  53.829  1.00  0.00     0.001 A 
HETATM   21 CL1  UNL     1      26.690  -0.299  51.801  1.00  0.00    -0.114 Cl
ENDBRANCH  13  14
ENDBRANCH   1  12
TORSDOF 4
ENDMDL
MODEL 5
REMARK VINA RESULT:      -7.4      3.073      7.564
REMARK  4 active torsions:
REMARK  status: ('A' for Active; 'I' for Inactive)
REMARK    1  A    between atoms: C2_2  and  O1_3 
REMARK    2  A    between atoms: C2_2  and  C11_14 
REMARK    3  A    between atoms: O1_3  and  C3_4 
REMARK    4  A    between atoms: C4_5  and  C5_6 
ROOT
HETATM    1  O1  UNL     1      22.534   2.398  52.126  1.00  0.00    -0.353 OA
ENDROOT
BRANCH   1   2
HETATM    2  C2  UNL     1      22.298   1.125  51.606  1.00  0.00     0.161 C 
HETATM    3  C1  UNL     1      22.150   1.270  50.086  1.00  0.00     0.045 C 
BRANCH   2   4
HETATM    4  C11 UNL     1      21.137   0.419  52.183  1.00  0.00     0.031 A 
HETATM    5  C12 UNL     1      19.823   0.677  51.780  1.00  0.00     0.127 A 
HETATM    6  F1  UNL     1      19.589   1.609  50.823  1.00  0.00    -0.205 F 
HETATM    7  C13 UNL     1      18.741   0.013  52.322  1.00  0.00     0.043 A 
HETATM    8  C14 UNL     1      18.933  -0.950  53.307  1.00  0.00     0.005 A 
HETATM    9  C15 UNL     1      20.231  -1.204  53.704  1.00  0.00     0.024 A 
HETATM   10  C16 UNL     1      21.320  -0.548  53.170  1.00  0.00     0.045 A 
HETATM   11 CL2  UNL     1      22.963  -0.902  53.704  1.00  0.00    -0.084 Cl
ENDBRANCH   2   4
ENDBRANCH   1   2
BRANCH   1  12
HETATM   12  C3  UNL     1      23.767   2.837  52.586  1.00  0.00     0.135 C 
HETATM   13  C4  UNL     1      24.650   1.985  53.096  1.00  0.00     0.026 C 
BRANCH  13  14
HETATM   14  C5  UNL     1      25.963   2.431  53.590  1.00  0.00     0.031 C 
HETATM   15  C6  UNL     1      27.015   1.640  53.726  1.00  0.00     0.056 A 
HETATM   16  N1  UNL     1      28.247   2.165  54.213  1.00  0.00    -0.264 NA
HETATM   17  C10 UNL     1      26.853   0.207  53.352  1.00  0.00     0.157 A 
HETATM   18  C7  UNL     1      29.287   1.410  54.353  1.00  0.00     0.116 A 
HETATM   19  C8  UNL     1      29.270  -0.010  54.026  1.00  0.00     0.017 A 
HETATM   20  C9  UNL     1      28.149  -0.518  53.575  1.00  0.00     0.001 A 
HETATM   21 CL1  UNL     1      26.606   0.211  51.572  1.00  0.00    -0.114 Cl
ENDBRANCH  13  14
ENDBRANCH   1  12
TORSDOF 4
ENDMDL
MODEL 6
REMARK VINA RESULT:      -7.2      4.229      7.886
REMARK  4 active torsions:
REMARK  status: ('A' for Active; 'I' for Inactive)
REMARK    1  A    between atoms: C2_2  and  O1_3 
REMARK    2  A    between atoms: C2_2  and  C11_14 
REMARK    3  A    between atoms: O1_3  and  C3_4 
REMARK    4  A    between atoms: C4_5  and  C5_6 
ROOT
HETATM    1  O1  UNL     1      23.586   1.920  51.052  1.00  0.00    -0.353 OA
ENDROOT
BRANCH   1   2
HETATM    2  C2  UNL     1      23.042   2.250  52.293  1.00  0.00     0.161 C 
HETATM    3  C1  UNL     1      24.142   2.946  53.105  1.00  0.00     0.045 C 
BRANCH   2   4
HETATM    4  C11 UNL     1      22.468   1.117  53.046  1.00  0.00     0.031 A 
HETATM    5  C12 UNL     1      23.245   0.051  53.509  1.00  0.00     0.127 A 
HETATM    6  F1  UNL     1      24.579   0.040  53.264  1.00  0.00    -0.205 F 
HETATM    7  C13 UNL     1      22.703  -1.006  54.213  1.00  0.00     0.043 A 
HETATM    8  C14 UNL     1      21.339  -1.037  54.487  1.00  0.00     0.005 A 
HETATM    9  C15 UNL     1      20.574   0.016  54.030  1.00  0.00     0.024 A 
HETATM   10  C16 UNL     1      21.103   1.077  53.326  1.00  0.00     0.045 A 
HETATM   11 CL2  UNL     1      20.091   2.407  52.760  1.00  0.00    -0.084 Cl
ENDBRANCH   2   4
ENDBRANCH   1   2
BRANCH   1  12
HETATM   12  C3  UNL     1      24.893   2.191  50.674  1.00  0.00     0.135 C 
HETATM   13  C4  UNL     1      25.182   3.252  49.927  1.00  0.00     0.026 C 
BRANCH  13  14
HETATM   14  C5  UNL     1      26.561   3.558  49.515  1.00  0.00     0.031 C 
HETATM   15  C6  UNL     1      26.938   4.700  48.964  1.00  0.00     0.056 A 
HETATM   16  N1  UNL     1      28.300   4.905  48.598  1.00  0.00    -0.264 NA
HETATM   17  C10 UNL     1      25.892   5.740  48.750  1.00  0.00     0.157 A 
HETATM   18  C7  UNL     1      28.689   6.013  48.059  1.00  0.00     0.116 A 
HETATM   19  C8  UNL     1      27.773   7.115  47.791  1.00  0.00     0.017 A 
HETATM   20  C9  UNL     1      26.514   6.953  48.119  1.00  0.00     0.001 A 
HETATM   21 CL1  UNL     1      25.398   6.256  50.399  1.00  0.00    -0.114 Cl
ENDBRANCH  13  14
ENDBRANCH   1  12
TORSDOF 4
ENDMDL
MODEL 7
REMARK VINA RESULT:      -7.1      3.409      7.205
REMARK  4 active torsions:
REMARK  status: ('A' for Active; 'I' for Inactive)
REMARK    1  A    between atoms: C2_2  and  O1_3 
REMARK    2  A    between atoms: C2_2  and  C11_14 
REMARK    3  A    between atoms: O1_3  and  C3_4 
REMARK    4  A    between atoms: C4_5  and  C5_6 
ROOT
HETATM    1  O1  UNL     1      22.049   0.601  52.609  1.00  0.00    -0.353 OA
ENDROOT
BRANCH   1   2
HETATM    2  C2  UNL     1      21.776   1.964  52.487  1.00  0.00     0.161 C 
HETATM    3  C1  UNL     1      20.260   2.114  52.310  1.00  0.00     0.045 C 
BRANCH   2   4
HETATM    4  C11 UNL     1      22.503   2.653  51.402  1.00  0.00     0.031 A 
HETATM    5  C12 UNL     1      23.245   3.818  51.616  1.00  0.00     0.127 A 
HETATM    6  F1  UNL     1      23.311   4.350  52.862  1.00  0.00    -0.205 F 
HETATM    7  C13 UNL     1      23.924   4.458  50.598  1.00  0.00     0.043 A 
HETATM    8  C14 UNL     1      23.886   3.949  49.304  1.00  0.00     0.005 A 
HETATM    9  C15 UNL     1      23.153   2.798  49.095  1.00  0.00     0.024 A 
HETATM   10  C16 UNL     1      22.471   2.149  50.102  1.00  0.00     0.045 A 
HETATM   11 CL2  UNL     1      21.545   0.680  49.794  1.00  0.00    -0.084 Cl
ENDBRANCH   2   4
ENDBRANCH   1   2
BRANCH   1  12
HETATM   12  C3  UNL     1      23.072   0.076  53.385  1.00  0.00     0.135 C 
HETATM   13  C4  UNL     1      24.330   0.088  52.957  1.00  0.00     0.026 C 
BRANCH  13  14
HETATM   14  C5  UNL     1      25.430  -0.464  53.764  1.00  0.00     0.031 C 
HETATM   15  C6  UNL     1      26.633   0.080  53.854  1.00  0.00     0.056 A 
HETATM   16  N1  UNL     1      27.634  -0.529  54.664  1.00  0.00    -0.264 NA
HETATM   17  C10 UNL     1      26.882   1.332  53.087  1.00  0.00     0.157 A 
HETATM   18  C7  UNL     1      28.816  -0.015  54.767  1.00  0.00     0.116 A 
HETATM   19  C8  UNL     1      29.198   1.208  54.071  1.00  0.00     0.017 A 
HETATM   20  C9  UNL     1      28.294   1.789  53.320  1.00  0.00     0.001 A 
HETATM   21 CL1  UNL     1      25.842   2.575  53.864  1.00  0.00    -0.114 Cl
ENDBRANCH  13  14
ENDBRANCH   1  12
TORSDOF 4
ENDMDL
MODEL 8
REMARK VINA RESULT:      -7.1      4.316      7.088
REMARK  4 active torsions:
REMARK  status: ('A' for Active; 'I' for Inactive)
REMARK    1  A    between atoms: C2_2  and  O1_3 
REMARK    2  A    between atoms: C2_2  and  C11_14 
REMARK    3  A    between atoms: O1_3  and  C3_4 
REMARK    4  A    between atoms: C4_5  and  C5_6 
ROOT
HETATM    1  O1  UNL     1      21.727   2.819  52.352  1.00  0.00    -0.353 OA
ENDROOT
BRANCH   1   2
HETATM    2  C2  UNL     1      22.333   1.621  51.977  1.00  0.00     0.161 C 
HETATM    3  C1  UNL     1      21.509   1.029  50.827  1.00  0.00     0.045 C 
BRANCH   2   4
HETATM    4  C11 UNL     1      22.501   0.637  53.066  1.00  0.00     0.031 A 
HETATM    5  C12 UNL     1      21.429   0.181  53.839  1.00  0.00     0.127 A 
HETATM    6  F1  UNL     1      20.180   0.651  53.594  1.00  0.00    -0.205 F 
HETATM    7  C13 UNL     1      21.591  -0.739  54.855  1.00  0.00     0.043 A 
HETATM    8  C14 UNL     1      22.853  -1.248  55.143  1.00  0.00     0.005 A 
HETATM    9  C15 UNL     1      23.910  -0.797  54.378  1.00  0.00     0.024 A 
HETATM   10  C16 UNL     1      23.762   0.121  53.361  1.00  0.00     0.045 A 
HETATM   11 CL2  UNL     1      25.138   0.672  52.405  1.00  0.00    -0.084 Cl
ENDBRANCH   2   4
ENDBRANCH   1   2
BRANCH   1  12
HETATM   12  C3  UNL     1      22.204   4.077  52.013  1.00  0.00     0.135 C 
HETATM   13  C4  UNL     1      23.492   4.270  51.748  1.00  0.00     0.026 C 
BRANCH  13  14
HETATM   14  C5  UNL     1      24.019   5.596  51.385  1.00  0.00     0.031 C 
HETATM   15  C6  UNL     1      24.998   5.796  50.518  1.00  0.00     0.056 A 
HETATM   16  N1  UNL     1      25.440   7.120  50.230  1.00  0.00    -0.264 NA
HETATM   17  C10 UNL     1      25.599   4.598  49.869  1.00  0.00     0.157 A 
HETATM   18  C7  UNL     1      26.394   7.338  49.386  1.00  0.00     0.116 A 
HETATM   19  C8  UNL     1      27.073   6.260  48.679  1.00  0.00     0.017 A 
HETATM   20  C9  UNL     1      26.684   5.032  48.924  1.00  0.00     0.001 A 
HETATM   21 CL1  UNL     1      24.299   3.923  48.828  1.00  0.00    -0.114 Cl
ENDBRANCH  13  14
ENDBRANCH   1  12
TORSDOF 4
ENDMDL
MODEL 9
REMARK VINA RESULT:      -7.1      4.595      5.517
REMARK  4 active torsions:
REMARK  status: ('A' for Active; 'I' for Inactive)
REMARK    1  A    between atoms: C2_2  and  O1_3 
REMARK    2  A    between atoms: C2_2  and  C11_14 
REMARK    3  A    between atoms: O1_3  and  C3_4 
REMARK    4  A    between atoms: C4_5  and  C5_6 
ROOT
HETATM    1  O1  UNL     1      26.241   1.513  51.238  1.00  0.00    -0.353 OA
ENDROOT
BRANCH   1   2
HETATM    2  C2  UNL     1      26.240   0.905  52.494  1.00  0.00     0.161 C 
HETATM    3  C1  UNL     1      25.689   1.925  53.497  1.00  0.00     0.045 C 
BRANCH   2   4
HETATM    4  C11 UNL     1      27.548   0.383  52.937  1.00  0.00     0.031 A 
HETATM    5  C12 UNL     1      28.568   1.214  53.410  1.00  0.00     0.127 A 
HETATM    6  F1  UNL     1      28.365   2.554  53.471  1.00  0.00    -0.205 F 
HETATM    7  C13 UNL     1      29.789   0.721  53.825  1.00  0.00     0.043 A 
HETATM    8  C14 UNL     1      30.042  -0.646  53.781  1.00  0.00     0.005 A 
HETATM    9  C15 UNL     1      29.035  -1.465  53.314  1.00  0.00     0.024 A 
HETATM   10  C16 UNL     1      27.811  -0.985  52.897  1.00  0.00     0.045 A 
HETATM   11 CL2  UNL     1      26.548  -2.065  52.307  1.00  0.00    -0.084 Cl
ENDBRANCH   2   4
ENDBRANCH   1   2
BRANCH   1  12
HETATM   12  C3  UNL     1      26.340   2.881  51.033  1.00  0.00     0.135 C 
HETATM   13  C4  UNL     1      25.471   3.521  50.256  1.00  0.00     0.026 C 
BRANCH  13  14
HETATM   14  C5  UNL     1      25.558   4.972  50.025  1.00  0.00     0.031 C 
HETATM   15  C6  UNL     1      24.556   5.816  50.208  1.00  0.00     0.056 A 
HETATM   16  N1  UNL     1      24.737   7.207  49.958  1.00  0.00    -0.264 NA
HETATM   17  C10 UNL     1      23.259   5.254  50.678  1.00  0.00     0.157 A 
HETATM   18  C7  UNL     1      23.772   8.049  50.130  1.00  0.00     0.116 A 
HETATM   19  C8  UNL     1      22.450   7.638  50.585  1.00  0.00     0.017 A 
HETATM   20  C9  UNL     1      22.256   6.364  50.824  1.00  0.00     0.001 A 
HETATM   21 CL1  UNL     1      23.576   4.672  52.348  1.00  0.00    -0.114 Cl
ENDBRANCH  13  14
ENDBRANCH   1  12
TORSDOF 4
ENDMDL
