MODEL 1
REMARK VINA RESULT:      -7.6      0.000      0.000
REMARK  8 active torsions:
REMARK  status: ('A' for Active; 'I' for Inactive)
REMARK    1  A    between atoms: N1_1  and  C1_2 
REMARK    2  A    between atoms: C1_2  and  C2_3 
REMARK    3  A    between atoms: C2_3  and  C3_4 
REMARK    4  A    between atoms: C8_10  and  O1_11 
REMARK    5  A    between atoms: O1_11  and  C9_12 
REMARK    6  A    between atoms: C9_12  and  C10_13 
REMARK    7  A    between atoms: C10_13  and  C11_14 
REMARK    8  A    between atoms: C14_17  and  O2_18 
ROOT
HETATM    1  C3  UNL     1      27.281   4.905  48.709  1.00  0.00     0.023 C 
HETATM    2  C4  UNL     1      26.417   4.387  49.568  1.00  0.00     0.102 A 
HETATM    3  N2  UNL     1      25.395   5.075  50.276  1.00  0.00    -0.341 N 
HETATM    4  C5  UNL     1      24.702   4.134  51.089  1.00  0.00     0.060 A 
HETATM    5  C6  UNL     1      23.640   4.251  51.965  1.00  0.00     0.035 A 
HETATM    6  C7  UNL     1      23.180   3.107  52.626  1.00  0.00     0.039 A 
HETATM    7  C8  UNL     1      23.778   1.860  52.411  1.00  0.00     0.071 A 
HETATM    8  C17 UNL     1      24.837   1.771  51.530  1.00  0.00     0.068 A 
HETATM    9  C18 UNL     1      25.298   2.897  50.872  1.00  0.00     0.063 A 
HETATM   10  N3  UNL     1      26.365   3.015  49.937  1.00  0.00    -0.341 N 
HETATM   11  H8  UNL     1      25.148   6.086  50.249  1.00  0.00     0.167 HD
HETATM   12  H21 UNL     1      26.987   2.259  49.584  1.00  0.00     0.167 HD
ENDROOT
BRANCH   7  13
HETATM   13  O1  UNL     1      23.166   0.888  53.161  1.00  0.00    -0.351 OA
BRANCH  13  14
HETATM   14  C9  UNL     1      23.528  -0.471  53.221  1.00  0.00     0.180 C 
BRANCH  14  15
HETATM   15  C10 UNL     1      24.384  -0.632  54.455  1.00  0.00     0.065 C 
BRANCH  15  16
HETATM   16  C11 UNL     1      25.826  -0.564  54.208  1.00  0.00    -0.056 A 
HETATM   17  C12 UNL     1      26.337  -1.227  53.113  1.00  0.00     0.010 A 
HETATM   18  C13 UNL     1      27.695  -1.170  52.869  1.00  0.00     0.037 A 
HETATM   19  C14 UNL     1      28.568  -0.469  53.684  1.00  0.00     0.065 A 
HETATM   20  C15 UNL     1      27.976   0.174  54.768  1.00  0.00     0.037 A 
HETATM   21  C16 UNL     1      26.626   0.157  55.069  1.00  0.00     0.010 A 
BRANCH  19  22
HETATM   22  O2  UNL     1      29.920  -0.397  53.463  1.00  0.00    -0.361 OA
HETATM   23  H17 UNL     1      30.227  -0.044  52.553  1.00  0.00     0.217 HD
ENDBRANCH  19  22
ENDBRANCH  15  16
ENDBRANCH  14  15
ENDBRANCH  13  14
ENDBRANCH   7  13
BRANCH   1  24
HETATM   24  C2  UNL     1      27.269   6.355  48.377  1.00  0.00     0.060 C 
BRANCH  24  25
HETATM   25  C1  UNL     1      28.665   6.932  48.274  1.00  0.00     0.270 C 
BRANCH  25  26
HETATM   26  N1  UNL     1      29.553   5.974  48.909  1.00  0.00     0.078 N 
HETATM   27  H1  UNL     1      29.392   5.996  49.939  1.00  0.00     0.312 HD
HETATM   28  H2  UNL     1      30.560   6.178  48.724  1.00  0.00     0.312 HD
ENDBRANCH  25  26
ENDBRANCH  24  25
ENDBRANCH   1  24
TORSDOF 8
ENDMDL
MODEL 2
REMARK VINA RESULT:      -7.4      3.377      5.805
REMARK  8 active torsions:
REMARK  status: ('A' for Active; 'I' for Inactive)
REMARK    1  A    between atoms: N1_1  and  C1_2 
REMARK    2  A    between atoms: C1_2  and  C2_3 
REMARK    3  A    between atoms: C2_3  and  C3_4 
REMARK    4  A    between atoms: C8_10  and  O1_11 
REMARK    5  A    between atoms: O1_11  and  C9_12 
REMARK    6  A    between atoms: C9_12  and  C10_13 
REMARK    7  A    between atoms: C10_13  and  C11_14 
REMARK    8  A    between atoms: C14_17  and  O2_18 
ROOT
HETATM    1  C3  UNL     1      28.553   0.549  54.412  1.00  0.00     0.023 C 
HETATM    2  C4  UNL     1      27.603   1.172  53.732  1.00  0.00     0.102 A 
HETATM    3  N2  UNL     1      27.593   1.456  52.339  1.00  0.00    -0.341 N 
HETATM    4  C5  UNL     1      26.382   2.139  52.032  1.00  0.00     0.060 A 
HETATM    5  C6  UNL     1      25.861   2.642  50.855  1.00  0.00     0.035 A 
HETATM    6  C7  UNL     1      24.614   3.276  50.885  1.00  0.00     0.039 A 
HETATM    7  C8  UNL     1      23.898   3.404  52.081  1.00  0.00     0.071 A 
HETATM    8  C17 UNL     1      24.443   2.892  53.242  1.00  0.00     0.068 A 
HETATM    9  C18 UNL     1      25.675   2.264  53.222  1.00  0.00     0.063 A 
HETATM   10  N3  UNL     1      26.400   1.677  54.297  1.00  0.00    -0.341 N 
HETATM   11  H8  UNL     1      28.312   1.231  51.621  1.00  0.00     0.167 HD
HETATM   12  H21 UNL     1      26.120   1.622  55.296  1.00  0.00     0.167 HD
ENDROOT
BRANCH   7  13
HETATM   13  O1  UNL     1      22.709   4.056  51.873  1.00  0.00    -0.351 OA
BRANCH  13  14
HETATM   14  C9  UNL     1      21.435   3.620  52.284  1.00  0.00     0.180 C 
BRANCH  14  15
HETATM   15  C10 UNL     1      21.219   2.269  51.645  1.00  0.00     0.065 C 
BRANCH  15  16
HETATM   16  C11 UNL     1      21.401   1.132  52.550  1.00  0.00    -0.056 A 
HETATM   17  C12 UNL     1      20.706   1.120  53.740  1.00  0.00     0.010 A 
HETATM   18  C13 UNL     1      20.870   0.054  54.602  1.00  0.00     0.037 A 
HETATM   19  C14 UNL     1      21.709  -1.011  54.317  1.00  0.00     0.065 A 
HETATM   20  C15 UNL     1      22.375  -0.926  53.096  1.00  0.00     0.037 A 
HETATM   21  C16 UNL     1      22.256   0.112  52.189  1.00  0.00     0.010 A 
BRANCH  19  22
HETATM   22  O2  UNL     1      21.888  -2.081  55.154  1.00  0.00    -0.361 OA
HETATM   23  H17 UNL     1      21.899  -1.892  56.160  1.00  0.00     0.217 HD
ENDBRANCH  19  22
ENDBRANCH  15  16
ENDBRANCH  14  15
ENDBRANCH  13  14
ENDBRANCH   7  13
BRANCH   1  24
HETATM   24  C2  UNL     1      29.784   0.049  53.745  1.00  0.00     0.060 C 
BRANCH  24  25
HETATM   25  C1  UNL     1      29.883  -1.461  53.778  1.00  0.00     0.270 C 
BRANCH  25  26
HETATM   26  N1  UNL     1      28.600  -1.966  53.323  1.00  0.00     0.078 N 
HETATM   27  H1  UNL     1      27.995  -1.160  53.055  1.00  0.00     0.312 HD
HETATM   28  H2  UNL     1      28.108  -2.524  54.055  1.00  0.00     0.312 HD
ENDBRANCH  25  26
ENDBRANCH  24  25
ENDBRANCH   1  24
TORSDOF 8
ENDMDL
MODEL 3
REMARK VINA RESULT:      -7.3      1.630      2.265
REMARK  8 active torsions:
REMARK  status: ('A' for Active; 'I' for Inactive)
REMARK    1  A    between atoms: N1_1  and  C1_2 
REMARK    2  A    between atoms: C1_2  and  C2_3 
REMARK    3  A    between atoms: C2_3  and  C3_4 
REMARK    4  A    between atoms: C8_10  and  O1_11 
REMARK    5  A    between atoms: O1_11  and  C9_12 
REMARK    6  A    between atoms: C9_12  and  C10_13 
REMARK    7  A    between atoms: C10_13  and  C11_14 
REMARK    8  A    between atoms: C14_17  and  O2_18 
ROOT
HETATM    1  C3  UNL     1      28.429   6.616  48.103  1.00  0.00     0.023 C 
HETATM    2  C4  UNL     1      27.445   6.005  48.744  1.00  0.00     0.102 A 
HETATM    3  N2  UNL     1      26.355   6.616  49.423  1.00  0.00    -0.341 N 
HETATM    4  C5  UNL     1      25.536   5.587  49.969  1.00  0.00     0.060 A 
HETATM    5  C6  UNL     1      24.370   5.609  50.710  1.00  0.00     0.035 A 
HETATM    6  C7  UNL     1      23.796   4.395  51.103  1.00  0.00     0.039 A 
HETATM    7  C8  UNL     1      24.385   3.174  50.757  1.00  0.00     0.071 A 
HETATM    8  C17 UNL     1      25.549   3.181  50.015  1.00  0.00     0.068 A 
HETATM    9  C18 UNL     1      26.123   4.376  49.622  1.00  0.00     0.063 A 
HETATM   10  N3  UNL     1      27.308   4.595  48.864  1.00  0.00    -0.341 N 
HETATM   11  H8  UNL     1      26.141   7.628  49.537  1.00  0.00     0.167 HD
HETATM   12  H21 UNL     1      27.951   3.880  48.470  1.00  0.00     0.167 HD
ENDROOT
BRANCH   7  13
HETATM   13  O1  UNL     1      23.653   2.121  51.246  1.00  0.00    -0.351 OA
BRANCH  13  14
HETATM   14  C9  UNL     1      23.445   1.809  52.603  1.00  0.00     0.180 C 
BRANCH  14  15
HETATM   15  C10 UNL     1      24.173   0.510  52.859  1.00  0.00     0.065 C 
BRANCH  15  16
HETATM   16  C11 UNL     1      25.618   0.650  53.049  1.00  0.00    -0.056 A 
HETATM   17  C12 UNL     1      26.100   1.821  53.593  1.00  0.00     0.010 A 
HETATM   18  C13 UNL     1      27.460   1.965  53.778  1.00  0.00     0.037 A 
HETATM   19  C14 UNL     1      28.366   0.974  53.436  1.00  0.00     0.065 A 
HETATM   20  C15 UNL     1      27.802  -0.179  52.892  1.00  0.00     0.037 A 
HETATM   21  C16 UNL     1      26.450  -0.385  52.682  1.00  0.00     0.010 A 
BRANCH  19  22
HETATM   22  O2  UNL     1      29.721   1.092  53.608  1.00  0.00    -0.361 OA
HETATM   23  H17 UNL     1      30.154   1.974  53.324  1.00  0.00     0.217 HD
ENDBRANCH  19  22
ENDBRANCH  15  16
ENDBRANCH  14  15
ENDBRANCH  13  14
ENDBRANCH   7  13
BRANCH   1  24
HETATM   24  C2  UNL     1      28.499   8.100  48.024  1.00  0.00     0.060 C 
BRANCH  24  25
HETATM   25  C1  UNL     1      29.593   8.670  48.901  1.00  0.00     0.270 C 
BRANCH  25  26
HETATM   26  N1  UNL     1      28.927   9.334  50.007  1.00  0.00     0.078 N 
HETATM   27  H1  UNL     1      27.922   9.470  49.765  1.00  0.00     0.312 HD
HETATM   28  H2  UNL     1      29.346  10.265  50.227  1.00  0.00     0.312 HD
ENDBRANCH  25  26
ENDBRANCH  24  25
ENDBRANCH   1  24
TORSDOF 8
ENDMDL
MODEL 4
REMARK VINA RESULT:      -7.2      4.335      6.866
REMARK  8 active torsions:
REMARK  status: ('A' for Active; 'I' for Inactive)
REMARK    1  A    between atoms: N1_1  and  C1_2 
REMARK    2  A    between atoms: C1_2  and  C2_3 
REMARK    3  A    between atoms: C2_3  and  C3_4 
REMARK    4  A    between atoms: C8_10  and  O1_11 
REMARK    5  A    between atoms: O1_11  and  C9_12 
REMARK    6  A    between atoms: C9_12  and  C10_13 
REMARK    7  A    between atoms: C10_13  and  C11_14 
REMARK    8  A    between atoms: C14_17  and  O2_18 
ROOT
HETATM    1  C3  UNL     1      27.623  -0.207  53.085  1.00  0.00     0.023 C 
HETATM    2  C4  UNL     1      26.338  -0.278  53.398  1.00  0.00     0.102 A 
HETATM    3  N2  UNL     1      25.759  -0.978  54.491  1.00  0.00    -0.341 N 
HETATM    4  C5  UNL     1      24.350  -0.786  54.449  1.00  0.00     0.060 A 
HETATM    5  C6  UNL     1      23.317  -1.230  55.252  1.00  0.00     0.035 A 
HETATM    6  C7  UNL     1      22.006  -0.856  54.936  1.00  0.00     0.039 A 
HETATM    7  C8  UNL     1      21.735  -0.046  53.828  1.00  0.00     0.071 A 
HETATM    8  C17 UNL     1      22.786   0.384  53.043  1.00  0.00     0.068 A 
HETATM    9  C18 UNL     1      24.084   0.019  53.347  1.00  0.00     0.063 A 
HETATM   10  N3  UNL     1      25.291   0.353  52.672  1.00  0.00    -0.341 N 
HETATM   11  H8  UNL     1      26.229  -1.549  55.224  1.00  0.00     0.167 HD
HETATM   12  H21 UNL     1      25.401   0.939  51.820  1.00  0.00     0.167 HD
ENDROOT
BRANCH   7  13
HETATM   13  O1  UNL     1      20.388   0.192  53.713  1.00  0.00    -0.351 OA
BRANCH  13  14
HETATM   14  C9  UNL     1      19.567  -0.168  52.627  1.00  0.00     0.180 C 
BRANCH  14  15
HETATM   15  C10 UNL     1      19.185   1.119  51.935  1.00  0.00     0.065 C 
BRANCH  15  16
HETATM   16  C11 UNL     1      20.160   1.593  50.951  1.00  0.00    -0.056 A 
HETATM   17  C12 UNL     1      20.579   0.723  49.968  1.00  0.00     0.010 A 
HETATM   18  C13 UNL     1      21.499   1.159  49.035  1.00  0.00     0.037 A 
HETATM   19  C14 UNL     1      22.020   2.441  49.047  1.00  0.00     0.065 A 
HETATM   20  C15 UNL     1      21.548   3.261  50.071  1.00  0.00     0.037 A 
HETATM   21  C16 UNL     1      20.629   2.887  51.035  1.00  0.00     0.010 A 
BRANCH  19  22
HETATM   22  O2  UNL     1      22.934   2.898  48.132  1.00  0.00    -0.361 OA
HETATM   23  H17 UNL     1      22.841   3.869  47.823  1.00  0.00     0.217 HD
ENDBRANCH  19  22
ENDBRANCH  15  16
ENDBRANCH  14  15
ENDBRANCH  13  14
ENDBRANCH   7  13
BRANCH   1  24
HETATM   24  C2  UNL     1      28.658  -0.898  53.899  1.00  0.00     0.060 C 
BRANCH  24  25
HETATM   25  C1  UNL     1      29.363  -1.990  53.124  1.00  0.00     0.270 C 
BRANCH  25  26
HETATM   26  N1  UNL     1      28.515  -3.166  53.206  1.00  0.00     0.078 N 
HETATM   27  H1  UNL     1      28.610  -3.713  52.323  1.00  0.00     0.312 HD
HETATM   28  H2  UNL     1      27.508  -2.925  53.342  1.00  0.00     0.312 HD
ENDBRANCH  25  26
ENDBRANCH  24  25
ENDBRANCH   1  24
TORSDOF 8
ENDMDL
MODEL 5
REMARK VINA RESULT:      -7.2      2.909      6.290
REMARK  8 active torsions:
REMARK  status: ('A' for Active; 'I' for Inactive)
REMARK    1  A    between atoms: N1_1  and  C1_2 
REMARK    2  A    between atoms: C1_2  and  C2_3 
REMARK    3  A    between atoms: C2_3  and  C3_4 
REMARK    4  A    between atoms: C8_10  and  O1_11 
REMARK    5  A    between atoms: O1_11  and  C9_12 
REMARK    6  A    between atoms: C9_12  and  C10_13 
REMARK    7  A    between atoms: C10_13  and  C11_14 
REMARK    8  A    between atoms: C14_17  and  O2_18 
ROOT
HETATM    1  C3  UNL     1      28.575   0.881  54.440  1.00  0.00     0.023 C 
HETATM    2  C4  UNL     1      27.347   1.115  54.005  1.00  0.00     0.102 A 
HETATM    3  N2  UNL     1      26.356   0.150  53.676  1.00  0.00    -0.341 N 
HETATM    4  C5  UNL     1      25.185   0.839  53.252  1.00  0.00     0.060 A 
HETATM    5  C6  UNL     1      23.944   0.407  52.825  1.00  0.00     0.035 A 
HETATM    6  C7  UNL     1      22.982   1.359  52.469  1.00  0.00     0.039 A 
HETATM    7  C8  UNL     1      23.262   2.728  52.541  1.00  0.00     0.071 A 
HETATM    8  C17 UNL     1      24.509   3.132  52.972  1.00  0.00     0.068 A 
HETATM    9  C18 UNL     1      25.466   2.199  53.324  1.00  0.00     0.063 A 
HETATM   10  N3  UNL     1      26.796   2.408  53.787  1.00  0.00    -0.341 N 
HETATM   11  H8  UNL     1      26.416  -0.888  53.716  1.00  0.00     0.167 HD
HETATM   12  H21 UNL     1      27.280   3.316  53.939  1.00  0.00     0.167 HD
ENDROOT
BRANCH   7  13
HETATM   13  O1  UNL     1      22.177   3.471  52.147  1.00  0.00    -0.351 OA
BRANCH  13  14
HETATM   14  C9  UNL     1      22.182   4.526  51.215  1.00  0.00     0.180 C 
BRANCH  14  15
HETATM   15  C10 UNL     1      22.779   3.970  49.943  1.00  0.00     0.065 C 
BRANCH  15  16
HETATM   16  C11 UNL     1      24.153   4.401  49.677  1.00  0.00    -0.056 A 
HETATM   17  C12 UNL     1      25.128   3.439  49.529  1.00  0.00     0.010 A 
HETATM   18  C13 UNL     1      26.427   3.833  49.278  1.00  0.00     0.037 A 
HETATM   19  C14 UNL     1      26.791   5.164  49.167  1.00  0.00     0.065 A 
HETATM   20  C15 UNL     1      25.750   6.077  49.328  1.00  0.00     0.037 A 
HETATM   21  C16 UNL     1      24.431   5.748  49.581  1.00  0.00     0.010 A 
BRANCH  19  22
HETATM   22  O2  UNL     1      28.073   5.582  48.917  1.00  0.00    -0.361 OA
HETATM   23  H17 UNL     1      28.833   4.968  49.222  1.00  0.00     0.217 HD
ENDBRANCH  19  22
ENDBRANCH  15  16
ENDBRANCH  14  15
ENDBRANCH  13  14
ENDBRANCH   7  13
BRANCH   1  24
HETATM   24  C2  UNL     1      29.075  -0.504  54.643  1.00  0.00     0.060 C 
BRANCH  24  25
HETATM   25  C1  UNL     1      29.598  -1.119  53.362  1.00  0.00     0.270 C 
BRANCH  25  26
HETATM   26  N1  UNL     1      29.057  -2.465  53.302  1.00  0.00     0.078 N 
HETATM   27  H1  UNL     1      29.777  -3.134  53.653  1.00  0.00     0.312 HD
HETATM   28  H2  UNL     1      28.786  -2.745  52.334  1.00  0.00     0.312 HD
ENDBRANCH  25  26
ENDBRANCH  24  25
ENDBRANCH   1  24
TORSDOF 8
ENDMDL
MODEL 6
REMARK VINA RESULT:      -7.2      3.958      6.214
REMARK  8 active torsions:
REMARK  status: ('A' for Active; 'I' for Inactive)
REMARK    1  A    between atoms: N1_1  and  C1_2 
REMARK    2  A    between atoms: C1_2  and  C2_3 
REMARK    3  A    between atoms: C2_3  and  C3_4 
REMARK    4  A    between atoms: C8_10  and  O1_11 
REMARK    5  A    between atoms: O1_11  and  C9_12 
REMARK    6  A    between atoms: C9_12  and  C10_13 
REMARK    7  A    between atoms: C10_13  and  C11_14 
REMARK    8  A    between atoms: C14_17  and  O2_18 
ROOT
HETATM    1  C3  UNL     1      18.741  -0.152  52.160  1.00  0.00     0.023 C 
HETATM    2  C4  UNL     1      19.863   0.543  52.258  1.00  0.00     0.102 A 
HETATM    3  N2  UNL     1      20.061   1.906  51.906  1.00  0.00    -0.341 N 
HETATM    4  C5  UNL     1      21.417   2.245  52.174  1.00  0.00     0.060 A 
HETATM    5  C6  UNL     1      22.141   3.412  52.024  1.00  0.00     0.035 A 
HETATM    6  C7  UNL     1      23.491   3.422  52.389  1.00  0.00     0.039 A 
HETATM    7  C8  UNL     1      24.109   2.274  52.898  1.00  0.00     0.071 A 
HETATM    8  C17 UNL     1      23.362   1.122  53.039  1.00  0.00     0.068 A 
HETATM    9  C18 UNL     1      22.027   1.103  52.680  1.00  0.00     0.063 A 
HETATM   10  N3  UNL     1      21.096   0.028  52.746  1.00  0.00    -0.341 N 
HETATM   11  H8  UNL     1      19.376   2.586  51.517  1.00  0.00     0.167 HD
HETATM   12  H21 UNL     1      21.267  -0.941  53.081  1.00  0.00     0.167 HD
ENDROOT
BRANCH   7  13
HETATM   13  O1  UNL     1      25.429   2.515  53.186  1.00  0.00    -0.351 OA
BRANCH  13  14
HETATM   14  C9  UNL     1      26.515   2.377  52.301  1.00  0.00     0.180 C 
BRANCH  14  15
HETATM   15  C10 UNL     1      27.694   1.936  53.135  1.00  0.00     0.065 C 
BRANCH  15  16
HETATM   16  C11 UNL     1      27.924   0.490  53.145  1.00  0.00    -0.056 A 
HETATM   17  C12 UNL     1      29.156   0.022  53.547  1.00  0.00     0.010 A 
HETATM   18  C13 UNL     1      29.385  -1.340  53.561  1.00  0.00     0.037 A 
HETATM   19  C14 UNL     1      28.420  -2.259  53.186  1.00  0.00     0.065 A 
HETATM   20  C15 UNL     1      27.201  -1.709  52.793  1.00  0.00     0.037 A 
HETATM   21  C16 UNL     1      26.909  -0.358  52.757  1.00  0.00     0.010 A 
BRANCH  19  22
HETATM   22  O2  UNL     1      28.622  -3.616  53.191  1.00  0.00    -0.361 OA
HETATM   23  H17 UNL     1      29.455  -3.967  52.712  1.00  0.00     0.217 HD
ENDBRANCH  19  22
ENDBRANCH  15  16
ENDBRANCH  14  15
ENDBRANCH  13  14
ENDBRANCH   7  13
BRANCH   1  24
HETATM   24  C2  UNL     1      17.491   0.463  51.637  1.00  0.00     0.060 C 
BRANCH  24  25
HETATM   25  C1  UNL     1      17.147  -0.029  50.248  1.00  0.00     0.270 C 
BRANCH  25  26
HETATM   26  N1  UNL     1      17.710   0.935  49.320  1.00  0.00     0.078 N 
HETATM   27  H1  UNL     1      18.585   0.540  48.912  1.00  0.00     0.312 HD
HETATM   28  H2  UNL     1      17.936   1.846  49.777  1.00  0.00     0.312 HD
ENDBRANCH  25  26
ENDBRANCH  24  25
ENDBRANCH   1  24
TORSDOF 8
ENDMDL
MODEL 7
REMARK VINA RESULT:      -7.1      4.852      7.638
REMARK  8 active torsions:
REMARK  status: ('A' for Active; 'I' for Inactive)
REMARK    1  A    between atoms: N1_1  and  C1_2 
REMARK    2  A    between atoms: C1_2  and  C2_3 
REMARK    3  A    between atoms: C2_3  and  C3_4 
REMARK    4  A    between atoms: C8_10  and  O1_11 
REMARK    5  A    between atoms: O1_11  and  C9_12 
REMARK    6  A    between atoms: C9_12  and  C10_13 
REMARK    7  A    between atoms: C10_13  and  C11_14 
REMARK    8  A    between atoms: C14_17  and  O2_18 
ROOT
HETATM    1  C3  UNL     1      17.762  -1.512  53.309  1.00  0.00     0.023 C 
HETATM    2  C4  UNL     1      18.901  -0.906  53.012  1.00  0.00     0.102 A 
HETATM    3  N2  UNL     1      19.199  -0.175  51.830  1.00  0.00    -0.341 N 
HETATM    4  C5  UNL     1      20.535   0.306  51.927  1.00  0.00     0.060 A 
HETATM    5  C6  UNL     1      21.326   1.060  51.081  1.00  0.00     0.035 A 
HETATM    6  C7  UNL     1      22.631   1.374  51.476  1.00  0.00     0.039 A 
HETATM    7  C8  UNL     1      23.137   0.938  52.706  1.00  0.00     0.071 A 
HETATM    8  C17 UNL     1      22.324   0.188  53.533  1.00  0.00     0.068 A 
HETATM    9  C18 UNL     1      21.034  -0.128  53.150  1.00  0.00     0.063 A 
HETATM   10  N3  UNL     1      20.050  -0.882  53.849  1.00  0.00    -0.341 N 
HETATM   11  H8  UNL     1      18.592   0.010  51.005  1.00  0.00     0.167 HD
HETATM   12  H21 UNL     1      20.139  -1.331  54.783  1.00  0.00     0.167 HD
ENDROOT
BRANCH   7  13
HETATM   13  O1  UNL     1      24.430   1.362  52.882  1.00  0.00    -0.351 OA
BRANCH  13  14
HETATM   14  C9  UNL     1      25.350   1.677  51.865  1.00  0.00     0.180 C 
BRANCH  14  15
HETATM   15  C10 UNL     1      26.721   1.626  52.498  1.00  0.00     0.065 C 
BRANCH  15  16
HETATM   16  C11 UNL     1      27.244   0.275  52.708  1.00  0.00    -0.056 A 
HETATM   17  C12 UNL     1      28.443   0.128  53.370  1.00  0.00     0.010 A 
HETATM   18  C13 UNL     1      28.946  -1.142  53.574  1.00  0.00     0.037 A 
HETATM   19  C14 UNL     1      28.289  -2.280  53.137  1.00  0.00     0.065 A 
HETATM   20  C15 UNL     1      27.084  -2.050  52.477  1.00  0.00     0.037 A 
HETATM   21  C16 UNL     1      26.526  -0.806  52.241  1.00  0.00     0.010 A 
BRANCH  19  22
HETATM   22  O2  UNL     1      28.767  -3.551  53.328  1.00  0.00    -0.361 OA
HETATM   23  H17 UNL     1      28.286  -4.133  54.018  1.00  0.00     0.217 HD
ENDBRANCH  19  22
ENDBRANCH  15  16
ENDBRANCH  14  15
ENDBRANCH  13  14
ENDBRANCH   7  13
BRANCH   1  24
HETATM   24  C2  UNL     1      16.605  -1.489  52.376  1.00  0.00     0.060 C 
BRANCH  24  25
HETATM   25  C1  UNL     1      15.569  -2.537  52.720  1.00  0.00     0.270 C 
BRANCH  25  26
HETATM   26  N1  UNL     1      14.362  -2.175  51.998  1.00  0.00     0.078 N 
HETATM   27  H1  UNL     1      13.680  -2.961  52.065  1.00  0.00     0.312 HD
HETATM   28  H2  UNL     1      14.544  -1.976  50.989  1.00  0.00     0.312 HD
ENDBRANCH  25  26
ENDBRANCH  24  25
ENDBRANCH   1  24
TORSDOF 8
ENDMDL
MODEL 8
REMARK VINA RESULT:      -7.0      5.137      7.928
REMARK  8 active torsions:
REMARK  status: ('A' for Active; 'I' for Inactive)
REMARK    1  A    between atoms: N1_1  and  C1_2 
REMARK    2  A    between atoms: C1_2  and  C2_3 
REMARK    3  A    between atoms: C2_3  and  C3_4 
REMARK    4  A    between atoms: C8_10  and  O1_11 
REMARK    5  A    between atoms: O1_11  and  C9_12 
REMARK    6  A    between atoms: C9_12  and  C10_13 
REMARK    7  A    between atoms: C10_13  and  C11_14 
REMARK    8  A    between atoms: C14_17  and  O2_18 
ROOT
HETATM    1  C3  UNL     1      17.175  -0.762  52.350  1.00  0.00     0.023 C 
HETATM    2  C4  UNL     1      18.451  -0.667  52.690  1.00  0.00     0.102 A 
HETATM    3  N2  UNL     1      19.110  -1.353  53.745  1.00  0.00    -0.341 N 
HETATM    4  C5  UNL     1      20.477  -0.954  53.753  1.00  0.00     0.060 A 
HETATM    5  C6  UNL     1      21.552  -1.300  54.548  1.00  0.00     0.035 A 
HETATM    6  C7  UNL     1      22.798  -0.717  54.293  1.00  0.00     0.039 A 
HETATM    7  C8  UNL     1      22.963   0.203  53.251  1.00  0.00     0.071 A 
HETATM    8  C17 UNL     1      21.872   0.530  52.471  1.00  0.00     0.068 A 
HETATM    9  C18 UNL     1      20.637  -0.041  52.717  1.00  0.00     0.063 A 
HETATM   10  N3  UNL     1      19.403   0.162  52.036  1.00  0.00    -0.341 N 
HETATM   11  H8  UNL     1      18.719  -2.037  54.425  1.00  0.00     0.167 HD
HETATM   12  H21 UNL     1      19.221   0.786  51.225  1.00  0.00     0.167 HD
ENDROOT
BRANCH   7  13
HETATM   13  O1  UNL     1      24.262   0.642  53.186  1.00  0.00    -0.351 OA
BRANCH  13  14
HETATM   14  C9  UNL     1      25.026   0.819  52.017  1.00  0.00     0.180 C 
BRANCH  14  15
HETATM   15  C10 UNL     1      26.282   0.000  52.199  1.00  0.00     0.065 C 
BRANCH  15  16
HETATM   16  C11 UNL     1      27.331   0.661  52.978  1.00  0.00    -0.056 A 
HETATM   17  C12 UNL     1      28.102  -0.103  53.827  1.00  0.00     0.010 A 
HETATM   18  C13 UNL     1      29.094   0.508  54.566  1.00  0.00     0.037 A 
HETATM   19  C14 UNL     1      29.348   1.868  54.489  1.00  0.00     0.065 A 
HETATM   20  C15 UNL     1      28.528   2.572  53.610  1.00  0.00     0.037 A 
HETATM   21  C16 UNL     1      27.518   2.020  52.842  1.00  0.00     0.010 A 
BRANCH  19  22
HETATM   22  O2  UNL     1      30.327   2.499  55.212  1.00  0.00    -0.361 OA
HETATM   23  H17 UNL     1      30.792   1.956  55.944  1.00  0.00     0.217 HD
ENDBRANCH  19  22
ENDBRANCH  15  16
ENDBRANCH  14  15
ENDBRANCH  13  14
ENDBRANCH   7  13
BRANCH   1  24
HETATM   24  C2  UNL     1      16.241  -1.656  53.087  1.00  0.00     0.060 C 
BRANCH  24  25
HETATM   25  C1  UNL     1      14.965  -1.915  52.315  1.00  0.00     0.270 C 
BRANCH  25  26
HETATM   26  N1  UNL     1      14.432  -3.170  52.813  1.00  0.00     0.078 N 
HETATM   27  H1  UNL     1      13.441  -3.263  52.501  1.00  0.00     0.312 HD
HETATM   28  H2  UNL     1      14.461  -3.232  53.855  1.00  0.00     0.312 HD
ENDBRANCH  25  26
ENDBRANCH  24  25
ENDBRANCH   1  24
TORSDOF 8
ENDMDL
MODEL 9
REMARK VINA RESULT:      -7.0      4.881      8.261
REMARK  8 active torsions:
REMARK  status: ('A' for Active; 'I' for Inactive)
REMARK    1  A    between atoms: N1_1  and  C1_2 
REMARK    2  A    between atoms: C1_2  and  C2_3 
REMARK    3  A    between atoms: C2_3  and  C3_4 
REMARK    4  A    between atoms: C8_10  and  O1_11 
REMARK    5  A    between atoms: O1_11  and  C9_12 
REMARK    6  A    between atoms: C9_12  and  C10_13 
REMARK    7  A    between atoms: C10_13  and  C11_14 
REMARK    8  A    between atoms: C14_17  and  O2_18 
ROOT
HETATM    1  C3  UNL     1      27.862  -0.033  53.158  1.00  0.00     0.023 C 
HETATM    2  C4  UNL     1      26.576  -0.176  53.438  1.00  0.00     0.102 A 
HETATM    3  N2  UNL     1      26.013  -0.825  54.571  1.00  0.00    -0.341 N 
HETATM    4  C5  UNL     1      24.595  -0.746  54.473  1.00  0.00     0.060 A 
HETATM    5  C6  UNL     1      23.571  -1.200  55.282  1.00  0.00     0.035 A 
HETATM    6  C7  UNL     1      22.248  -0.957  54.898  1.00  0.00     0.039 A 
HETATM    7  C8  UNL     1      21.955  -0.267  53.716  1.00  0.00     0.071 A 
HETATM    8  C17 UNL     1      22.998   0.176  52.927  1.00  0.00     0.068 A 
HETATM    9  C18 UNL     1      24.309  -0.060  53.298  1.00  0.00     0.063 A 
HETATM   10  N3  UNL     1      25.511   0.308  52.631  1.00  0.00    -0.341 N 
HETATM   11  H8  UNL     1      26.499  -1.293  55.364  1.00  0.00     0.167 HD
HETATM   12  H21 UNL     1      25.606   0.827  51.735  1.00  0.00     0.167 HD
ENDROOT
BRANCH   7  13
HETATM   13  O1  UNL     1      20.600  -0.145  53.542  1.00  0.00    -0.351 OA
BRANCH  13  14
HETATM   14  C9  UNL     1      19.938   0.862  52.814  1.00  0.00     0.180 C 
BRANCH  14  15
HETATM   15  C10 UNL     1      19.572   0.254  51.480  1.00  0.00     0.065 C 
BRANCH  15  16
HETATM   16  C11 UNL     1      18.199  -0.247  51.397  1.00  0.00    -0.056 A 
HETATM   17  C12 UNL     1      17.486  -0.025  50.239  1.00  0.00     0.010 A 
HETATM   18  C13 UNL     1      16.190  -0.493  50.148  1.00  0.00     0.037 A 
HETATM   19  C14 UNL     1      15.574  -1.180  51.181  1.00  0.00     0.065 A 
HETATM   20  C15 UNL     1      16.359  -1.365  52.318  1.00  0.00     0.037 A 
HETATM   21  C16 UNL     1      17.660  -0.922  52.472  1.00  0.00     0.010 A 
BRANCH  19  22
HETATM   22  O2  UNL     1      14.290  -1.655  51.116  1.00  0.00    -0.361 OA
HETATM   23  H17 UNL     1      13.882  -2.020  51.981  1.00  0.00     0.217 HD
ENDBRANCH  19  22
ENDBRANCH  15  16
ENDBRANCH  14  15
ENDBRANCH  13  14
ENDBRANCH   7  13
BRANCH   1  24
HETATM   24  C2  UNL     1      28.917  -0.570  54.058  1.00  0.00     0.060 C 
BRANCH  24  25
HETATM   25  C1  UNL     1      29.775  -1.614  53.376  1.00  0.00     0.270 C 
BRANCH  25  26
HETATM   26  N1  UNL     1      28.973  -2.821  53.301  1.00  0.00     0.078 N 
HETATM   27  H1  UNL     1      28.884  -3.106  52.301  1.00  0.00     0.312 HD
HETATM   28  H2  UNL     1      28.016  -2.691  53.697  1.00  0.00     0.312 HD
ENDBRANCH  25  26
ENDBRANCH  24  25
ENDBRANCH   1  24
TORSDOF 8
ENDMDL
