MODEL 1
REMARK VINA RESULT:      -7.4      0.000      0.000
REMARK  4 active torsions:
REMARK  status: ('A' for Active; 'I' for Inactive)
REMARK    1  A    between atoms: O1_1  and  C1_2 
REMARK    2  A    between atoms: C2_3  and  C3_4 
REMARK    3  A    between atoms: C12_16  and  C13_17 
REMARK    4  A    between atoms: C13_17  and  N3_18 
ROOT
HETATM    1  C3  UNL     1      24.322   4.176  50.668  1.00  0.00    -0.045 A 
HETATM    2  C4  UNL     1      23.606   4.888  51.462  1.00  0.00     0.009 A 
HETATM    3  C5  UNL     1      23.290   3.780  52.361  1.00  0.00     0.147 A 
HETATM    4  N1  UNL     1      21.926   3.468  52.406  1.00  0.00    -0.273 NA
HETATM    5  C6  UNL     1      20.830   3.901  52.041  1.00  0.00     0.226 C 
HETATM    6  N2  UNL     1      19.407   3.611  52.070  1.00  0.00    -0.258 NA
HETATM    7  C7  UNL     1      19.100   2.708  51.135  1.00  0.00     0.099 C 
HETATM    8  C8  UNL     1      19.751   1.882  50.065  1.00  0.00     0.069 C 
HETATM    9  C9  UNL     1      20.577   1.273  49.192  1.00  0.00     0.160 C 
HETATM   10  O2  UNL     1      21.969   1.305  48.899  1.00  0.00    -0.382 OA
HETATM   11  C10 UNL     1      22.724   2.410  49.446  1.00  0.00     0.169 C 
HETATM   12  C11 UNL     1      23.342   1.887  50.729  1.00  0.00     0.045 C 
HETATM   13  C12 UNL     1      24.128   2.952  51.451  1.00  0.00     0.041 A 
ENDROOT
BRANCH  13  14
HETATM   14  C13 UNL     1      25.418   2.568  52.100  1.00  0.00     0.289 C 
BRANCH  14  15
HETATM   15  N3  UNL     1      25.702   1.259  52.457  1.00  0.00     0.089 N 
HETATM   16  C14 UNL     1      26.066   1.175  53.870  1.00  0.00     0.272 C 
HETATM   17  C15 UNL     1      27.530   0.968  54.005  1.00  0.00     0.030 C 
HETATM   18  C16 UNL     1      27.850  -0.477  53.660  1.00  0.00     0.003 C 
HETATM   19  C17 UNL     1      26.913  -0.846  52.537  1.00  0.00     0.030 C 
HETATM   20  C18 UNL     1      26.563   0.420  51.729  1.00  0.00     0.272 C 
ENDBRANCH  14  15
ENDBRANCH  13  14
BRANCH   1  21
HETATM   21  C2  UNL     1      25.030   4.559  49.459  1.00  0.00     0.031 C 
HETATM   22  C1  UNL     1      26.322   4.582  49.287  1.00  0.00     0.132 C 
BRANCH  22  23
HETATM   23  O1  UNL     1      27.591   4.382  49.789  1.00  0.00    -0.373 OA
HETATM   24  H1  UNL     1      28.412   4.170  49.253  1.00  0.00     0.216 HD
ENDBRANCH  22  23
ENDBRANCH   1  21
TORSDOF 4
ENDMDL
MODEL 2
REMARK VINA RESULT:      -7.0      2.811      4.425
REMARK  4 active torsions:
REMARK  status: ('A' for Active; 'I' for Inactive)
REMARK    1  A    between atoms: O1_1  and  C1_2 
REMARK    2  A    between atoms: C2_3  and  C3_4 
REMARK    3  A    between atoms: C12_16  and  C13_17 
REMARK    4  A    between atoms: C13_17  and  N3_18 
ROOT
HETATM    1  C3  UNL     1      21.763   1.012  52.594  1.00  0.00    -0.045 A 
HETATM    2  C4  UNL     1      21.458   0.499  51.457  1.00  0.00     0.009 A 
HETATM    3  C5  UNL     1      22.668   0.969  50.786  1.00  0.00     0.147 A 
HETATM    4  N1  UNL     1      22.416   1.876  49.749  1.00  0.00    -0.273 NA
HETATM    5  C6  UNL     1      21.486   2.339  49.084  1.00  0.00     0.226 C 
HETATM    6  N2  UNL     1      21.187   3.270  48.010  1.00  0.00    -0.258 NA
HETATM    7  C7  UNL     1      21.172   4.522  48.474  1.00  0.00     0.099 C 
HETATM    8  C8  UNL     1      21.374   5.287  49.750  1.00  0.00     0.069 C 
HETATM    9  C9  UNL     1      21.600   5.711  51.008  1.00  0.00     0.160 C 
HETATM   10  O2  UNL     1      21.917   5.108  52.256  1.00  0.00    -0.382 OA
HETATM   11  C10 UNL     1      21.724   3.678  52.355  1.00  0.00     0.169 C 
HETATM   12  C11 UNL     1      23.084   3.062  52.087  1.00  0.00     0.045 C 
HETATM   13  C12 UNL     1      23.034   1.556  52.104  1.00  0.00     0.041 A 
ENDROOT
BRANCH  13  14
HETATM   14  C13 UNL     1      24.168   0.813  52.732  1.00  0.00     0.289 C 
BRANCH  14  15
HETATM   15  N3  UNL     1      25.470   1.289  52.698  1.00  0.00     0.089 N 
HETATM   16  C14 UNL     1      26.347   0.346  52.006  1.00  0.00     0.272 C 
HETATM   17  C15 UNL     1      27.199  -0.369  52.990  1.00  0.00     0.030 C 
HETATM   18  C16 UNL     1      28.295   0.573  53.458  1.00  0.00     0.003 C 
HETATM   19  C17 UNL     1      27.657   1.938  53.532  1.00  0.00     0.030 C 
HETATM   20  C18 UNL     1      26.151   1.781  53.824  1.00  0.00     0.272 C 
ENDBRANCH  14  15
ENDBRANCH  13  14
BRANCH   1  21
HETATM   21  C2  UNL     1      21.036   0.990  53.851  1.00  0.00     0.031 C 
HETATM   22  C1  UNL     1      20.904  -0.026  54.657  1.00  0.00     0.132 C 
BRANCH  22  23
HETATM   23  O1  UNL     1      21.167  -1.346  54.957  1.00  0.00    -0.373 OA
HETATM   24  H1  UNL     1      20.538  -1.989  55.399  1.00  0.00     0.216 HD
ENDBRANCH  22  23
ENDBRANCH   1  21
TORSDOF 4
ENDMDL
MODEL 3
REMARK VINA RESULT:      -6.9      2.741      5.833
REMARK  4 active torsions:
REMARK  status: ('A' for Active; 'I' for Inactive)
REMARK    1  A    between atoms: O1_1  and  C1_2 
REMARK    2  A    between atoms: C2_3  and  C3_4 
REMARK    3  A    between atoms: C12_16  and  C13_17 
REMARK    4  A    between atoms: C13_17  and  N3_18 
ROOT
HETATM    1  C3  UNL     1      23.568   3.017  52.155  1.00  0.00    -0.045 A 
HETATM    2  C4  UNL     1      24.775   2.728  52.489  1.00  0.00     0.009 A 
HETATM    3  C5  UNL     1      24.774   1.428  51.822  1.00  0.00     0.147 A 
HETATM    4  N1  UNL     1      24.928   0.349  52.701  1.00  0.00    -0.273 NA
HETATM    5  C6  UNL     1      25.209   0.101  53.876  1.00  0.00     0.226 C 
HETATM    6  N2  UNL     1      25.380  -0.994  54.816  1.00  0.00    -0.258 NA
HETATM    7  C7  UNL     1      24.191  -1.416  55.254  1.00  0.00     0.099 C 
HETATM    8  C8  UNL     1      22.727  -1.135  55.084  1.00  0.00     0.069 C 
HETATM    9  C9  UNL     1      21.505  -0.677  54.748  1.00  0.00     0.160 C 
HETATM   10  O2  UNL     1      20.983   0.330  53.891  1.00  0.00    -0.382 OA
HETATM   11  C10 UNL     1      21.918   1.324  53.410  1.00  0.00     0.169 C 
HETATM   12  C11 UNL     1      22.353   0.846  52.038  1.00  0.00     0.045 C 
HETATM   13  C12 UNL     1      23.379   1.761  51.422  1.00  0.00     0.041 A 
ENDROOT
BRANCH  13  14
HETATM   14  C13 UNL     1      23.289   2.049  49.959  1.00  0.00     0.289 C 
BRANCH  14  15
HETATM   15  N3  UNL     1      22.093   1.965  49.263  1.00  0.00     0.089 N 
HETATM   16  C14 UNL     1      22.337   1.832  47.828  1.00  0.00     0.272 C 
HETATM   17  C15 UNL     1      22.030   3.112  47.141  1.00  0.00     0.030 C 
HETATM   18  C16 UNL     1      20.522   3.263  47.045  1.00  0.00     0.003 C 
HETATM   19  C17 UNL     1      19.971   2.689  48.327  1.00  0.00     0.030 C 
HETATM   20  C18 UNL     1      21.018   2.850  49.448  1.00  0.00     0.272 C 
ENDBRANCH  14  15
ENDBRANCH  13  14
BRANCH   1  21
HETATM   21  C2  UNL     1      22.778   4.200  52.449  1.00  0.00     0.031 C 
HETATM   22  C1  UNL     1      23.208   5.430  52.500  1.00  0.00     0.132 C 
BRANCH  22  23
HETATM   23  O1  UNL     1      24.245   6.331  52.390  1.00  0.00    -0.373 OA
HETATM   24  H1  UNL     1      24.271   7.254  52.782  1.00  0.00     0.216 HD
ENDBRANCH  22  23
ENDBRANCH   1  21
TORSDOF 4
ENDMDL
MODEL 4
REMARK VINA RESULT:      -6.8      2.967      4.943
REMARK  4 active torsions:
REMARK  status: ('A' for Active; 'I' for Inactive)
REMARK    1  A    between atoms: O1_1  and  C1_2 
REMARK    2  A    between atoms: C2_3  and  C3_4 
REMARK    3  A    between atoms: C12_16  and  C13_17 
REMARK    4  A    between atoms: C13_17  and  N3_18 
ROOT
HETATM    1  C3  UNL     1      23.071   2.723  49.138  1.00  0.00    -0.045 A 
HETATM    2  C4  UNL     1      24.299   3.092  49.058  1.00  0.00     0.009 A 
HETATM    3  C5  UNL     1      24.442   3.337  50.491  1.00  0.00     0.147 A 
HETATM    4  N1  UNL     1      24.704   4.676  50.807  1.00  0.00    -0.273 NA
HETATM    5  C6  UNL     1      25.001   5.747  50.273  1.00  0.00     0.226 C 
HETATM    6  N2  UNL     1      25.280   7.143  50.562  1.00  0.00    -0.258 NA
HETATM    7  C7  UNL     1      24.140   7.815  50.742  1.00  0.00     0.099 C 
HETATM    8  C8  UNL     1      22.656   7.596  50.751  1.00  0.00     0.069 C 
HETATM    9  C9  UNL     1      21.395   7.126  50.699  1.00  0.00     0.160 C 
HETATM   10  O2  UNL     1      20.774   5.868  50.460  1.00  0.00    -0.382 OA
HETATM   11  C10 UNL     1      21.601   4.835  49.876  1.00  0.00     0.169 C 
HETATM   12  C11 UNL     1      22.095   3.999  51.041  1.00  0.00     0.045 C 
HETATM   13  C12 UNL     1      23.023   2.899  50.592  1.00  0.00     0.041 A 
ENDROOT
BRANCH  13  14
HETATM   14  C13 UNL     1      22.913   1.562  51.251  1.00  0.00     0.289 C 
BRANCH  14  15
HETATM   15  N3  UNL     1      22.294   1.395  52.480  1.00  0.00     0.089 N 
HETATM   16  C14 UNL     1      23.217   0.803  53.448  1.00  0.00     0.272 C 
HETATM   17  C15 UNL     1      22.866  -0.622  53.676  1.00  0.00     0.030 C 
HETATM   18  C16 UNL     1      21.631  -0.684  54.558  1.00  0.00     0.003 C 
HETATM   19  C17 UNL     1      20.765   0.476  54.130  1.00  0.00     0.030 C 
HETATM   20  C18 UNL     1      21.036   0.793  52.646  1.00  0.00     0.272 C 
ENDBRANCH  14  15
ENDBRANCH  13  14
BRANCH   1  21
HETATM   21  C2  UNL     1      22.158   2.297  48.092  1.00  0.00     0.031 C 
HETATM   22  C1  UNL     1      20.984   1.756  48.256  1.00  0.00     0.132 C 
BRANCH  22  23
HETATM   23  O1  UNL     1      19.993   1.301  49.100  1.00  0.00    -0.373 OA
HETATM   24  H1  UNL     1      19.969   0.410  49.558  1.00  0.00     0.216 HD
ENDBRANCH  22  23
ENDBRANCH   1  21
TORSDOF 4
ENDMDL
MODEL 5
REMARK VINA RESULT:      -6.2      9.248     10.496
REMARK  4 active torsions:
REMARK  status: ('A' for Active; 'I' for Inactive)
REMARK    1  A    between atoms: O1_1  and  C1_2 
REMARK    2  A    between atoms: C2_3  and  C3_4 
REMARK    3  A    between atoms: C12_16  and  C13_17 
REMARK    4  A    between atoms: C13_17  and  N3_18 
ROOT
HETATM    1  C3  UNL     1      32.756   7.937  48.448  1.00  0.00    -0.045 A 
HETATM    2  C4  UNL     1      32.039   8.204  49.480  1.00  0.00     0.009 A 
HETATM    3  C5  UNL     1      30.960   7.290  49.113  1.00  0.00     0.147 A 
HETATM    4  N1  UNL     1      29.741   7.934  48.866  1.00  0.00    -0.273 NA
HETATM    5  C6  UNL     1      29.198   9.035  48.982  1.00  0.00     0.226 C 
HETATM    6  N2  UNL     1      27.948   9.736  48.742  1.00  0.00    -0.258 NA
HETATM    7  C7  UNL     1      27.852  10.084  47.456  1.00  0.00     0.099 C 
HETATM    8  C8  UNL     1      28.614   9.976  46.167  1.00  0.00     0.069 C 
HETATM    9  C9  UNL     1      29.493   9.742  45.174  1.00  0.00     0.160 C 
HETATM   10  O2  UNL     1      30.758   9.105  45.049  1.00  0.00    -0.382 OA
HETATM   11  C10 UNL     1      31.473   8.831  46.275  1.00  0.00     0.169 C 
HETATM   12  C11 UNL     1      31.152   7.390  46.623  1.00  0.00     0.045 C 
HETATM   13  C12 UNL     1      31.790   6.967  47.921  1.00  0.00     0.041 A 
ENDROOT
BRANCH  13  14
HETATM   14  C13 UNL     1      32.365   5.592  48.016  1.00  0.00     0.289 C 
BRANCH  14  15
HETATM   15  N3  UNL     1      32.849   4.916  46.907  1.00  0.00     0.089 N 
HETATM   16  C14 UNL     1      33.080   3.507  47.219  1.00  0.00     0.272 C 
HETATM   17  C15 UNL     1      34.537   3.248  47.347  1.00  0.00     0.030 C 
HETATM   18  C16 UNL     1      35.150   3.219  45.958  1.00  0.00     0.003 C 
HETATM   19  C17 UNL     1      34.412   4.269  45.163  1.00  0.00     0.030 C 
HETATM   20  C18 UNL     1      33.917   5.374  46.118  1.00  0.00     0.272 C 
ENDBRANCH  14  15
ENDBRANCH  13  14
BRANCH   1  21
HETATM   21  C2  UNL     1      34.051   8.464  48.053  1.00  0.00     0.031 C 
HETATM   22  C1  UNL     1      35.217   7.960  48.341  1.00  0.00     0.132 C 
BRANCH  22  23
HETATM   23  O1  UNL     1      35.970   6.983  48.957  1.00  0.00    -0.373 OA
HETATM   24  H1  UNL     1      35.768   6.549  49.839  1.00  0.00     0.216 HD
ENDBRANCH  22  23
ENDBRANCH   1  21
TORSDOF 4
ENDMDL
MODEL 6
REMARK VINA RESULT:      -6.2      8.488     11.833
REMARK  4 active torsions:
REMARK  status: ('A' for Active; 'I' for Inactive)
REMARK    1  A    between atoms: O1_1  and  C1_2 
REMARK    2  A    between atoms: C2_3  and  C3_4 
REMARK    3  A    between atoms: C12_16  and  C13_17 
REMARK    4  A    between atoms: C13_17  and  N3_18 
ROOT
HETATM    1  C3  UNL     1      31.145   6.443  48.000  1.00  0.00    -0.045 A 
HETATM    2  C4  UNL     1      31.629   5.547  48.784  1.00  0.00     0.009 A 
HETATM    3  C5  UNL     1      32.972   6.122  48.806  1.00  0.00     0.147 A 
HETATM    4  N1  UNL     1      33.948   5.282  48.255  1.00  0.00    -0.273 NA
HETATM    5  C6  UNL     1      34.105   4.124  47.861  1.00  0.00     0.226 C 
HETATM    6  N2  UNL     1      35.092   3.223  47.290  1.00  0.00    -0.258 NA
HETATM    7  C7  UNL     1      35.213   3.440  45.978  1.00  0.00     0.099 C 
HETATM    8  C8  UNL     1      34.665   4.323  44.895  1.00  0.00     0.069 C 
HETATM    9  C9  UNL     1      34.015   5.227  44.137  1.00  0.00     0.160 C 
HETATM   10  O2  UNL     1      33.033   6.233  44.352  1.00  0.00    -0.382 OA
HETATM   11  C10 UNL     1      32.311   6.182  45.604  1.00  0.00     0.169 C 
HETATM   12  C11 UNL     1      33.027   7.149  46.528  1.00  0.00     0.045 C 
HETATM   13  C12 UNL     1      32.416   7.169  47.906  1.00  0.00     0.041 A 
ENDROOT
BRANCH  13  14
HETATM   14  C13 UNL     1      32.292   8.480  48.611  1.00  0.00     0.289 C 
BRANCH  14  15
HETATM   15  N3  UNL     1      31.229   9.341  48.385  1.00  0.00     0.089 N 
HETATM   16  C14 UNL     1      31.561  10.311  47.342  1.00  0.00     0.272 C 
HETATM   17  C15 UNL     1      31.817  11.641  47.950  1.00  0.00     0.030 C 
HETATM   18  C16 UNL     1      30.486  12.260  48.343  1.00  0.00     0.003 C 
HETATM   19  C17 UNL     1      29.630  11.115  48.827  1.00  0.00     0.030 C 
HETATM   20  C18 UNL     1      30.537  10.011  49.407  1.00  0.00     0.272 C 
ENDBRANCH  14  15
ENDBRANCH  13  14
BRANCH   1  21
HETATM   21  C2  UNL     1      29.802   6.587  47.468  1.00  0.00     0.031 C 
HETATM   22  C1  UNL     1      28.737   6.944  48.130  1.00  0.00     0.132 C 
BRANCH  22  23
HETATM   23  O1  UNL     1      28.148   7.325  49.317  1.00  0.00    -0.373 OA
HETATM   24  H1  UNL     1      27.866   6.713  50.060  1.00  0.00     0.216 HD
ENDBRANCH  22  23
ENDBRANCH   1  21
TORSDOF 4
ENDMDL
MODEL 7
REMARK VINA RESULT:      -6.0      7.502     10.621
REMARK  4 active torsions:
REMARK  status: ('A' for Active; 'I' for Inactive)
REMARK    1  A    between atoms: O1_1  and  C1_2 
REMARK    2  A    between atoms: C2_3  and  C3_4 
REMARK    3  A    between atoms: C12_16  and  C13_17 
REMARK    4  A    between atoms: C13_17  and  N3_18 
ROOT
HETATM    1  C3  UNL     1      29.116   7.247  47.052  1.00  0.00    -0.045 A 
HETATM    2  C4  UNL     1      29.294   7.654  45.847  1.00  0.00     0.009 A 
HETATM    3  C5  UNL     1      30.748   7.738  45.965  1.00  0.00     0.147 A 
HETATM    4  N1  UNL     1      31.247   9.038  45.821  1.00  0.00    -0.273 NA
HETATM    5  C6  UNL     1      30.891  10.170  45.485  1.00  0.00     0.226 C 
HETATM    6  N2  UNL     1      31.374  11.531  45.323  1.00  0.00    -0.258 NA
HETATM    7  C7  UNL     1      31.420  12.150  46.506  1.00  0.00     0.099 C 
HETATM    8  C8  UNL     1      31.144  11.892  47.959  1.00  0.00     0.069 C 
HETATM    9  C9  UNL     1      30.820  11.399  49.169  1.00  0.00     0.160 C 
HETATM   10  O2  UNL     1      30.342  10.161  49.682  1.00  0.00    -0.382 OA
HETATM   11  C10 UNL     1      29.806   9.223  48.721  1.00  0.00     0.169 C 
HETATM   12  C11 UNL     1      30.943   8.273  48.398  1.00  0.00     0.045 C 
HETATM   13  C12 UNL     1      30.550   7.255  47.359  1.00  0.00     0.041 A 
ENDROOT
BRANCH  13  14
HETATM   14  C13 UNL     1      31.031   5.850  47.520  1.00  0.00     0.289 C 
BRANCH  14  15
HETATM   15  N3  UNL     1      32.362   5.502  47.345  1.00  0.00     0.089 N 
HETATM   16  C14 UNL     1      32.478   4.297  46.524  1.00  0.00     0.272 C 
HETATM   17  C15 UNL     1      32.840   3.137  47.377  1.00  0.00     0.030 C 
HETATM   18  C16 UNL     1      34.312   3.240  47.739  1.00  0.00     0.003 C 
HETATM   19  C17 UNL     1      34.583   4.712  47.931  1.00  0.00     0.030 C 
HETATM   20  C18 UNL     1      33.290   5.412  48.395  1.00  0.00     0.272 C 
ENDBRANCH  14  15
ENDBRANCH  13  14
BRANCH   1  21
HETATM   21  C2  UNL     1      27.885   6.919  47.751  1.00  0.00     0.031 C 
HETATM   22  C1  UNL     1      27.704   5.938  48.589  1.00  0.00     0.132 C 
BRANCH  22  23
HETATM   23  O1  UNL     1      28.205   4.847  49.268  1.00  0.00    -0.373 OA
HETATM   24  H1  UNL     1      27.992   4.590  50.213  1.00  0.00     0.216 HD
ENDBRANCH  22  23
ENDBRANCH   1  21
TORSDOF 4
ENDMDL
MODEL 8
REMARK VINA RESULT:      -6.0      3.589      6.649
REMARK  4 active torsions:
REMARK  status: ('A' for Active; 'I' for Inactive)
REMARK    1  A    between atoms: O1_1  and  C1_2 
REMARK    2  A    between atoms: C2_3  and  C3_4 
REMARK    3  A    between atoms: C12_16  and  C13_17 
REMARK    4  A    between atoms: C13_17  and  N3_18 
ROOT
HETATM    1  C3  UNL     1      21.259   0.855  52.462  1.00  0.00    -0.045 A 
HETATM    2  C4  UNL     1      21.616   2.008  52.901  1.00  0.00     0.009 A 
HETATM    3  C5  UNL     1      20.553   2.732  52.207  1.00  0.00     0.147 A 
HETATM    4  N1  UNL     1      21.027   3.637  51.248  1.00  0.00    -0.273 NA
HETATM    5  C6  UNL     1      22.074   4.159  50.857  1.00  0.00     0.226 C 
HETATM    6  N2  UNL     1      22.601   5.094  49.877  1.00  0.00    -0.258 NA
HETATM    7  C7  UNL     1      22.728   4.497  48.689  1.00  0.00     0.099 C 
HETATM    8  C8  UNL     1      22.492   3.169  48.029  1.00  0.00     0.069 C 
HETATM    9  C9  UNL     1      22.189   1.899  47.700  1.00  0.00     0.160 C 
HETATM   10  O2  UNL     1      21.668   0.758  48.371  1.00  0.00    -0.382 OA
HETATM   11  C10 UNL     1      21.665   0.798  49.816  1.00  0.00     0.169 C 
HETATM   12  C11 UNL     1      20.274   1.256  50.210  1.00  0.00     0.045 C 
HETATM   13  C12 UNL     1      20.128   1.398  51.703  1.00  0.00     0.041 A 
ENDROOT
BRANCH  13  14
HETATM   14  C13 UNL     1      18.849   0.961  52.338  1.00  0.00     0.289 C 
BRANCH  14  15
HETATM   15  N3  UNL     1      18.372  -0.336  52.221  1.00  0.00     0.089 N 
HETATM   16  C14 UNL     1      17.313  -0.410  51.216  1.00  0.00     0.272 C 
HETATM   17  C15 UNL     1      15.993  -0.554  51.881  1.00  0.00     0.030 C 
HETATM   18  C16 UNL     1      15.854  -1.981  52.382  1.00  0.00     0.003 C 
HETATM   19  C17 UNL     1      17.230  -2.385  52.851  1.00  0.00     0.030 C 
HETATM   20  C18 UNL     1      17.998  -1.132  53.317  1.00  0.00     0.272 C 
ENDBRANCH  14  15
ENDBRANCH  13  14
BRANCH   1  21
HETATM   21  C2  UNL     1      21.841  -0.454  52.704  1.00  0.00     0.031 C 
HETATM   22  C1  UNL     1      21.673  -1.197  53.761  1.00  0.00     0.132 C 
BRANCH  22  23
HETATM   23  O1  UNL     1      21.104  -1.385  55.003  1.00  0.00    -0.373 OA
HETATM   24  H1  UNL     1      20.369  -2.029  55.225  1.00  0.00     0.216 HD
ENDBRANCH  22  23
ENDBRANCH   1  21
TORSDOF 4
ENDMDL
MODEL 9
REMARK VINA RESULT:      -6.0      3.002      3.624
REMARK  4 active torsions:
REMARK  status: ('A' for Active; 'I' for Inactive)
REMARK    1  A    between atoms: O1_1  and  C1_2 
REMARK    2  A    between atoms: C2_3  and  C3_4 
REMARK    3  A    between atoms: C12_16  and  C13_17 
REMARK    4  A    between atoms: C13_17  and  N3_18 
ROOT
HETATM    1  C3  UNL     1      24.830   6.120  49.646  1.00  0.00    -0.045 A 
HETATM    2  C4  UNL     1      24.442   7.071  50.418  1.00  0.00     0.009 A 
HETATM    3  C5  UNL     1      23.382   6.287  51.048  1.00  0.00     0.147 A 
HETATM    4  N1  UNL     1      22.098   6.790  50.808  1.00  0.00    -0.273 NA
HETATM    5  C6  UNL     1      21.526   7.779  50.344  1.00  0.00     0.226 C 
HETATM    6  N2  UNL     1      20.209   8.334  50.082  1.00  0.00    -0.258 NA
HETATM    7  C7  UNL     1      19.696   7.804  48.969  1.00  0.00     0.099 C 
HETATM    8  C8  UNL     1      20.035   6.808  47.898  1.00  0.00     0.069 C 
HETATM    9  C9  UNL     1      20.585   5.885  47.086  1.00  0.00     0.160 C 
HETATM   10  O2  UNL     1      21.800   5.146  47.041  1.00  0.00    -0.382 OA
HETATM   11  C10 UNL     1      22.875   5.612  47.889  1.00  0.00     0.169 C 
HETATM   12  C11 UNL     1      22.796   4.771  49.149  1.00  0.00     0.045 C 
HETATM   13  C12 UNL     1      23.833   5.177  50.164  1.00  0.00     0.041 A 
ENDROOT
BRANCH  13  14
HETATM   14  C13 UNL     1      24.522   4.106  50.945  1.00  0.00     0.289 C 
BRANCH  14  15
HETATM   15  N3  UNL     1      23.820   3.111  51.609  1.00  0.00     0.089 N 
HETATM   16  C14 UNL     1      24.238   3.028  53.007  1.00  0.00     0.272 C 
HETATM   17  C15 UNL     1      25.086   1.827  53.213  1.00  0.00     0.030 C 
HETATM   18  C16 UNL     1      24.194   0.598  53.227  1.00  0.00     0.003 C 
HETATM   19  C17 UNL     1      23.113   0.865  52.208  1.00  0.00     0.030 C 
HETATM   20  C18 UNL     1      23.665   1.805  51.116  1.00  0.00     0.272 C 
ENDBRANCH  14  15
ENDBRANCH  13  14
BRANCH   1  21
HETATM   21  C2  UNL     1      25.894   6.099  48.657  1.00  0.00     0.031 C 
HETATM   22  C1  UNL     1      27.045   6.705  48.739  1.00  0.00     0.132 C 
BRANCH  22  23
HETATM   23  O1  UNL     1      27.915   7.512  49.440  1.00  0.00    -0.373 OA
HETATM   24  H1  UNL     1      28.453   8.269  49.063  1.00  0.00     0.216 HD
ENDBRANCH  22  23
ENDBRANCH   1  21
TORSDOF 4
ENDMDL
