MODEL 1
REMARK VINA RESULT:      -8.0      0.000      0.000
REMARK  6 active torsions:
REMARK  status: ('A' for Active; 'I' for Inactive)
REMARK    1  A    between atoms: C2_2  and  C3_3 
REMARK    2  A    between atoms: C2_2  and  C4_5 
REMARK    3  A    between atoms: C4_5  and  C5_6 
REMARK    4  A    between atoms: C5_6  and  C6_7 
REMARK    5  A    between atoms: C6_7  and  C7_8 
REMARK    6  A    between atoms: C10_11  and  N1_12 
ROOT
HETATM    1  C7  UNL     1      24.871   0.378  52.653  1.00  0.00     0.035 A 
HETATM    2  C8  UNL     1      24.125   1.414  52.123  1.00  0.00     0.045 A 
HETATM    3  C9  UNL     1      22.790   1.457  52.466  1.00  0.00     0.042 A 
HETATM    4  C10 UNL     1      22.050   2.483  51.943  1.00  0.00     0.142 A 
HETATM    5  N2  UNL     1      20.735   2.552  52.261  1.00  0.00    -0.224 NA
HETATM    6  C16 UNL     1      20.178   1.617  53.082  1.00  0.00     0.236 A 
HETATM    7  N3  UNL     1      20.939   0.610  53.586  1.00  0.00    -0.240 NA
HETATM    8  C17 UNL     1      22.248   0.497  53.301  1.00  0.00     0.089 A 
HETATM    9  C18 UNL     1      23.043  -0.523  53.804  1.00  0.00     0.149 A 
HETATM   10  N4  UNL     1      24.360  -0.568  53.468  1.00  0.00    -0.263 NA
ENDROOT
BRANCH   4  11
HETATM   11  N1  UNL     1      22.518   3.507  51.083  1.00  0.00    -0.330 N 
HETATM   12  C11 UNL     1      22.488   3.425  49.631  1.00  0.00     0.156 C 
HETATM   13  C12 UNL     1      23.890   3.497  49.082  1.00  0.00     0.012 C 
HETATM   14  C13 UNL     1      24.835   4.179  49.737  1.00  0.00     0.014 C 
HETATM   15 CL1  UNL     1      26.515   4.358  49.230  1.00  0.00    -0.089 Cl
HETATM   16  C14 UNL     1      24.549   4.884  51.012  1.00  0.00     0.110 C 
HETATM   17  C15 UNL     1      23.098   4.793  51.415  1.00  0.00     0.278 C 
HETATM   18  F1  UNL     1      23.060   5.014  52.796  1.00  0.00    -0.226 F 
ENDBRANCH   4  11
BRANCH   1  19
HETATM   19  C6  UNL     1      26.319   0.234  52.351  1.00  0.00     0.059 C 
BRANCH  19  20
HETATM   20  C5  UNL     1      27.003  -0.732  53.263  1.00  0.00     0.007 C 
BRANCH  20  21
HETATM   21  C4  UNL     1      27.577  -0.142  54.504  1.00  0.00     0.011 C 
BRANCH  21  22
HETATM   22  C2  UNL     1      29.043   0.004  54.558  1.00  0.00     0.043 C 
HETATM   23  C1  UNL     1      29.734  -0.889  53.535  1.00  0.00     0.017 C 
BRANCH  22  24
HETATM   24  C3  UNL     1      29.384   1.399  54.151  1.00  0.00     0.235 C 
HETATM   25  O1  UNL     1      28.821   2.500  54.207  1.00  0.00    -0.306 OA
ENDBRANCH  22  24
ENDBRANCH  21  22
ENDBRANCH  20  21
ENDBRANCH  19  20
ENDBRANCH   1  19
TORSDOF 6
ENDMDL
MODEL 2
REMARK VINA RESULT:      -7.9      2.981      5.566
REMARK  6 active torsions:
REMARK  status: ('A' for Active; 'I' for Inactive)
REMARK    1  A    between atoms: C2_2  and  C3_3 
REMARK    2  A    between atoms: C2_2  and  C4_5 
REMARK    3  A    between atoms: C4_5  and  C5_6 
REMARK    4  A    between atoms: C5_6  and  C6_7 
REMARK    5  A    between atoms: C6_7  and  C7_8 
REMARK    6  A    between atoms: C10_11  and  N1_12 
ROOT
HETATM    1  C7  UNL     1      22.030   0.533  52.186  1.00  0.00     0.035 A 
HETATM    2  C8  UNL     1      23.322   0.426  52.669  1.00  0.00     0.045 A 
HETATM    3  C9  UNL     1      23.496  -0.324  53.813  1.00  0.00     0.042 A 
HETATM    4  C10 UNL     1      24.774  -0.432  54.292  1.00  0.00     0.142 A 
HETATM    5  N2  UNL     1      24.979  -1.162  55.415  1.00  0.00    -0.224 NA
HETATM    6  C16 UNL     1      23.928  -1.767  56.040  1.00  0.00     0.236 A 
HETATM    7  N3  UNL     1      22.671  -1.641  55.540  1.00  0.00    -0.240 NA
HETATM    8  C17 UNL     1      22.416  -0.928  54.429  1.00  0.00     0.089 A 
HETATM    9  C18 UNL     1      21.140  -0.786  53.901  1.00  0.00     0.149 A 
HETATM   10  N4  UNL     1      20.964  -0.048  52.774  1.00  0.00    -0.263 NA
ENDROOT
BRANCH   4  11
HETATM   11  N1  UNL     1      25.937   0.149  53.730  1.00  0.00    -0.330 N 
HETATM   12  C11 UNL     1      26.507   1.413  54.171  1.00  0.00     0.156 C 
HETATM   13  C12 UNL     1      26.496   2.406  53.036  1.00  0.00     0.012 C 
HETATM   14  C13 UNL     1      26.592   1.985  51.772  1.00  0.00     0.014 C 
HETATM   15 CL1  UNL     1      26.594   3.014  50.339  1.00  0.00    -0.089 Cl
HETATM   16  C14 UNL     1      26.713   0.544  51.434  1.00  0.00     0.110 C 
HETATM   17  C15 UNL     1      26.783  -0.337  52.657  1.00  0.00     0.278 C 
HETATM   18  F1  UNL     1      26.379  -1.612  52.247  1.00  0.00    -0.226 F 
ENDBRANCH   4  11
BRANCH   1  19
HETATM   19  C6  UNL     1      21.726   1.316  50.960  1.00  0.00     0.059 C 
BRANCH  19  20
HETATM   20  C5  UNL     1      22.947   1.927  50.352  1.00  0.00     0.007 C 
BRANCH  20  21
HETATM   21  C4  UNL     1      23.086   3.397  50.537  1.00  0.00     0.011 C 
BRANCH  21  22
HETATM   22  C2  UNL     1      22.441   3.986  51.725  1.00  0.00     0.043 C 
HETATM   23  C1  UNL     1      23.463   4.617  52.663  1.00  0.00     0.017 C 
BRANCH  22  24
HETATM   24  C3  UNL     1      21.579   5.117  51.270  1.00  0.00     0.235 C 
HETATM   25  O1  UNL     1      21.654   6.352  51.296  1.00  0.00    -0.306 OA
ENDBRANCH  22  24
ENDBRANCH  21  22
ENDBRANCH  20  21
ENDBRANCH  19  20
ENDBRANCH   1  19
TORSDOF 6
ENDMDL
MODEL 3
REMARK VINA RESULT:      -7.9      1.675      2.140
REMARK  6 active torsions:
REMARK  status: ('A' for Active; 'I' for Inactive)
REMARK    1  A    between atoms: C2_2  and  C3_3 
REMARK    2  A    between atoms: C2_2  and  C4_5 
REMARK    3  A    between atoms: C4_5  and  C5_6 
REMARK    4  A    between atoms: C5_6  and  C6_7 
REMARK    5  A    between atoms: C6_7  and  C7_8 
REMARK    6  A    between atoms: C10_11  and  N1_12 
ROOT
HETATM    1  C7  UNL     1      23.728   0.011  53.483  1.00  0.00     0.035 A 
HETATM    2  C8  UNL     1      22.729   0.516  52.670  1.00  0.00     0.045 A 
HETATM    3  C9  UNL     1      21.455   0.031  52.878  1.00  0.00     0.042 A 
HETATM    4  C10 UNL     1      20.466   0.530  52.074  1.00  0.00     0.142 A 
HETATM    5  N2  UNL     1      19.203   0.073  52.254  1.00  0.00    -0.224 NA
HETATM    6  C16 UNL     1      18.941  -0.860  53.213  1.00  0.00     0.236 A 
HETATM    7  N3  UNL     1      19.946  -1.336  53.995  1.00  0.00    -0.240 NA
HETATM    8  C17 UNL     1      21.215  -0.915  53.857  1.00  0.00     0.089 A 
HETATM    9  C18 UNL     1      22.255  -1.388  54.644  1.00  0.00     0.149 A 
HETATM   10  N4  UNL     1      23.512  -0.912  54.442  1.00  0.00    -0.263 NA
ENDROOT
BRANCH   4  11
HETATM   11  N1  UNL     1      20.617   1.496  51.050  1.00  0.00    -0.330 N 
HETATM   12  C11 UNL     1      20.783   1.168  49.642  1.00  0.00     0.156 C 
HETATM   13  C12 UNL     1      22.112   1.678  49.147  1.00  0.00     0.012 C 
HETATM   14  C13 UNL     1      22.661   2.767  49.693  1.00  0.00     0.014 C 
HETATM   15 CL1  UNL     1      24.204   3.487  49.229  1.00  0.00    -0.089 Cl
HETATM   16  C14 UNL     1      21.996   3.512  50.791  1.00  0.00     0.110 C 
HETATM   17  C15 UNL     1      20.644   2.943  51.146  1.00  0.00     0.278 C 
HETATM   18  F1  UNL     1      20.373   3.358  52.454  1.00  0.00    -0.226 F 
ENDBRANCH   4  11
BRANCH   1  19
HETATM   19  C6  UNL     1      25.137   0.463  53.347  1.00  0.00     0.059 C 
BRANCH  19  20
HETATM   20  C5  UNL     1      26.098  -0.677  53.239  1.00  0.00     0.007 C 
BRANCH  20  21
HETATM   21  C4  UNL     1      27.479  -0.312  52.822  1.00  0.00     0.011 C 
BRANCH  21  22
HETATM   22  C2  UNL     1      28.467  -0.098  53.896  1.00  0.00     0.043 C 
HETATM   23  C1  UNL     1      29.772  -0.832  53.611  1.00  0.00     0.017 C 
BRANCH  22  24
HETATM   24  C3  UNL     1      28.829   1.350  53.910  1.00  0.00     0.235 C 
HETATM   25  O1  UNL     1      28.222   2.412  54.095  1.00  0.00    -0.306 OA
ENDBRANCH  22  24
ENDBRANCH  21  22
ENDBRANCH  20  21
ENDBRANCH  19  20
ENDBRANCH   1  19
TORSDOF 6
ENDMDL
MODEL 4
REMARK VINA RESULT:      -7.8      2.656      4.141
REMARK  6 active torsions:
REMARK  status: ('A' for Active; 'I' for Inactive)
REMARK    1  A    between atoms: C2_2  and  C3_3 
REMARK    2  A    between atoms: C2_2  and  C4_5 
REMARK    3  A    between atoms: C4_5  and  C5_6 
REMARK    4  A    between atoms: C5_6  and  C6_7 
REMARK    5  A    between atoms: C6_7  and  C7_8 
REMARK    6  A    between atoms: C10_11  and  N1_12 
ROOT
HETATM    1  C7  UNL     1      25.364   1.057  51.970  1.00  0.00     0.035 A 
HETATM    2  C8  UNL     1      24.127   1.520  51.561  1.00  0.00     0.045 A 
HETATM    3  C9  UNL     1      24.120   2.606  50.712  1.00  0.00     0.042 A 
HETATM    4  C10 UNL     1      22.895   3.065  50.306  1.00  0.00     0.142 A 
HETATM    5  N2  UNL     1      22.855   4.131  49.471  1.00  0.00    -0.224 NA
HETATM    6  C16 UNL     1      24.012   4.720  49.054  1.00  0.00     0.236 A 
HETATM    7  N3  UNL     1      25.212   4.241  49.475  1.00  0.00    -0.240 NA
HETATM    8  C17 UNL     1      25.306   3.186  50.303  1.00  0.00     0.089 A 
HETATM    9  C18 UNL     1      26.521   2.680  50.744  1.00  0.00     0.149 A 
HETATM   10  N4  UNL     1      26.532   1.610  51.582  1.00  0.00    -0.263 NA
ENDROOT
BRANCH   4  11
HETATM   11  N1  UNL     1      21.633   2.536  50.671  1.00  0.00    -0.330 N 
HETATM   12  C11 UNL     1      20.767   3.127  51.680  1.00  0.00     0.156 C 
HETATM   13  C12 UNL     1      20.550   2.151  52.808  1.00  0.00     0.012 C 
HETATM   14  C13 UNL     1      20.576   0.835  52.574  1.00  0.00     0.014 C 
HETATM   15 CL1  UNL     1      20.342  -0.432  53.780  1.00  0.00    -0.089 Cl
HETATM   16  C14 UNL     1      20.813   0.286  51.215  1.00  0.00     0.110 C 
HETATM   17  C15 UNL     1      20.945   1.364  50.167  1.00  0.00     0.278 C 
HETATM   18  F1  UNL     1      21.652   0.793  49.103  1.00  0.00    -0.226 F 
ENDBRANCH   4  11
BRANCH   1  19
HETATM   19  C6  UNL     1      25.490  -0.107  52.885  1.00  0.00     0.059 C 
BRANCH  19  20
HETATM   20  C5  UNL     1      26.913  -0.436  53.203  1.00  0.00     0.007 C 
BRANCH  20  21
HETATM   21  C4  UNL     1      27.394   0.028  54.533  1.00  0.00     0.011 C 
BRANCH  21  22
HETATM   22  C2  UNL     1      28.848   0.225  54.687  1.00  0.00     0.043 C 
HETATM   23  C1  UNL     1      29.639  -0.708  53.778  1.00  0.00     0.017 C 
BRANCH  22  24
HETATM   24  C3  UNL     1      29.180   1.602  54.216  1.00  0.00     0.235 C 
HETATM   25  O1  UNL     1      28.575   2.679  54.131  1.00  0.00    -0.306 OA
ENDBRANCH  22  24
ENDBRANCH  21  22
ENDBRANCH  20  21
ENDBRANCH  19  20
ENDBRANCH   1  19
TORSDOF 6
ENDMDL
MODEL 5
REMARK VINA RESULT:      -7.5      2.233      3.589
REMARK  6 active torsions:
REMARK  status: ('A' for Active; 'I' for Inactive)
REMARK    1  A    between atoms: C2_2  and  C3_3 
REMARK    2  A    between atoms: C2_2  and  C4_5 
REMARK    3  A    between atoms: C4_5  and  C5_6 
REMARK    4  A    between atoms: C5_6  and  C6_7 
REMARK    5  A    between atoms: C6_7  and  C7_8 
REMARK    6  A    between atoms: C10_11  and  N1_12 
ROOT
HETATM    1  C7  UNL     1      22.712   0.981  51.855  1.00  0.00     0.035 A 
HETATM    2  C8  UNL     1      23.402   1.997  51.219  1.00  0.00     0.045 A 
HETATM    3  C9  UNL     1      22.957   2.360  49.966  1.00  0.00     0.042 A 
HETATM    4  C10 UNL     1      23.638   3.366  49.335  1.00  0.00     0.142 A 
HETATM    5  N2  UNL     1      23.225   3.745  48.101  1.00  0.00    -0.224 NA
HETATM    6  C16 UNL     1      22.157   3.130  47.517  1.00  0.00     0.236 A 
HETATM    7  N3  UNL     1      21.501   2.135  48.169  1.00  0.00    -0.240 NA
HETATM    8  C17 UNL     1      21.871   1.723  49.394  1.00  0.00     0.089 A 
HETATM    9  C18 UNL     1      21.216   0.707  50.077  1.00  0.00     0.149 A 
HETATM   10  N4  UNL     1      21.652   0.348  51.313  1.00  0.00    -0.263 NA
ENDROOT
BRANCH   4  11
HETATM   11  N1  UNL     1      24.756   4.074  49.841  1.00  0.00    -0.330 N 
HETATM   12  C11 UNL     1      24.678   5.405  50.422  1.00  0.00     0.156 C 
HETATM   13  C12 UNL     1      25.508   6.370  49.613  1.00  0.00     0.012 C 
HETATM   14  C13 UNL     1      26.592   5.940  48.960  1.00  0.00     0.014 C 
HETATM   15 CL1  UNL     1      27.664   6.937  47.974  1.00  0.00    -0.089 Cl
HETATM   16  C14 UNL     1      27.020   4.520  49.002  1.00  0.00     0.110 C 
HETATM   17  C15 UNL     1      26.148   3.675  49.899  1.00  0.00     0.278 C 
HETATM   18  F1  UNL     1      26.304   2.354  49.468  1.00  0.00    -0.226 F 
ENDBRANCH   4  11
BRANCH   1  19
HETATM   19  C6  UNL     1      23.104   0.510  53.209  1.00  0.00     0.059 C 
BRANCH  19  20
HETATM   20  C5  UNL     1      24.559   0.710  53.487  1.00  0.00     0.007 C 
BRANCH  20  21
HETATM   21  C4  UNL     1      25.309  -0.514  53.880  1.00  0.00     0.011 C 
BRANCH  21  22
HETATM   22  C2  UNL     1      26.632  -0.715  53.261  1.00  0.00     0.043 C 
HETATM   23  C1  UNL     1      26.733  -0.014  51.912  1.00  0.00     0.017 C 
BRANCH  22  24
HETATM   24  C3  UNL     1      27.652  -0.048  54.124  1.00  0.00     0.235 C 
HETATM   25  O1  UNL     1      28.619  -0.420  54.800  1.00  0.00    -0.306 OA
ENDBRANCH  22  24
ENDBRANCH  21  22
ENDBRANCH  20  21
ENDBRANCH  19  20
ENDBRANCH   1  19
TORSDOF 6
ENDMDL
MODEL 6
REMARK VINA RESULT:      -7.5      2.791      4.607
REMARK  6 active torsions:
REMARK  status: ('A' for Active; 'I' for Inactive)
REMARK    1  A    between atoms: C2_2  and  C3_3 
REMARK    2  A    between atoms: C2_2  and  C4_5 
REMARK    3  A    between atoms: C4_5  and  C5_6 
REMARK    4  A    between atoms: C5_6  and  C6_7 
REMARK    5  A    between atoms: C6_7  and  C7_8 
REMARK    6  A    between atoms: C10_11  and  N1_12 
ROOT
HETATM    1  C7  UNL     1      26.101   2.708  50.821  1.00  0.00     0.035 A 
HETATM    2  C8  UNL     1      24.719   2.673  50.778  1.00  0.00     0.045 A 
HETATM    3  C9  UNL     1      24.099   3.616  49.985  1.00  0.00     0.042 A 
HETATM    4  C10 UNL     1      22.731   3.582  49.942  1.00  0.00     0.142 A 
HETATM    5  N2  UNL     1      22.092   4.496  49.172  1.00  0.00    -0.224 NA
HETATM    6  C16 UNL     1      22.806   5.418  48.465  1.00  0.00     0.236 A 
HETATM    7  N3  UNL     1      24.164   5.425  48.530  1.00  0.00    -0.240 NA
HETATM    8  C17 UNL     1      24.845   4.540  49.278  1.00  0.00     0.089 A 
HETATM    9  C18 UNL     1      26.231   4.530  49.359  1.00  0.00     0.149 A 
HETATM   10  N4  UNL     1      26.845   3.603  50.139  1.00  0.00    -0.263 NA
ENDROOT
BRANCH   4  11
HETATM   11  N1  UNL     1      21.887   2.676  50.628  1.00  0.00    -0.330 N 
HETATM   12  C11 UNL     1      21.434   2.867  51.998  1.00  0.00     0.156 C 
HETATM   13  C12 UNL     1      21.929   1.738  52.866  1.00  0.00     0.012 C 
HETATM   14  C13 UNL     1      22.125   0.524  52.344  1.00  0.00     0.014 C 
HETATM   15 CL1  UNL     1      22.699  -0.895  53.222  1.00  0.00    -0.089 Cl
HETATM   16  C14 UNL     1      21.867   0.237  50.911  1.00  0.00     0.110 C 
HETATM   17  C15 UNL     1      21.310   1.428  50.170  1.00  0.00     0.278 C 
HETATM   18  F1  UNL     1      21.595   1.217  48.817  1.00  0.00    -0.226 F 
ENDBRANCH   4  11
BRANCH   1  19
HETATM   19  C6  UNL     1      26.873   1.739  51.642  1.00  0.00     0.059 C 
BRANCH  19  20
HETATM   20  C5  UNL     1      26.041   0.587  52.104  1.00  0.00     0.007 C 
BRANCH  20  21
HETATM   21  C4  UNL     1      26.802  -0.599  52.583  1.00  0.00     0.011 C 
BRANCH  21  22
HETATM   22  C2  UNL     1      28.101  -0.343  53.231  1.00  0.00     0.043 C 
HETATM   23  C1  UNL     1      27.928   0.092  54.682  1.00  0.00     0.017 C 
BRANCH  22  24
HETATM   24  C3  UNL     1      28.847  -1.634  53.298  1.00  0.00     0.235 C 
HETATM   25  O1  UNL     1      28.547  -2.833  53.237  1.00  0.00    -0.306 OA
ENDBRANCH  22  24
ENDBRANCH  21  22
ENDBRANCH  20  21
ENDBRANCH  19  20
ENDBRANCH   1  19
TORSDOF 6
ENDMDL
MODEL 7
REMARK VINA RESULT:      -7.3      2.399      5.269
REMARK  6 active torsions:
REMARK  status: ('A' for Active; 'I' for Inactive)
REMARK    1  A    between atoms: C2_2  and  C3_3 
REMARK    2  A    between atoms: C2_2  and  C4_5 
REMARK    3  A    between atoms: C4_5  and  C5_6 
REMARK    4  A    between atoms: C5_6  and  C6_7 
REMARK    5  A    between atoms: C6_7  and  C7_8 
REMARK    6  A    between atoms: C10_11  and  N1_12 
ROOT
HETATM    1  C7  UNL     1      21.631   1.537  50.360  1.00  0.00     0.035 A 
HETATM    2  C8  UNL     1      22.757   1.281  51.123  1.00  0.00     0.045 A 
HETATM    3  C9  UNL     1      22.582   0.498  52.244  1.00  0.00     0.042 A 
HETATM    4  C10 UNL     1      23.695   0.243  52.999  1.00  0.00     0.142 A 
HETATM    5  N2  UNL     1      23.556  -0.524  54.108  1.00  0.00    -0.224 NA
HETATM    6  C16 UNL     1      22.333  -1.021  54.449  1.00  0.00     0.236 A 
HETATM    7  N3  UNL     1      21.247  -0.750  53.678  1.00  0.00    -0.240 NA
HETATM    8  C17 UNL     1      21.332   0.004  52.569  1.00  0.00     0.089 A 
HETATM    9  C18 UNL     1      20.236   0.294  51.768  1.00  0.00     0.149 A 
HETATM   10  N4  UNL     1      20.404   1.065  50.662  1.00  0.00    -0.263 NA
ENDROOT
BRANCH   4  11
HETATM   11  N1  UNL     1      25.011   0.703  52.745  1.00  0.00    -0.330 N 
HETATM   12  C11 UNL     1      26.025  -0.080  52.055  1.00  0.00     0.156 C 
HETATM   13  C12 UNL     1      27.199  -0.321  52.969  1.00  0.00     0.012 C 
HETATM   14  C13 UNL     1      27.510   0.570  53.915  1.00  0.00     0.014 C 
HETATM   15 CL1  UNL     1      28.846   0.435  55.059  1.00  0.00    -0.089 Cl
HETATM   16  C14 UNL     1      26.726   1.816  54.104  1.00  0.00     0.110 C 
HETATM   17  C15 UNL     1      25.624   1.971  53.085  1.00  0.00     0.278 C 
HETATM   18  F1  UNL     1      24.685   2.841  53.650  1.00  0.00    -0.226 F 
ENDBRANCH   4  11
BRANCH   1  19
HETATM   19  C6  UNL     1      21.704   2.368  49.131  1.00  0.00     0.059 C 
BRANCH  19  20
HETATM   20  C5  UNL     1      23.108   2.715  48.755  1.00  0.00     0.007 C 
BRANCH  20  21
HETATM   21  C4  UNL     1      23.431   4.168  48.764  1.00  0.00     0.011 C 
BRANCH  21  22
HETATM   22  C2  UNL     1      24.487   4.612  49.694  1.00  0.00     0.043 C 
HETATM   23  C1  UNL     1      23.941   4.825  51.101  1.00  0.00     0.017 C 
BRANCH  22  24
HETATM   24  C3  UNL     1      25.482   3.507  49.825  1.00  0.00     0.235 C 
HETATM   25  O1  UNL     1      26.585   3.246  49.329  1.00  0.00    -0.306 OA
ENDBRANCH  22  24
ENDBRANCH  21  22
ENDBRANCH  20  21
ENDBRANCH  19  20
ENDBRANCH   1  19
TORSDOF 6
ENDMDL
MODEL 8
REMARK VINA RESULT:      -7.3      1.932      2.297
REMARK  6 active torsions:
REMARK  status: ('A' for Active; 'I' for Inactive)
REMARK    1  A    between atoms: C2_2  and  C3_3 
REMARK    2  A    between atoms: C2_2  and  C4_5 
REMARK    3  A    between atoms: C4_5  and  C5_6 
REMARK    4  A    between atoms: C5_6  and  C6_7 
REMARK    5  A    between atoms: C6_7  and  C7_8 
REMARK    6  A    between atoms: C10_11  and  N1_12 
ROOT
HETATM    1  C7  UNL     1      23.720  -0.432  53.886  1.00  0.00     0.035 A 
HETATM    2  C8  UNL     1      23.291   0.592  53.062  1.00  0.00     0.045 A 
HETATM    3  C9  UNL     1      21.935   0.667  52.820  1.00  0.00     0.042 A 
HETATM    4  C10 UNL     1      21.508   1.680  52.005  1.00  0.00     0.142 A 
HETATM    5  N2  UNL     1      20.182   1.780  51.747  1.00  0.00    -0.224 NA
HETATM    6  C16 UNL     1      19.308   0.886  52.293  1.00  0.00     0.236 A 
HETATM    7  N3  UNL     1      19.763  -0.109  53.098  1.00  0.00    -0.240 NA
HETATM    8  C17 UNL     1      21.069  -0.251  53.385  1.00  0.00     0.089 A 
HETATM    9  C18 UNL     1      21.555  -1.260  54.204  1.00  0.00     0.149 A 
HETATM   10  N4  UNL     1      22.891  -1.336  54.446  1.00  0.00    -0.263 NA
ENDROOT
BRANCH   4  11
HETATM   11  N1  UNL     1      22.319   2.662  51.384  1.00  0.00    -0.330 N 
HETATM   12  C11 UNL     1      22.754   3.887  52.039  1.00  0.00     0.156 C 
HETATM   13  C12 UNL     1      22.218   5.086  51.299  1.00  0.00     0.012 C 
HETATM   14  C13 UNL     1      22.000   5.021  49.982  1.00  0.00     0.014 C 
HETATM   15 CL1  UNL     1      21.377   6.330  48.975  1.00  0.00    -0.089 Cl
HETATM   16  C14 UNL     1      22.274   3.788  49.202  1.00  0.00     0.110 C 
HETATM   17  C15 UNL     1      22.871   2.688  50.045  1.00  0.00     0.278 C 
HETATM   18  F1  UNL     1      22.602   1.489  49.374  1.00  0.00    -0.226 F 
ENDBRANCH   4  11
BRANCH   1  19
HETATM   19  C6  UNL     1      25.159  -0.607  54.216  1.00  0.00     0.059 C 
BRANCH  19  20
HETATM   20  C5  UNL     1      25.974  -1.010  53.030  1.00  0.00     0.007 C 
BRANCH  20  21
HETATM   21  C4  UNL     1      27.081  -0.083  52.670  1.00  0.00     0.011 C 
BRANCH  21  22
HETATM   22  C2  UNL     1      28.092   0.187  53.709  1.00  0.00     0.043 C 
HETATM   23  C1  UNL     1      29.321  -0.700  53.539  1.00  0.00     0.017 C 
BRANCH  22  24
HETATM   24  C3  UNL     1      28.589   1.581  53.519  1.00  0.00     0.235 C 
HETATM   25  O1  UNL     1      28.721   2.579  54.240  1.00  0.00    -0.306 OA
ENDBRANCH  22  24
ENDBRANCH  21  22
ENDBRANCH  20  21
ENDBRANCH  19  20
ENDBRANCH   1  19
TORSDOF 6
ENDMDL
MODEL 9
REMARK VINA RESULT:      -7.1      2.939      4.266
REMARK  6 active torsions:
REMARK  status: ('A' for Active; 'I' for Inactive)
REMARK    1  A    between atoms: C2_2  and  C3_3 
REMARK    2  A    between atoms: C2_2  and  C4_5 
REMARK    3  A    between atoms: C4_5  and  C5_6 
REMARK    4  A    between atoms: C5_6  and  C6_7 
REMARK    5  A    between atoms: C6_7  and  C7_8 
REMARK    6  A    between atoms: C10_11  and  N1_12 
ROOT
HETATM    1  C7  UNL     1      24.911   1.078  52.380  1.00  0.00     0.035 A 
HETATM    2  C8  UNL     1      23.548   1.073  52.144  1.00  0.00     0.045 A 
HETATM    3  C9  UNL     1      22.784   0.245  52.938  1.00  0.00     0.042 A 
HETATM    4  C10 UNL     1      21.434   0.240  52.705  1.00  0.00     0.142 A 
HETATM    5  N2  UNL     1      20.655  -0.564  53.469  1.00  0.00    -0.224 NA
HETATM    6  C16 UNL     1      21.216  -1.341  54.440  1.00  0.00     0.236 A 
HETATM    7  N3  UNL     1      22.559  -1.313  54.646  1.00  0.00    -0.240 NA
HETATM    8  C17 UNL     1      23.375  -0.533  53.916  1.00  0.00     0.089 A 
HETATM    9  C18 UNL     1      24.748  -0.490  54.109  1.00  0.00     0.149 A 
HETATM   10  N4  UNL     1      25.505   0.325  53.328  1.00  0.00    -0.263 NA
ENDROOT
BRANCH   4  11
HETATM   11  N1  UNL     1      20.743   1.000  51.731  1.00  0.00    -0.330 N 
HETATM   12  C11 UNL     1      20.336   0.480  50.434  1.00  0.00     0.156 C 
HETATM   13  C12 UNL     1      21.008   1.259  49.332  1.00  0.00     0.012 C 
HETATM   14  C13 UNL     1      21.329   2.543  49.515  1.00  0.00     0.014 C 
HETATM   15 CL1  UNL     1      22.116   3.588  48.331  1.00  0.00    -0.089 Cl
HETATM   16  C14 UNL     1      21.040   3.249  50.789  1.00  0.00     0.110 C 
HETATM   17  C15 UNL     1      20.305   2.381  51.781  1.00  0.00     0.278 C 
HETATM   18  F1  UNL     1      20.550   2.933  53.043  1.00  0.00    -0.226 F 
ENDBRANCH   4  11
BRANCH   1  19
HETATM   19  C6  UNL     1      25.830   1.933  51.584  1.00  0.00     0.059 C 
BRANCH  19  20
HETATM   20  C5  UNL     1      25.101   2.869  50.676  1.00  0.00     0.007 C 
BRANCH  20  21
HETATM   21  C4  UNL     1      25.874   3.347  49.497  1.00  0.00     0.011 C 
BRANCH  21  22
HETATM   22  C2  UNL     1      26.590   4.628  49.642  1.00  0.00     0.043 C 
HETATM   23  C1  UNL     1      27.701   4.769  48.608  1.00  0.00     0.017 C 
BRANCH  22  24
HETATM   24  C3  UNL     1      25.632   5.731  49.337  1.00  0.00     0.235 C 
HETATM   25  O1  UNL     1      24.692   5.893  48.549  1.00  0.00    -0.306 OA
ENDBRANCH  22  24
ENDBRANCH  21  22
ENDBRANCH  20  21
ENDBRANCH  19  20
ENDBRANCH   1  19
TORSDOF 6
ENDMDL
