MODEL 1
REMARK VINA RESULT:      -9.1      0.000      0.000
REMARK  2 active torsions:
REMARK  status: ('A' for Active; 'I' for Inactive)
REMARK    1  A    between atoms: N1_1  and  C1_2 
REMARK    2  A    between atoms: C5_7  and  O1_8 
ROOT
HETATM    1  C1  UNL     1      23.450   5.194  51.650  1.00  0.00     0.249 C 
HETATM    2  C2  UNL     1      24.138   4.535  50.511  1.00  0.00     0.008 C 
HETATM    3  C3  UNL     1      25.029   3.663  50.088  1.00  0.00    -0.001 C 
HETATM    4  C4  UNL     1      25.819   2.857  51.004  1.00  0.00     0.076 C 
HETATM    5  P1  UNL     1      26.790   1.881  51.900  1.00  0.00    -0.079 P 
HETATM    6  C5  UNL     1      26.505   2.023  53.761  1.00  0.00     0.144 C 
HETATM    7  C6  UNL     1      26.712   0.712  54.443  1.00  0.00     0.036 C 
HETATM    8  C7  UNL     1      25.983  -0.446  53.900  1.00  0.00     0.003 C 
HETATM    9  C8  UNL     1      24.518  -0.559  53.965  1.00  0.00     0.005 C 
HETATM   10  C9  UNL     1      23.690   0.519  53.382  1.00  0.00     0.041 C 
HETATM   11  C10 UNL     1      22.238   0.163  53.398  1.00  0.00    -0.031 A 
HETATM   12  C11 UNL     1      21.934  -1.103  53.814  1.00  0.00     0.009 A 
HETATM   13  C12 UNL     1      20.625  -1.502  53.836  1.00  0.00     0.001 A 
HETATM   14  C13 UNL     1      19.548  -0.730  53.468  1.00  0.00     0.002 A 
HETATM   15  C14 UNL     1      19.892   0.536  53.057  1.00  0.00     0.030 A 
HETATM   16  C15 UNL     1      21.214   0.965  53.027  1.00  0.00     0.041 A 
HETATM   17  N2  UNL     1      21.215   2.288  52.602  1.00  0.00    -0.327 N 
HETATM   18  C16 UNL     1      21.644   3.530  52.199  1.00  0.00     0.224 C 
HETATM   19  O2  UNL     1      22.866   3.265  52.265  1.00  0.00    -0.273 OA
HETATM   20  C17 UNL     1      22.001   4.869  51.766  1.00  0.00     0.142 C 
HETATM   21  H21 UNL     1      20.401   2.915  52.414  1.00  0.00     0.169 HD
ENDROOT
BRANCH   1  22
HETATM   22  N1  UNL     1      23.442   6.666  51.398  1.00  0.00     0.086 N 
HETATM   23  H1  UNL     1      23.548   6.841  50.373  1.00  0.00     0.313 HD
HETATM   24  H2  UNL     1      24.248   7.104  51.887  1.00  0.00     0.313 HD
ENDBRANCH   1  22
BRANCH   6  25
HETATM   25  O1  UNL     1      27.601   2.875  54.122  1.00  0.00    -0.391 OA
HETATM   26  H8  UNL     1      28.261   2.310  54.611  1.00  0.00     0.210 HD
ENDBRANCH   6  25
TORSDOF 2
ENDMDL
MODEL 2
REMARK VINA RESULT:      -8.3      2.356      5.139
REMARK  2 active torsions:
REMARK  status: ('A' for Active; 'I' for Inactive)
REMARK    1  A    between atoms: N1_1  and  C1_2 
REMARK    2  A    between atoms: C5_7  and  O1_8 
ROOT
HETATM    1  C1  UNL     1      23.955   4.271  49.640  1.00  0.00     0.249 C 
HETATM    2  C2  UNL     1      23.156   4.867  50.740  1.00  0.00     0.008 C 
HETATM    3  C3  UNL     1      22.319   4.695  51.743  1.00  0.00    -0.001 C 
HETATM    4  C4  UNL     1      21.823   3.382  52.121  1.00  0.00     0.076 C 
HETATM    5  P1  UNL     1      21.169   1.978  52.669  1.00  0.00    -0.079 P 
HETATM    6  C5  UNL     1      21.776   0.445  51.750  1.00  0.00     0.144 C 
HETATM    7  C6  UNL     1      21.868  -0.733  52.662  1.00  0.00     0.036 C 
HETATM    8  C7  UNL     1      22.625  -0.552  53.913  1.00  0.00     0.003 C 
HETATM    9  C8  UNL     1      24.078  -0.328  53.931  1.00  0.00     0.005 C 
HETATM   10  C9  UNL     1      24.639   0.806  53.166  1.00  0.00     0.041 C 
HETATM   11  C10 UNL     1      26.101   0.972  53.426  1.00  0.00    -0.031 A 
HETATM   12  C11 UNL     1      26.635   0.163  54.389  1.00  0.00     0.009 A 
HETATM   13  C12 UNL     1      27.966   0.275  54.693  1.00  0.00     0.001 A 
HETATM   14  C13 UNL     1      28.849   1.151  54.104  1.00  0.00     0.002 A 
HETATM   15  C14 UNL     1      28.276   1.948  53.141  1.00  0.00     0.030 A 
HETATM   16  C15 UNL     1      26.928   1.851  52.815  1.00  0.00     0.041 A 
HETATM   17  N2  UNL     1      26.679   2.759  51.792  1.00  0.00    -0.327 N 
HETATM   18  C16 UNL     1      26.028   3.519  50.851  1.00  0.00     0.224 C 
HETATM   19  O2  UNL     1      24.883   3.082  51.110  1.00  0.00    -0.273 OA
HETATM   20  C17 UNL     1      25.429   4.360  49.830  1.00  0.00     0.142 C 
HETATM   21  H21 UNL     1      27.357   3.358  51.271  1.00  0.00     0.169 HD
ENDROOT
BRANCH   1  22
HETATM   22  N1  UNL     1      23.728   5.086  48.408  1.00  0.00     0.086 N 
HETATM   23  H1  UNL     1      22.799   4.839  47.998  1.00  0.00     0.313 HD
HETATM   24  H2  UNL     1      24.462   4.864  47.707  1.00  0.00     0.313 HD
ENDBRANCH   1  22
BRANCH   6  25
HETATM   25  O1  UNL     1      20.667   0.221  50.867  1.00  0.00    -0.391 OA
HETATM   26  H8  UNL     1      21.039   0.147  49.945  1.00  0.00     0.210 HD
ENDBRANCH   6  25
TORSDOF 2
ENDMDL
MODEL 3
REMARK VINA RESULT:      -8.0      1.690      2.412
REMARK  2 active torsions:
REMARK  status: ('A' for Active; 'I' for Inactive)
REMARK    1  A    between atoms: N1_1  and  C1_2 
REMARK    2  A    between atoms: C5_7  and  O1_8 
ROOT
HETATM    1  C1  UNL     1      25.142   6.366  50.806  1.00  0.00     0.249 C 
HETATM    2  C2  UNL     1      25.675   5.424  49.789  1.00  0.00     0.008 C 
HETATM    3  C3  UNL     1      26.169   4.236  49.506  1.00  0.00    -0.001 C 
HETATM    4  C4  UNL     1      26.360   3.215  50.522  1.00  0.00     0.076 C 
HETATM    5  P1  UNL     1      26.642   1.962  51.546  1.00  0.00    -0.079 P 
HETATM    6  C5  UNL     1      26.117   2.300  53.327  1.00  0.00     0.144 C 
HETATM    7  C6  UNL     1      25.618   1.059  53.990  1.00  0.00     0.036 C 
HETATM    8  C7  UNL     1      24.574   0.298  53.284  1.00  0.00     0.003 C 
HETATM    9  C8  UNL     1      23.216   0.823  53.077  1.00  0.00     0.005 C 
HETATM   10  C9  UNL     1      23.047   2.122  52.390  1.00  0.00     0.041 C 
HETATM   11  C10 UNL     1      21.606   2.420  52.129  1.00  0.00    -0.031 A 
HETATM   12  C11 UNL     1      20.721   1.425  52.438  1.00  0.00     0.009 A 
HETATM   13  C12 UNL     1      19.386   1.623  52.207  1.00  0.00     0.001 A 
HETATM   14  C13 UNL     1      18.828   2.762  51.676  1.00  0.00     0.002 A 
HETATM   15  C14 UNL     1      19.747   3.740  51.378  1.00  0.00     0.030 A 
HETATM   16  C15 UNL     1      21.107   3.563  51.605  1.00  0.00     0.041 A 
HETATM   17  N2  UNL     1      21.750   4.738  51.233  1.00  0.00    -0.327 N 
HETATM   18  C16 UNL     1      22.733   5.658  50.958  1.00  0.00     0.224 C 
HETATM   19  O2  UNL     1      23.691   4.901  51.237  1.00  0.00    -0.273 OA
HETATM   20  C17 UNL     1      23.699   6.695  50.644  1.00  0.00     0.142 C 
HETATM   21  H21 UNL     1      21.330   5.642  50.922  1.00  0.00     0.169 HD
ENDROOT
BRANCH   1  22
HETATM   22  N1  UNL     1      25.810   7.688  50.607  1.00  0.00     0.086 N 
HETATM   23  H1  UNL     1      26.639   7.753  51.240  1.00  0.00     0.313 HD
HETATM   24  H2  UNL     1      25.149   8.449  50.859  1.00  0.00     0.313 HD
ENDBRANCH   1  22
BRANCH   6  25
HETATM   25  O1  UNL     1      27.387   2.620  53.912  1.00  0.00    -0.391 OA
HETATM   26  H8  UNL     1      27.440   3.614  53.969  1.00  0.00     0.210 HD
ENDBRANCH   6  25
TORSDOF 2
ENDMDL
MODEL 4
REMARK VINA RESULT:      -7.9      9.129     12.148
REMARK  2 active torsions:
REMARK  status: ('A' for Active; 'I' for Inactive)
REMARK    1  A    between atoms: N1_1  and  C1_2 
REMARK    2  A    between atoms: C5_7  and  O1_8 
ROOT
HETATM    1  C1  UNL     1      34.469   3.994  46.874  1.00  0.00     0.249 C 
HETATM    2  C2  UNL     1      35.036   4.480  48.157  1.00  0.00     0.008 C 
HETATM    3  C3  UNL     1      35.386   5.497  48.919  1.00  0.00    -0.001 C 
HETATM    4  C4  UNL     1      35.219   6.877  48.494  1.00  0.00     0.076 C 
HETATM    5  P1  UNL     1      35.103   8.481  48.162  1.00  0.00    -0.079 P 
HETATM    6  C5  UNL     1      34.303   8.859  46.495  1.00  0.00     0.144 C 
HETATM    7  C6  UNL     1      33.501  10.117  46.551  1.00  0.00     0.036 C 
HETATM    8  C7  UNL     1      32.508  10.229  47.633  1.00  0.00     0.003 C 
HETATM    9  C8  UNL     1      31.313   9.375  47.699  1.00  0.00     0.005 C 
HETATM   10  C9  UNL     1      31.481   7.906  47.702  1.00  0.00     0.041 C 
HETATM   11  C10 UNL     1      30.180   7.206  47.932  1.00  0.00    -0.031 A 
HETATM   12  C11 UNL     1      29.111   8.007  48.220  1.00  0.00     0.009 A 
HETATM   13  C12 UNL     1      27.891   7.432  48.460  1.00  0.00     0.001 A 
HETATM   14  C13 UNL     1      27.627   6.082  48.441  1.00  0.00     0.002 A 
HETATM   15  C14 UNL     1      28.726   5.309  48.148  1.00  0.00     0.030 A 
HETATM   16  C15 UNL     1      29.973   5.870  47.899  1.00  0.00     0.041 A 
HETATM   17  N2  UNL     1      30.849   4.831  47.605  1.00  0.00    -0.327 N 
HETATM   18  C16 UNL     1      31.996   4.133  47.314  1.00  0.00     0.224 C 
HETATM   19  O2  UNL     1      32.754   5.129  47.333  1.00  0.00    -0.273 OA
HETATM   20  C17 UNL     1      33.151   3.312  47.002  1.00  0.00     0.142 C 
HETATM   21  H21 UNL     1      30.640   3.814  47.491  1.00  0.00     0.169 HD
ENDROOT
BRANCH   1  22
HETATM   22  N1  UNL     1      35.357   2.910  46.356  1.00  0.00     0.086 N 
HETATM   23  H1  UNL     1      36.317   3.035  46.749  1.00  0.00     0.313 HD
HETATM   24  H2  UNL     1      35.418   2.979  45.321  1.00  0.00     0.313 HD
ENDBRANCH   1  22
BRANCH   6  25
HETATM   25  O1  UNL     1      35.471   9.127  45.706  1.00  0.00    -0.391 OA
HETATM   26  H8  UNL     1      35.173   9.652  44.913  1.00  0.00     0.210 HD
ENDBRANCH   6  25
TORSDOF 2
ENDMDL
MODEL 5
REMARK VINA RESULT:      -7.9      2.663      4.774
REMARK  2 active torsions:
REMARK  status: ('A' for Active; 'I' for Inactive)
REMARK    1  A    between atoms: N1_1  and  C1_2 
REMARK    2  A    between atoms: C5_7  and  O1_8 
ROOT
HETATM    1  C1  UNL     1      25.877   3.360  49.971  1.00  0.00     0.249 C 
HETATM    2  C2  UNL     1      25.051   4.470  50.511  1.00  0.00     0.008 C 
HETATM    3  C3  UNL     1      23.856   4.974  50.739  1.00  0.00    -0.001 C 
HETATM    4  C4  UNL     1      22.637   4.275  50.371  1.00  0.00     0.076 C 
HETATM    5  P1  UNL     1      21.174   3.620  50.013  1.00  0.00    -0.079 P 
HETATM    6  C5  UNL     1      21.275   1.903  49.237  1.00  0.00     0.144 C 
HETATM    7  C6  UNL     1      20.124   1.049  49.656  1.00  0.00     0.036 C 
HETATM    8  C7  UNL     1      19.863   0.944  51.101  1.00  0.00     0.003 C 
HETATM    9  C8  UNL     1      20.792   0.276  52.026  1.00  0.00     0.005 C 
HETATM   10  C9  UNL     1      22.196   0.737  52.087  1.00  0.00     0.041 C 
HETATM   11  C10 UNL     1      22.948   0.056  53.185  1.00  0.00    -0.031 A 
HETATM   12  C11 UNL     1      22.213  -0.754  54.004  1.00  0.00     0.009 A 
HETATM   13  C12 UNL     1      22.834  -1.395  55.042  1.00  0.00     0.001 A 
HETATM   14  C13 UNL     1      24.171  -1.301  55.354  1.00  0.00     0.002 A 
HETATM   15  C14 UNL     1      24.878  -0.478  54.508  1.00  0.00     0.030 A 
HETATM   16  C15 UNL     1      24.269   0.181  53.447  1.00  0.00     0.041 A 
HETATM   17  N2  UNL     1      25.256   0.894  52.776  1.00  0.00    -0.327 N 
HETATM   18  C16 UNL     1      25.886   1.737  51.892  1.00  0.00     0.224 C 
HETATM   19  O2  UNL     1      24.843   2.095  51.300  1.00  0.00    -0.273 OA
HETATM   20  C17 UNL     1      26.638   2.601  51.000  1.00  0.00     0.142 C 
HETATM   21  H21 UNL     1      26.287   0.896  52.942  1.00  0.00     0.169 HD
ENDROOT
BRANCH   1  22
HETATM   22  N1  UNL     1      26.958   3.955  49.128  1.00  0.00     0.086 N 
HETATM   23  H1  UNL     1      27.310   3.233  48.459  1.00  0.00     0.313 HD
HETATM   24  H2  UNL     1      27.749   4.246  49.736  1.00  0.00     0.313 HD
ENDBRANCH   1  22
BRANCH   6  25
HETATM   25  O1  UNL     1      21.083   2.236  47.854  1.00  0.00    -0.391 OA
HETATM   26  H8  UNL     1      20.471   3.022  47.826  1.00  0.00     0.210 HD
ENDBRANCH   6  25
TORSDOF 2
ENDMDL
MODEL 6
REMARK VINA RESULT:      -7.7      2.931      5.367
REMARK  2 active torsions:
REMARK  status: ('A' for Active; 'I' for Inactive)
REMARK    1  A    between atoms: N1_1  and  C1_2 
REMARK    2  A    between atoms: C5_7  and  O1_8 
ROOT
HETATM    1  C1  UNL     1      22.505   3.327  49.413  1.00  0.00     0.249 C 
HETATM    2  C2  UNL     1      21.676   4.237  50.243  1.00  0.00     0.008 C 
HETATM    3  C3  UNL     1      20.571   4.437  50.931  1.00  0.00    -0.001 C 
HETATM    4  C4  UNL     1      19.552   3.411  51.076  1.00  0.00     0.076 C 
HETATM    5  P1  UNL     1      18.310   2.367  51.328  1.00  0.00    -0.079 P 
HETATM    6  C5  UNL     1      18.581   0.661  50.567  1.00  0.00     0.144 C 
HETATM    7  C6  UNL     1      17.968  -0.411  51.406  1.00  0.00     0.036 C 
HETATM    8  C7  UNL     1      18.322  -0.425  52.835  1.00  0.00     0.003 C 
HETATM    9  C8  UNL     1      19.682  -0.727  53.309  1.00  0.00     0.005 C 
HETATM   10  C9  UNL     1      20.812   0.084  52.808  1.00  0.00     0.041 C 
HETATM   11  C10 UNL     1      22.086  -0.258  53.511  1.00  0.00    -0.031 A 
HETATM   12  C11 UNL     1      21.979  -1.138  54.552  1.00  0.00     0.009 A 
HETATM   13  C12 UNL     1      23.104  -1.482  55.254  1.00  0.00     0.001 A 
HETATM   14  C13 UNL     1      24.373  -1.013  55.007  1.00  0.00     0.002 A 
HETATM   15  C14 UNL     1      24.441  -0.131  53.954  1.00  0.00     0.030 A 
HETATM   16  C15 UNL     1      23.314   0.231  53.226  1.00  0.00     0.041 A 
HETATM   17  N2  UNL     1      23.725   1.099  52.221  1.00  0.00    -0.327 N 
HETATM   18  C16 UNL     1      23.704   1.976  51.163  1.00  0.00     0.224 C 
HETATM   19  O2  UNL     1      22.459   1.988  51.038  1.00  0.00    -0.273 OA
HETATM   20  C17 UNL     1      23.782   2.904  50.050  1.00  0.00     0.142 C 
HETATM   21  H21 UNL     1      24.696   1.385  51.962  1.00  0.00     0.169 HD
ENDROOT
BRANCH   1  22
HETATM   22  N1  UNL     1      22.967   4.087  48.212  1.00  0.00     0.086 N 
HETATM   23  H1  UNL     1      23.858   3.668  47.862  1.00  0.00     0.313 HD
HETATM   24  H2  UNL     1      23.155   5.073  48.479  1.00  0.00     0.313 HD
ENDBRANCH   1  22
BRANCH   6  25
HETATM   25  O1  UNL     1      17.788   0.783  49.377  1.00  0.00    -0.391 OA
HETATM   26  H8  UNL     1      17.322   1.663  49.427  1.00  0.00     0.210 HD
ENDBRANCH   6  25
TORSDOF 2
ENDMDL
MODEL 7
REMARK VINA RESULT:      -7.7      3.005      5.265
REMARK  2 active torsions:
REMARK  status: ('A' for Active; 'I' for Inactive)
REMARK    1  A    between atoms: N1_1  and  C1_2 
REMARK    2  A    between atoms: C5_7  and  O1_8 
ROOT
HETATM    1  C1  UNL     1      25.770   5.699  48.975  1.00  0.00     0.249 C 
HETATM    2  C2  UNL     1      25.386   6.523  50.149  1.00  0.00     0.008 C 
HETATM    3  C3  UNL     1      24.490   6.824  51.067  1.00  0.00    -0.001 C 
HETATM    4  C4  UNL     1      23.207   6.146  51.149  1.00  0.00     0.076 C 
HETATM    5  P1  UNL     1      21.721   5.485  51.372  1.00  0.00    -0.079 P 
HETATM    6  C5  UNL     1      21.323   4.080  50.176  1.00  0.00     0.144 C 
HETATM    7  C6  UNL     1      20.478   3.036  50.827  1.00  0.00     0.036 C 
HETATM    8  C7  UNL     1      20.954   2.496  52.111  1.00  0.00     0.003 C 
HETATM    9  C8  UNL     1      22.175   1.684  52.223  1.00  0.00     0.005 C 
HETATM   10  C9  UNL     1      23.453   2.239  51.727  1.00  0.00     0.041 C 
HETATM   11  C10 UNL     1      24.605   1.347  52.063  1.00  0.00    -0.031 A 
HETATM   12  C11 UNL     1      24.319   0.271  52.855  1.00  0.00     0.009 A 
HETATM   13  C12 UNL     1      25.330  -0.579  53.217  1.00  0.00     0.001 A 
HETATM   14  C13 UNL     1      26.650  -0.451  52.852  1.00  0.00     0.002 A 
HETATM   15  C14 UNL     1      26.899   0.643  52.056  1.00  0.00     0.030 A 
HETATM   16  C15 UNL     1      25.889   1.518  51.674  1.00  0.00     0.041 A 
HETATM   17  N2  UNL     1      26.460   2.484  50.854  1.00  0.00    -0.327 N 
HETATM   18  C16 UNL     1      26.624   3.601  50.070  1.00  0.00     0.224 C 
HETATM   19  O2  UNL     1      25.448   4.013  50.196  1.00  0.00    -0.273 OA
HETATM   20  C17 UNL     1      26.891   4.752  49.228  1.00  0.00     0.142 C 
HETATM   21  H21 UNL     1      27.437   2.537  50.491  1.00  0.00     0.169 HD
ENDROOT
BRANCH   1  22
HETATM   22  N1  UNL     1      26.332   6.610  47.933  1.00  0.00     0.086 N 
HETATM   23  H1  UNL     1      25.629   7.350  47.708  1.00  0.00     0.313 HD
HETATM   24  H2  UNL     1      26.521   6.068  47.066  1.00  0.00     0.313 HD
ENDBRANCH   1  22
BRANCH   6  25
HETATM   25  O1  UNL     1      20.497   4.776  49.231  1.00  0.00    -0.391 OA
HETATM   26  H8  UNL     1      19.928   5.407  49.751  1.00  0.00     0.210 HD
ENDBRANCH   6  25
TORSDOF 2
ENDMDL
MODEL 8
REMARK VINA RESULT:      -7.4      8.104     10.548
REMARK  2 active torsions:
REMARK  status: ('A' for Active; 'I' for Inactive)
REMARK    1  A    between atoms: N1_1  and  C1_2 
REMARK    2  A    between atoms: C5_7  and  O1_8 
ROOT
HETATM    1  C1  UNL     1      30.934  11.589  48.486  1.00  0.00     0.249 C 
HETATM    2  C2  UNL     1      31.258  11.401  47.049  1.00  0.00     0.008 C 
HETATM    3  C3  UNL     1      31.875  10.704  46.117  1.00  0.00    -0.001 C 
HETATM    4  C4  UNL     1      32.662   9.522  46.427  1.00  0.00     0.076 C 
HETATM    5  P1  UNL     1      33.588   8.178  46.611  1.00  0.00    -0.079 P 
HETATM    6  C5  UNL     1      33.696   7.563  48.391  1.00  0.00     0.144 C 
HETATM    7  C6  UNL     1      33.784   6.075  48.447  1.00  0.00     0.036 C 
HETATM    8  C7  UNL     1      32.763   5.317  47.705  1.00  0.00     0.003 C 
HETATM    9  C8  UNL     1      31.342   5.323  48.086  1.00  0.00     0.005 C 
HETATM   10  C9  UNL     1      30.632   6.616  48.185  1.00  0.00     0.041 C 
HETATM   11  C10 UNL     1      29.170   6.420  48.427  1.00  0.00    -0.031 A 
HETATM   12  C11 UNL     1      28.723   5.130  48.390  1.00  0.00     0.009 A 
HETATM   13  C12 UNL     1      27.391   4.878  48.585  1.00  0.00     0.001 A 
HETATM   14  C13 UNL     1      26.425   5.829  48.821  1.00  0.00     0.002 A 
HETATM   15  C14 UNL     1      26.912   7.115  48.852  1.00  0.00     0.030 A 
HETATM   16  C15 UNL     1      28.260   7.394  48.659  1.00  0.00     0.041 A 
HETATM   17  N2  UNL     1      28.425   8.768  48.784  1.00  0.00    -0.327 N 
HETATM   18  C16 UNL     1      28.991  10.021  48.791  1.00  0.00     0.224 C 
HETATM   19  O2  UNL     1      30.133   9.641  48.444  1.00  0.00    -0.273 OA
HETATM   20  C17 UNL     1      29.500  11.379  48.828  1.00  0.00     0.142 C 
HETATM   21  H21 UNL     1      27.721   9.488  49.060  1.00  0.00     0.169 HD
ENDROOT
BRANCH   1  22
HETATM   22  N1  UNL     1      31.151  13.027  48.825  1.00  0.00     0.086 N 
HETATM   23  H1  UNL     1      31.703  13.093  49.711  1.00  0.00     0.313 HD
HETATM   24  H2  UNL     1      30.233  13.488  48.981  1.00  0.00     0.313 HD
ENDBRANCH   1  22
BRANCH   6  25
HETATM   25  O1  UNL     1      34.980   8.085  48.764  1.00  0.00    -0.391 OA
HETATM   26  H8  UNL     1      35.452   8.329  47.921  1.00  0.00     0.210 HD
ENDBRANCH   6  25
TORSDOF 2
ENDMDL
MODEL 9
REMARK VINA RESULT:      -7.4      2.893      5.047
REMARK  2 active torsions:
REMARK  status: ('A' for Active; 'I' for Inactive)
REMARK    1  A    between atoms: N1_1  and  C1_2 
REMARK    2  A    between atoms: C5_7  and  O1_8 
ROOT
HETATM    1  C1  UNL     1      24.856   0.840  52.694  1.00  0.00     0.249 C 
HETATM    2  C2  UNL     1      24.491   2.241  53.023  1.00  0.00     0.008 C 
HETATM    3  C3  UNL     1      23.880   3.355  52.675  1.00  0.00    -0.001 C 
HETATM    4  C4  UNL     1      23.161   3.484  51.418  1.00  0.00     0.076 C 
HETATM    5  P1  UNL     1      22.317   3.792  50.044  1.00  0.00    -0.079 P 
HETATM    6  C5  UNL     1      22.183   2.311  48.882  1.00  0.00     0.144 C 
HETATM    7  C6  UNL     1      20.877   2.303  48.160  1.00  0.00     0.036 C 
HETATM    8  C7  UNL     1      19.660   2.421  48.981  1.00  0.00     0.003 C 
HETATM    9  C8  UNL     1      19.234   1.372  49.919  1.00  0.00     0.005 C 
HETATM   10  C9  UNL     1      20.172   0.930  50.973  1.00  0.00     0.041 C 
HETATM   11  C10 UNL     1      19.518  -0.022  51.923  1.00  0.00    -0.031 A 
HETATM   12  C11 UNL     1      18.177  -0.221  51.746  1.00  0.00     0.009 A 
HETATM   13  C12 UNL     1      17.510  -1.066  52.592  1.00  0.00     0.001 A 
HETATM   14  C13 UNL     1      18.074  -1.757  53.639  1.00  0.00     0.002 A 
HETATM   15  C14 UNL     1      19.423  -1.532  53.786  1.00  0.00     0.030 A 
HETATM   16  C15 UNL     1      20.122  -0.680  52.939  1.00  0.00     0.041 A 
HETATM   17  N2  UNL     1      21.455  -0.700  53.331  1.00  0.00    -0.327 N 
HETATM   18  C16 UNL     1      22.797  -0.415  53.413  1.00  0.00     0.224 C 
HETATM   19  O2  UNL     1      22.790   0.463  52.520  1.00  0.00    -0.273 OA
HETATM   20  C17 UNL     1      24.221  -0.184  53.571  1.00  0.00     0.142 C 
HETATM   21  H21 UNL     1      21.913  -1.293  54.059  1.00  0.00     0.169 HD
ENDROOT
BRANCH   1  22
HETATM   22  N1  UNL     1      26.312   0.662  52.975  1.00  0.00     0.086 N 
HETATM   23  H1  UNL     1      26.677   1.516  53.455  1.00  0.00     0.313 HD
HETATM   24  H2  UNL     1      26.826   0.549  52.079  1.00  0.00     0.313 HD
ENDBRANCH   1  22
BRANCH   6  25
HETATM   25  O1  UNL     1      23.202   2.643  47.927  1.00  0.00    -0.391 OA
HETATM   26  H8  UNL     1      23.753   1.824  47.791  1.00  0.00     0.210 HD
ENDBRANCH   6  25
TORSDOF 2
ENDMDL
