MODEL 1
REMARK VINA RESULT:      -8.9      0.000      0.000
REMARK  1 active torsions:
REMARK  status: ('A' for Active; 'I' for Inactive)
REMARK    1  A    between atoms: C2_2  and  N1_3 
ROOT
HETATM    1  N1  UNL     1      23.220   4.296  50.168  1.00  0.00     0.089 N 
HETATM    2  C3  UNL     1      24.453   3.680  49.798  1.00  0.00     0.272 C 
HETATM    3  C4  UNL     1      25.167   2.854  50.780  1.00  0.00     0.035 C 
HETATM    4  C5  UNL     1      24.491   1.687  51.389  1.00  0.00     0.042 C 
HETATM    5  C6  UNL     1      25.381   0.986  52.353  1.00  0.00    -0.031 A 
HETATM    6  C7  UNL     1      26.741   1.119  52.214  1.00  0.00     0.009 A 
HETATM    7  C8  UNL     1      27.686   0.523  53.025  1.00  0.00     0.001 A 
HETATM    8  C9  UNL     1      27.311  -0.285  54.081  1.00  0.00     0.002 A 
HETATM    9  C10 UNL     1      25.912  -0.415  54.216  1.00  0.00     0.030 A 
HETATM   10  C11 UNL     1      24.941   0.192  53.389  1.00  0.00     0.041 A 
HETATM   11  N2  UNL     1      23.698  -0.246  53.923  1.00  0.00    -0.323 N 
HETATM   12  C12 UNL     1      22.556  -1.004  53.446  1.00  0.00     0.248 C 
HETATM   13  O1  UNL     1      23.417  -0.881  52.527  1.00  0.00    -0.268 OA
HETATM   14  C13 UNL     1      21.383  -1.300  54.328  1.00  0.00     0.108 C 
HETATM   15  C14 UNL     1      21.057  -0.146  54.896  1.00  0.00     0.086 C 
HETATM   16  N3  UNL     1      20.903   0.770  53.995  1.00  0.00    -0.266 NA
HETATM   17  C15 UNL     1      20.404   0.291  52.753  1.00  0.00     0.300 C 
HETATM   18  N4  UNL     1      20.249   1.276  51.718  1.00  0.00    -0.256 NA
HETATM   19  C16 UNL     1      19.286   1.210  50.846  1.00  0.00     0.100 C 
HETATM   20  C17 UNL     1      18.157   0.277  50.596  1.00  0.00     0.091 C 
HETATM   21  N5  UNL     1      19.179   2.198  49.864  1.00  0.00    -0.297 N 
HETATM   22  C18 UNL     1      19.990   3.303  49.681  1.00  0.00     0.321 C 
HETATM   23  O2  UNL     1      20.836   3.237  50.593  1.00  0.00    -0.247 OA
HETATM   24  N6  UNL     1      20.508   4.465  49.147  1.00  0.00    -0.341 N 
HETATM   25  C19 UNL     1      21.443   5.539  49.115  1.00  0.00     0.154 C 
HETATM   26  C20 UNL     1      22.830   5.049  48.954  1.00  0.00     0.292 C 
HETATM   27  H16 UNL     1      23.527   0.054  54.938  1.00  0.00     0.169 HD
HETATM   28  H23 UNL     1      18.671   2.550  49.055  1.00  0.00     0.172 HD
HETATM   29  H24 UNL     1      19.736   4.374  48.451  1.00  0.00     0.164 HD
ENDROOT
BRANCH   1  30
HETATM   30  C2  UNL     1      23.346   5.301  51.207  1.00  0.00     0.268 C 
HETATM   31  C1  UNL     1      22.921   4.855  52.563  1.00  0.00     0.037 C 
ENDBRANCH   1  30
TORSDOF 1
ENDMDL
MODEL 2
REMARK VINA RESULT:      -8.3      2.016      5.053
REMARK  1 active torsions:
REMARK  status: ('A' for Active; 'I' for Inactive)
REMARK    1  A    between atoms: C2_2  and  N1_3 
ROOT
HETATM    1  N1  UNL     1      20.206   3.199  49.606  1.00  0.00     0.089 N 
HETATM    2  C3  UNL     1      19.576   2.869  50.844  1.00  0.00     0.272 C 
HETATM    3  C4  UNL     1      20.188   1.856  51.713  1.00  0.00     0.035 C 
HETATM    4  C5  UNL     1      21.575   2.042  52.194  1.00  0.00     0.042 C 
HETATM    5  C6  UNL     1      22.005   0.910  53.059  1.00  0.00    -0.031 A 
HETATM    6  C7  UNL     1      21.046   0.168  53.703  1.00  0.00     0.009 A 
HETATM    7  C8  UNL     1      21.295  -0.900  54.541  1.00  0.00     0.001 A 
HETATM    8  C9  UNL     1      22.586  -1.316  54.800  1.00  0.00     0.002 A 
HETATM    9  C10 UNL     1      23.565  -0.548  54.133  1.00  0.00     0.030 A 
HETATM   10  C11 UNL     1      23.316   0.546  53.276  1.00  0.00     0.041 A 
HETATM   11  N2  UNL     1      24.608   0.977  52.868  1.00  0.00    -0.323 N 
HETATM   12  C12 UNL     1      25.394   2.193  52.974  1.00  0.00     0.248 C 
HETATM   13  O1  UNL     1      24.260   2.355  53.511  1.00  0.00    -0.268 OA
HETATM   14  C13 UNL     1      26.782   2.285  52.420  1.00  0.00     0.108 C 
HETATM   15  C14 UNL     1      26.711   1.802  51.186  1.00  0.00     0.086 C 
HETATM   16  N3  UNL     1      25.770   2.396  50.525  1.00  0.00    -0.266 NA
HETATM   17  C15 UNL     1      25.562   3.753  50.894  1.00  0.00     0.300 C 
HETATM   18  N4  UNL     1      24.503   4.435  50.202  1.00  0.00    -0.256 NA
HETATM   19  C16 UNL     1      24.577   5.701  49.911  1.00  0.00     0.100 C 
HETATM   20  C17 UNL     1      25.586   6.770  50.124  1.00  0.00     0.091 C 
HETATM   21  N5  UNL     1      23.521   6.312  49.232  1.00  0.00    -0.297 N 
HETATM   22  C18 UNL     1      22.346   5.732  48.792  1.00  0.00     0.321 C 
HETATM   23  O2  UNL     1      22.435   4.533  49.121  1.00  0.00    -0.247 OA
HETATM   24  N6  UNL     1      21.100   5.585  48.217  1.00  0.00    -0.341 N 
HETATM   25  C19 UNL     1      19.960   4.820  47.838  1.00  0.00     0.154 C 
HETATM   26  C20 UNL     1      19.300   4.209  49.014  1.00  0.00     0.292 C 
HETATM   27  H16 UNL     1      25.169   0.237  52.333  1.00  0.00     0.169 HD
HETATM   28  H23 UNL     1      23.142   7.167  48.828  1.00  0.00     0.172 HD
HETATM   29  H24 UNL     1      21.182   6.606  48.014  1.00  0.00     0.164 HD
ENDROOT
BRANCH   1  30
HETATM   30  C2  UNL     1      20.233   2.112  48.645  1.00  0.00     0.268 C 
HETATM   31  C1  UNL     1      21.548   1.425  48.514  1.00  0.00     0.037 C 
ENDBRANCH   1  30
TORSDOF 1
ENDMDL
MODEL 3
REMARK VINA RESULT:      -8.2      1.897      3.556
REMARK  1 active torsions:
REMARK  status: ('A' for Active; 'I' for Inactive)
REMARK    1  A    between atoms: C2_2  and  N1_3 
ROOT
HETATM    1  N1  UNL     1      24.306   4.132  50.491  1.00  0.00     0.089 N 
HETATM    2  C3  UNL     1      25.012   2.944  50.846  1.00  0.00     0.272 C 
HETATM    3  C4  UNL     1      24.422   2.025  51.828  1.00  0.00     0.035 C 
HETATM    4  C5  UNL     1      23.085   1.442  51.578  1.00  0.00     0.042 C 
HETATM    5  C6  UNL     1      22.670   0.540  52.686  1.00  0.00    -0.031 A 
HETATM    6  C7  UNL     1      23.640  -0.034  53.470  1.00  0.00     0.009 A 
HETATM    7  C8  UNL     1      23.407  -0.895  54.524  1.00  0.00     0.001 A 
HETATM    8  C9  UNL     1      22.121  -1.253  54.879  1.00  0.00     0.002 A 
HETATM    9  C10 UNL     1      21.131  -0.657  54.069  1.00  0.00     0.030 A 
HETATM   10  C11 UNL     1      21.364   0.223  52.990  1.00  0.00     0.041 A 
HETATM   11  N2  UNL     1      20.066   0.535  52.501  1.00  0.00    -0.323 N 
HETATM   12  C12 UNL     1      19.346   0.377  51.250  1.00  0.00     0.248 C 
HETATM   13  O1  UNL     1      20.524  -0.072  51.139  1.00  0.00    -0.268 OA
HETATM   14  C13 UNL     1      17.926   0.825  51.096  1.00  0.00     0.108 C 
HETATM   15  C14 UNL     1      17.882   2.058  51.584  1.00  0.00     0.086 C 
HETATM   16  N3  UNL     1      18.797   2.793  51.036  1.00  0.00    -0.266 NA
HETATM   17  C15 UNL     1      19.093   2.448  49.689  1.00  0.00     0.300 C 
HETATM   18  N4  UNL     1      20.126   3.222  49.058  1.00  0.00    -0.256 NA
HETATM   19  C16 UNL     1      20.088   3.514  47.791  1.00  0.00     0.100 C 
HETATM   20  C17 UNL     1      19.148   3.231  46.675  1.00  0.00     0.091 C 
HETATM   21  N5  UNL     1      21.118   4.274  47.230  1.00  0.00    -0.297 N 
HETATM   22  C18 UNL     1      22.228   4.798  47.865  1.00  0.00     0.321 C 
HETATM   23  O2  UNL     1      22.109   4.456  49.057  1.00  0.00    -0.247 OA
HETATM   24  N6  UNL     1      23.419   5.464  48.070  1.00  0.00    -0.341 N 
HETATM   25  C19 UNL     1      24.491   5.923  48.887  1.00  0.00     0.154 C 
HETATM   26  C20 UNL     1      25.210   4.797  49.525  1.00  0.00     0.292 C 
HETATM   27  H16 UNL     1      19.433   1.021  53.216  1.00  0.00     0.169 HD
HETATM   28  H23 UNL     1      21.503   4.710  46.394  1.00  0.00     0.172 HD
HETATM   29  H24 UNL     1      23.369   5.667  47.047  1.00  0.00     0.164 HD
ENDROOT
BRANCH   1  30
HETATM   30  C2  UNL     1      24.157   5.082  51.578  1.00  0.00     0.268 C 
HETATM   31  C1  UNL     1      22.808   5.105  52.209  1.00  0.00     0.037 C 
ENDBRANCH   1  30
TORSDOF 1
ENDMDL
MODEL 4
REMARK VINA RESULT:      -8.2      1.724      6.057
REMARK  1 active torsions:
REMARK  status: ('A' for Active; 'I' for Inactive)
REMARK    1  A    between atoms: C2_2  and  N1_3 
ROOT
HETATM    1  N1  UNL     1      24.506   1.761  52.806  1.00  0.00     0.089 N 
HETATM    2  C3  UNL     1      24.479   3.127  53.220  1.00  0.00     0.272 C 
HETATM    3  C4  UNL     1      23.706   4.100  52.438  1.00  0.00     0.035 C 
HETATM    4  C5  UNL     1      22.257   3.887  52.225  1.00  0.00     0.042 C 
HETATM    5  C6  UNL     1      21.662   4.981  51.412  1.00  0.00    -0.031 A 
HETATM    6  C7  UNL     1      22.284   6.205  51.392  1.00  0.00     0.009 A 
HETATM    7  C8  UNL     1      21.845   7.311  50.693  1.00  0.00     0.001 A 
HETATM    8  C9  UNL     1      20.695   7.260  49.929  1.00  0.00     0.002 A 
HETATM    9  C10 UNL     1      20.063   5.998  49.955  1.00  0.00     0.030 A 
HETATM   10  C11 UNL     1      20.507   4.863  50.668  1.00  0.00     0.041 A 
HETATM   11  N2  UNL     1      19.540   3.862  50.380  1.00  0.00    -0.323 N 
HETATM   12  C12 UNL     1      18.604   3.053  51.139  1.00  0.00     0.248 C 
HETATM   13  O1  UNL     1      19.267   3.802  51.914  1.00  0.00    -0.268 OA
HETATM   14  C13 UNL     1      17.689   2.073  50.473  1.00  0.00     0.108 C 
HETATM   15  C14 UNL     1      18.454   1.370  49.647  1.00  0.00     0.086 C 
HETATM   16  N3  UNL     1      19.476   0.889  50.279  1.00  0.00    -0.266 NA
HETATM   17  C15 UNL     1      19.225   0.573  51.642  1.00  0.00     0.300 C 
HETATM   18  N4  UNL     1      20.346   0.067  52.384  1.00  0.00    -0.256 NA
HETATM   19  C16 UNL     1      20.203  -0.824  53.321  1.00  0.00     0.100 C 
HETATM   20  C17 UNL     1      19.051  -1.556  53.908  1.00  0.00     0.091 C 
HETATM   21  N5  UNL     1      21.329  -1.286  54.007  1.00  0.00    -0.297 N 
HETATM   22  C18 UNL     1      22.648  -0.919  53.817  1.00  0.00     0.321 C 
HETATM   23  O2  UNL     1      22.622  -0.091  52.887  1.00  0.00    -0.247 OA
HETATM   24  N6  UNL     1      24.018  -0.851  53.973  1.00  0.00    -0.341 N 
HETATM   25  C19 UNL     1      25.310  -0.355  53.636  1.00  0.00     0.154 C 
HETATM   26  C20 UNL     1      25.389   1.113  53.802  1.00  0.00     0.292 C 
HETATM   27  H16 UNL     1      19.465   3.612  49.341  1.00  0.00     0.169 HD
HETATM   28  H23 UNL     1      21.699  -1.898  54.733  1.00  0.00     0.172 HD
HETATM   29  H24 UNL     1      23.868  -1.552  54.731  1.00  0.00     0.164 HD
ENDROOT
BRANCH   1  30
HETATM   30  C2  UNL     1      25.158   1.541  51.529  1.00  0.00     0.268 C 
HETATM   31  C1  UNL     1      26.471   2.226  51.370  1.00  0.00     0.037 C 
ENDBRANCH   1  30
TORSDOF 1
ENDMDL
MODEL 5
REMARK VINA RESULT:      -8.0      2.351      3.545
REMARK  1 active torsions:
REMARK  status: ('A' for Active; 'I' for Inactive)
REMARK    1  A    between atoms: C2_2  and  N1_3 
ROOT
HETATM    1  N1  UNL     1      25.444   6.137  49.050  1.00  0.00     0.089 N 
HETATM    2  C3  UNL     1      26.366   5.053  48.941  1.00  0.00     0.272 C 
HETATM    3  C4  UNL     1      26.329   3.977  49.940  1.00  0.00     0.035 C 
HETATM    4  C5  UNL     1      25.081   3.209  50.147  1.00  0.00     0.042 C 
HETATM    5  C6  UNL     1      25.252   2.168  51.196  1.00  0.00    -0.031 A 
HETATM    6  C7  UNL     1      26.514   1.697  51.461  1.00  0.00     0.009 A 
HETATM    7  C8  UNL     1      26.824   0.730  52.396  1.00  0.00     0.001 A 
HETATM    8  C9  UNL     1      25.839   0.144  53.167  1.00  0.00     0.002 A 
HETATM    9  C10 UNL     1      24.545   0.635  52.888  1.00  0.00     0.030 A 
HETATM   10  C11 UNL     1      24.223   1.623  51.933  1.00  0.00     0.041 A 
HETATM   11  N2  UNL     1      22.811   1.761  52.028  1.00  0.00    -0.323 N 
HETATM   12  C12 UNL     1      21.675   1.588  51.141  1.00  0.00     0.248 C 
HETATM   13  O1  UNL     1      22.753   1.344  50.526  1.00  0.00    -0.268 OA
HETATM   14  C13 UNL     1      20.270   1.814  51.607  1.00  0.00     0.108 C 
HETATM   15  C14 UNL     1      20.283   2.982  52.237  1.00  0.00     0.086 C 
HETATM   16  N3  UNL     1      20.809   3.894  51.485  1.00  0.00    -0.266 NA
HETATM   17  C15 UNL     1      20.580   3.708  50.094  1.00  0.00     0.300 C 
HETATM   18  N4  UNL     1      21.177   4.685  49.225  1.00  0.00    -0.256 NA
HETATM   19  C16 UNL     1      20.601   5.065  48.123  1.00  0.00     0.100 C 
HETATM   20  C17 UNL     1      19.333   4.725  47.427  1.00  0.00     0.091 C 
HETATM   21  N5  UNL     1      21.224   6.023  47.318  1.00  0.00    -0.297 N 
HETATM   22  C18 UNL     1      22.427   6.666  47.541  1.00  0.00     0.321 C 
HETATM   23  O2  UNL     1      22.836   6.217  48.629  1.00  0.00    -0.247 OA
HETATM   24  N6  UNL     1      23.514   7.496  47.361  1.00  0.00    -0.341 N 
HETATM   25  C19 UNL     1      24.763   8.055  47.756  1.00  0.00     0.154 C 
HETATM   26  C20 UNL     1      25.802   7.012  47.909  1.00  0.00     0.292 C 
HETATM   27  H16 UNL     1      22.466   2.082  52.990  1.00  0.00     0.169 HD
HETATM   28  H23 UNL     1      21.189   6.579  46.465  1.00  0.00     0.172 HD
HETATM   29  H24 UNL     1      23.036   7.768  46.473  1.00  0.00     0.164 HD
ENDROOT
BRANCH   1  30
HETATM   30  C2  UNL     1      25.633   6.963  50.227  1.00  0.00     0.268 C 
HETATM   31  C1  UNL     1      24.518   6.910  51.214  1.00  0.00     0.037 C 
ENDBRANCH   1  30
TORSDOF 1
ENDMDL
MODEL 6
REMARK VINA RESULT:      -7.9      8.260     11.651
REMARK  1 active torsions:
REMARK  status: ('A' for Active; 'I' for Inactive)
REMARK    1  A    between atoms: C2_2  and  N1_3 
ROOT
HETATM    1  N1  UNL     1      32.207   6.936  47.565  1.00  0.00     0.089 N 
HETATM    2  C3  UNL     1      31.539   5.696  47.336  1.00  0.00     0.272 C 
HETATM    3  C4  UNL     1      30.217   5.471  47.935  1.00  0.00     0.035 C 
HETATM    4  C5  UNL     1      29.106   6.400  47.631  1.00  0.00     0.042 C 
HETATM    5  C6  UNL     1      27.856   5.999  48.332  1.00  0.00    -0.031 A 
HETATM    6  C7  UNL     1      27.699   4.687  48.706  1.00  0.00     0.009 A 
HETATM    7  C8  UNL     1      26.595   4.168  49.352  1.00  0.00     0.001 A 
HETATM    8  C9  UNL     1      25.522   4.973  49.684  1.00  0.00     0.002 A 
HETATM    9  C10 UNL     1      25.692   6.320  49.296  1.00  0.00     0.030 A 
HETATM   10  C11 UNL     1      26.819   6.855  48.635  1.00  0.00     0.041 A 
HETATM   11  N2  UNL     1      26.509   8.231  48.463  1.00  0.00    -0.323 N 
HETATM   12  C12 UNL     1      26.346   9.142  47.345  1.00  0.00     0.248 C 
HETATM   13  O1  UNL     1      26.649   7.987  46.929  1.00  0.00    -0.268 OA
HETATM   14  C13 UNL     1      25.986  10.582  47.547  1.00  0.00     0.108 C 
HETATM   15  C14 UNL     1      26.809  11.031  48.486  1.00  0.00     0.086 C 
HETATM   16  N3  UNL     1      28.037  10.768  48.171  1.00  0.00    -0.266 NA
HETATM   17  C15 UNL     1      28.296  10.773  46.773  1.00  0.00     0.300 C 
HETATM   18  N4  UNL     1      29.642  10.454  46.385  1.00  0.00    -0.256 NA
HETATM   19  C16 UNL     1      30.207  11.004  45.350  1.00  0.00     0.100 C 
HETATM   20  C17 UNL     1      29.789  12.002  44.332  1.00  0.00     0.091 C 
HETATM   21  N5  UNL     1      31.521  10.661  45.021  1.00  0.00    -0.297 N 
HETATM   22  C18 UNL     1      32.356   9.777  45.677  1.00  0.00     0.321 C 
HETATM   23  O2  UNL     1      31.688   9.357  46.642  1.00  0.00    -0.247 OA
HETATM   24  N6  UNL     1      33.468   9.022  45.990  1.00  0.00    -0.341 N 
HETATM   25  C19 UNL     1      34.181   8.085  46.791  1.00  0.00     0.154 C 
HETATM   26  C20 UNL     1      33.490   6.777  46.843  1.00  0.00     0.292 C 
HETATM   27  H16 UNL     1      26.359   8.764  49.381  1.00  0.00     0.169 HD
HETATM   28  H23 UNL     1      32.307  10.792  44.388  1.00  0.00     0.172 HD
HETATM   29  H24 UNL     1      33.887   9.468  45.145  1.00  0.00     0.164 HD
ENDROOT
BRANCH   1  30
HETATM   30  C2  UNL     1      32.583   7.162  48.948  1.00  0.00     0.268 C 
HETATM   31  C1  UNL     1      31.727   8.140  49.677  1.00  0.00     0.037 C 
ENDBRANCH   1  30
TORSDOF 1
ENDMDL
MODEL 7
REMARK VINA RESULT:      -7.7      2.105      5.293
REMARK  1 active torsions:
REMARK  status: ('A' for Active; 'I' for Inactive)
REMARK    1  A    between atoms: C2_2  and  N1_3 
ROOT
HETATM    1  N1  UNL     1      18.714   2.733  50.805  1.00  0.00     0.089 N 
HETATM    2  C3  UNL     1      18.887   2.190  52.113  1.00  0.00     0.272 C 
HETATM    3  C4  UNL     1      20.130   1.477  52.436  1.00  0.00     0.035 C 
HETATM    4  C5  UNL     1      21.431   2.166  52.290  1.00  0.00     0.042 C 
HETATM    5  C6  UNL     1      22.562   1.276  52.667  1.00  0.00    -0.031 A 
HETATM    6  C7  UNL     1      22.322   0.229  53.522  1.00  0.00     0.009 A 
HETATM    7  C8  UNL     1      23.270  -0.671  53.966  1.00  0.00     0.001 A 
HETATM    8  C9  UNL     1      24.587  -0.576  53.558  1.00  0.00     0.002 A 
HETATM    9  C10 UNL     1      24.824   0.503  52.679  1.00  0.00     0.030 A 
HETATM   10  C11 UNL     1      23.858   1.426  52.223  1.00  0.00     0.041 A 
HETATM   11  N2  UNL     1      24.583   2.309  51.377  1.00  0.00    -0.323 N 
HETATM   12  C12 UNL     1      24.877   3.730  51.344  1.00  0.00     0.248 C 
HETATM   13  O1  UNL     1      24.147   3.456  52.340  1.00  0.00    -0.268 OA
HETATM   14  C13 UNL     1      25.724   4.334  50.267  1.00  0.00     0.108 C 
HETATM   15  C14 UNL     1      25.245   3.861  49.123  1.00  0.00     0.086 C 
HETATM   16  N3  UNL     1      23.968   4.062  49.053  1.00  0.00    -0.266 NA
HETATM   17  C15 UNL     1      23.526   5.243  49.709  1.00  0.00     0.300 C 
HETATM   18  N4  UNL     1      22.109   5.482  49.679  1.00  0.00    -0.256 NA
HETATM   19  C16 UNL     1      21.617   6.684  49.613  1.00  0.00     0.100 C 
HETATM   20  C17 UNL     1      22.192   8.053  49.551  1.00  0.00     0.091 C 
HETATM   21  N5  UNL     1      20.231   6.859  49.581  1.00  0.00    -0.297 N 
HETATM   22  C18 UNL     1      19.253   5.883  49.602  1.00  0.00     0.321 C 
HETATM   23  O2  UNL     1      19.875   4.804  49.642  1.00  0.00    -0.247 OA
HETATM   24  N6  UNL     1      18.010   5.283  49.610  1.00  0.00    -0.341 N 
HETATM   25  C19 UNL     1      17.149   4.148  49.637  1.00  0.00     0.154 C 
HETATM   26  C20 UNL     1      17.361   3.334  50.854  1.00  0.00     0.292 C 
HETATM   27  H16 UNL     1      25.035   1.832  50.531  1.00  0.00     0.169 HD
HETATM   28  H23 UNL     1      19.451   7.512  49.540  1.00  0.00     0.172 HD
HETATM   29  H24 UNL     1      17.646   6.260  49.575  1.00  0.00     0.164 HD
ENDROOT
BRANCH   1  30
HETATM   30  C2  UNL     1      18.642   1.737  49.753  1.00  0.00     0.268 C 
HETATM   31  C1  UNL     1      17.828   0.533  50.086  1.00  0.00     0.037 C 
ENDBRANCH   1  30
TORSDOF 1
ENDMDL
MODEL 8
REMARK VINA RESULT:      -7.7      2.805      5.263
REMARK  1 active torsions:
REMARK  status: ('A' for Active; 'I' for Inactive)
REMARK    1  A    between atoms: C2_2  and  N1_3 
ROOT
HETATM    1  N1  UNL     1      16.924   2.017  50.404  1.00  0.00     0.089 N 
HETATM    2  C3  UNL     1      17.730   2.117  49.230  1.00  0.00     0.272 C 
HETATM    3  C4  UNL     1      19.167   2.390  49.367  1.00  0.00     0.035 C 
HETATM    4  C5  UNL     1      20.016   1.476  50.163  1.00  0.00     0.042 C 
HETATM    5  C6  UNL     1      21.434   1.927  50.176  1.00  0.00    -0.031 A 
HETATM    6  C7  UNL     1      21.885   2.721  49.151  1.00  0.00     0.009 A 
HETATM    7  C8  UNL     1      23.172   3.206  49.025  1.00  0.00     0.001 A 
HETATM    8  C9  UNL     1      24.138   2.912  49.968  1.00  0.00     0.002 A 
HETATM    9  C10 UNL     1      23.665   2.095  51.018  1.00  0.00     0.030 A 
HETATM   10  C11 UNL     1      22.351   1.597  51.151  1.00  0.00     0.041 A 
HETATM   11  N2  UNL     1      22.380   0.835  52.351  1.00  0.00    -0.323 N 
HETATM   12  C12 UNL     1      22.149  -0.548  52.726  1.00  0.00     0.248 C 
HETATM   13  O1  UNL     1      21.966  -0.393  51.484  1.00  0.00    -0.268 OA
HETATM   14  C13 UNL     1      22.294  -1.015  54.141  1.00  0.00     0.108 C 
HETATM   15  C14 UNL     1      21.621  -0.142  54.880  1.00  0.00     0.086 C 
HETATM   16  N3  UNL     1      20.417  -0.001  54.425  1.00  0.00    -0.266 NA
HETATM   17  C15 UNL     1      19.875  -1.175  53.833  1.00  0.00     0.300 C 
HETATM   18  N4  UNL     1      18.552  -1.046  53.288  1.00  0.00    -0.256 NA
HETATM   19  C16 UNL     1      17.698  -2.028  53.320  1.00  0.00     0.100 C 
HETATM   20  C17 UNL     1      17.719  -3.422  53.833  1.00  0.00     0.091 C 
HETATM   21  N5  UNL     1      16.422  -1.846  52.779  1.00  0.00    -0.297 N 
HETATM   22  C18 UNL     1      15.905  -0.708  52.190  1.00  0.00     0.321 C 
HETATM   23  O2  UNL     1      16.821   0.134  52.256  1.00  0.00    -0.247 OA
HETATM   24  N6  UNL     1      15.027   0.148  51.557  1.00  0.00    -0.341 N 
HETATM   25  C19 UNL     1      14.667   1.403  50.988  1.00  0.00     0.154 C 
HETATM   26  C20 UNL     1      15.564   1.772  49.871  1.00  0.00     0.292 C 
HETATM   27  H16 UNL     1      22.626   1.404  53.225  1.00  0.00     0.169 HD
HETATM   28  H23 UNL     1      15.510  -2.253  52.581  1.00  0.00     0.172 HD
HETATM   29  H24 UNL     1      14.371  -0.664  51.582  1.00  0.00     0.164 HD
ENDROOT
BRANCH   1  30
HETATM   30  C2  UNL     1      16.813   3.253  51.156  1.00  0.00     0.268 C 
HETATM   31  C1  UNL     1      16.349   4.427  50.364  1.00  0.00     0.037 C 
ENDBRANCH   1  30
TORSDOF 1
ENDMDL
MODEL 9
REMARK VINA RESULT:      -7.4      5.257      8.085
REMARK  1 active torsions:
REMARK  status: ('A' for Active; 'I' for Inactive)
REMARK    1  A    between atoms: C2_2  and  N1_3 
ROOT
HETATM    1  N1  UNL     1      28.344   8.436  47.836  1.00  0.00     0.089 N 
HETATM    2  C3  UNL     1      28.628   7.055  47.615  1.00  0.00     0.272 C 
HETATM    3  C4  UNL     1      27.941   6.042  48.427  1.00  0.00     0.035 C 
HETATM    4  C5  UNL     1      26.463   5.983  48.431  1.00  0.00     0.042 C 
HETATM    5  C6  UNL     1      25.966   4.891  49.310  1.00  0.00    -0.031 A 
HETATM    6  C7  UNL     1      26.792   3.827  49.575  1.00  0.00     0.009 A 
HETATM    7  C8  UNL     1      26.466   2.741  50.363  1.00  0.00     0.001 A 
HETATM    8  C9  UNL     1      25.228   2.648  50.968  1.00  0.00     0.002 A 
HETATM    9  C10 UNL     1      24.385   3.746  50.691  1.00  0.00     0.030 A 
HETATM   10  C11 UNL     1      24.714   4.858  49.885  1.00  0.00     0.041 A 
HETATM   11  N2  UNL     1      23.548   5.671  49.912  1.00  0.00    -0.323 N 
HETATM   12  C12 UNL     1      22.601   6.185  48.940  1.00  0.00     0.248 C 
HETATM   13  O1  UNL     1      23.495   5.502  48.363  1.00  0.00    -0.268 OA
HETATM   14  C13 UNL     1      21.434   7.031  49.347  1.00  0.00     0.108 C 
HETATM   15  C14 UNL     1      21.928   7.962  50.154  1.00  0.00     0.086 C 
HETATM   16  N3  UNL     1      22.926   8.563  49.590  1.00  0.00    -0.266 NA
HETATM   17  C15 UNL     1      22.823   8.666  48.175  1.00  0.00     0.300 C 
HETATM   18  N4  UNL     1      23.928   9.300  47.512  1.00  0.00    -0.256 NA
HETATM   19  C16 UNL     1      23.762  10.032  46.449  1.00  0.00     0.100 C 
HETATM   20  C17 UNL     1      22.594  10.446  45.631  1.00  0.00     0.091 C 
HETATM   21  N5  UNL     1      24.873  10.629  45.846  1.00  0.00    -0.297 N 
HETATM   22  C18 UNL     1      26.195  10.558  46.244  1.00  0.00     0.321 C 
HETATM   23  O2  UNL     1      26.185   9.852  47.270  1.00  0.00    -0.247 OA
HETATM   24  N6  UNL     1      27.561  10.748  46.266  1.00  0.00    -0.341 N 
HETATM   25  C19 UNL     1      28.859  10.563  46.823  1.00  0.00     0.154 C 
HETATM   26  C20 UNL     1      29.229   9.131  46.874  1.00  0.00     0.292 C 
HETATM   27  H16 UNL     1      23.278   6.018  50.889  1.00  0.00     0.169 HD
HETATM   28  H23 UNL     1      25.226  11.216  45.093  1.00  0.00     0.172 HD
HETATM   29  H24 UNL     1      27.398  11.315  45.405  1.00  0.00     0.164 HD
ENDROOT
BRANCH   1  30
HETATM   30  C2  UNL     1      28.752   8.926  49.139  1.00  0.00     0.268 C 
HETATM   31  C1  UNL     1      27.630   9.285  50.052  1.00  0.00     0.037 C 
ENDBRANCH   1  30
TORSDOF 1
ENDMDL
