MODEL 1
REMARK VINA RESULT:      -8.8      0.000      0.000
REMARK  3 active torsions:
REMARK  status: ('A' for Active; 'I' for Inactive)
REMARK    1  A    between atoms: C4_5  and  C5_6 
REMARK    2  A    between atoms: C5_6  and  N1_7 
REMARK    3  A    between atoms: C11_16  and  C12_17 
ROOT
HETATM    1  N1  UNL     1      23.442  -0.171  53.589  1.00  0.00    -0.336 N 
HETATM    2  C6  UNL     1      23.988   0.614  52.644  1.00  0.00     0.094 A 
HETATM    3  C7  UNL     1      23.017   1.019  51.751  1.00  0.00     0.035 A 
HETATM    4  C8  UNL     1      21.849   0.419  52.233  1.00  0.00     0.043 A 
HETATM    5  C9  UNL     1      22.123  -0.311  53.364  1.00  0.00     0.162 A 
HETATM    6  N2  UNL     1      21.380  -1.026  54.145  1.00  0.00    -0.154 NA
HETATM    7  N3  UNL     1      19.993  -1.256  54.026  1.00  0.00    -0.270 N 
HETATM    8  C10 UNL     1      19.114  -0.742  53.009  1.00  0.00     0.226 A 
HETATM    9  N4  UNL     1      19.409   0.022  52.013  1.00  0.00    -0.241 NA
HETATM   10  C11 UNL     1      20.670   0.563  51.646  1.00  0.00     0.082 A 
HETATM   11  H7  UNL     1      19.456  -1.846  54.696  1.00  0.00     0.190 HD
ENDROOT
BRANCH   1  12
HETATM   12  C5  UNL     1      24.290  -0.726  54.653  1.00  0.00     0.168 C 
BRANCH  12  13
HETATM   13  C4  UNL     1      25.716  -0.606  54.318  1.00  0.00    -0.040 A 
HETATM   14  C3  UNL     1      26.255  -1.273  53.213  1.00  0.00     0.010 A 
HETATM   15  C2  UNL     1      27.598  -1.142  52.923  1.00  0.00     0.024 A 
HETATM   16  C1  UNL     1      28.422  -0.366  53.701  1.00  0.00     0.034 A 
HETATM   17 CL1  UNL     1      30.141  -0.199  53.327  1.00  0.00    -0.084 Cl
HETATM   18  C19 UNL     1      27.950   0.318  54.803  1.00  0.00     0.024 A 
HETATM   19  C18 UNL     1      26.604   0.150  55.045  1.00  0.00     0.010 A 
ENDBRANCH  12  13
ENDBRANCH   1  12
BRANCH  10  20
HETATM   20  C12 UNL     1      20.644   1.398  50.446  1.00  0.00    -0.005 A 
HETATM   21  C13 UNL     1      21.202   1.063  49.225  1.00  0.00     0.014 A 
HETATM   22  C14 UNL     1      21.112   1.937  48.160  1.00  0.00     0.002 A 
HETATM   23  C15 UNL     1      20.455   3.153  48.335  1.00  0.00     0.019 A 
HETATM   24  C16 UNL     1      19.899   3.481  49.559  1.00  0.00     0.011 A 
HETATM   25 BR1  UNL     1      19.008   5.158  49.752  1.00  0.00    -0.051 Br
HETATM   26  C17 UNL     1      19.991   2.601  50.627  1.00  0.00     0.032 A 
ENDBRANCH  10  20
TORSDOF 3
ENDMDL
MODEL 2
REMARK VINA RESULT:      -8.7      5.885      6.781
REMARK  3 active torsions:
REMARK  status: ('A' for Active; 'I' for Inactive)
REMARK    1  A    between atoms: C4_5  and  C5_6 
REMARK    2  A    between atoms: C5_6  and  N1_7 
REMARK    3  A    between atoms: C11_16  and  C12_17 
ROOT
HETATM    1  N1  UNL     1      25.436   3.221  50.622  1.00  0.00    -0.336 N 
HETATM    2  C6  UNL     1      26.399   3.110  49.690  1.00  0.00     0.094 A 
HETATM    3  C7  UNL     1      26.647   4.342  49.121  1.00  0.00     0.035 A 
HETATM    4  C8  UNL     1      25.760   5.199  49.782  1.00  0.00     0.043 A 
HETATM    5  C9  UNL     1      25.021   4.498  50.703  1.00  0.00     0.162 A 
HETATM    6  N2  UNL     1      24.095   4.852  51.533  1.00  0.00    -0.154 NA
HETATM    7  N3  UNL     1      23.568   6.148  51.720  1.00  0.00    -0.270 N 
HETATM    8  C10 UNL     1      23.952   7.347  51.024  1.00  0.00     0.226 A 
HETATM    9  N4  UNL     1      24.841   7.483  50.101  1.00  0.00    -0.241 NA
HETATM   10  C11 UNL     1      25.682   6.496  49.521  1.00  0.00     0.082 A 
HETATM   11  H7  UNL     1      22.818   6.361  52.412  1.00  0.00     0.190 HD
ENDROOT
BRANCH   1  12
HETATM   12  C5  UNL     1      25.002   2.029  51.365  1.00  0.00     0.168 C 
BRANCH  12  13
HETATM   13  C4  UNL     1      26.135   1.371  52.029  1.00  0.00    -0.040 A 
HETATM   14  C3  UNL     1      27.107   2.116  52.704  1.00  0.00     0.010 A 
HETATM   15  C2  UNL     1      28.160   1.470  53.319  1.00  0.00     0.024 A 
HETATM   16  C1  UNL     1      28.275   0.102  53.282  1.00  0.00     0.034 A 
HETATM   17 CL1  UNL     1      29.625  -0.723  54.071  1.00  0.00    -0.084 Cl
HETATM   18  C19 UNL     1      27.348  -0.689  52.634  1.00  0.00     0.024 A 
HETATM   19  C18 UNL     1      26.321   0.009  52.039  1.00  0.00     0.010 A 
ENDBRANCH  12  13
ENDBRANCH   1  12
BRANCH  10  20
HETATM   20  C12 UNL     1      26.586   7.002  48.488  1.00  0.00    -0.005 A 
HETATM   21  C13 UNL     1      27.965   6.890  48.506  1.00  0.00     0.014 A 
HETATM   22  C14 UNL     1      28.714   7.410  47.469  1.00  0.00     0.002 A 
HETATM   23  C15 UNL     1      28.062   8.045  46.414  1.00  0.00     0.019 A 
HETATM   24  C16 UNL     1      26.683   8.153  46.404  1.00  0.00     0.011 A 
HETATM   25 BR1  UNL     1      25.834   9.032  44.937  1.00  0.00    -0.051 Br
HETATM   26  C17 UNL     1      25.933   7.630  47.447  1.00  0.00     0.032 A 
ENDBRANCH  10  20
TORSDOF 3
ENDMDL
MODEL 3
REMARK VINA RESULT:      -8.6      4.781      6.392
REMARK  3 active torsions:
REMARK  status: ('A' for Active; 'I' for Inactive)
REMARK    1  A    between atoms: C4_5  and  C5_6 
REMARK    2  A    between atoms: C5_6  and  N1_7 
REMARK    3  A    between atoms: C11_16  and  C12_17 
ROOT
HETATM    1  N1  UNL     1      23.481   4.541  50.471  1.00  0.00    -0.336 N 
HETATM    2  C6  UNL     1      23.669   4.395  51.794  1.00  0.00     0.094 A 
HETATM    3  C7  UNL     1      23.180   3.172  52.206  1.00  0.00     0.035 A 
HETATM    4  C8  UNL     1      22.686   2.597  51.031  1.00  0.00     0.043 A 
HETATM    5  C9  UNL     1      22.877   3.448  49.970  1.00  0.00     0.162 A 
HETATM    6  N2  UNL     1      22.590   3.355  48.712  1.00  0.00    -0.154 NA
HETATM    7  N3  UNL     1      21.962   2.274  48.059  1.00  0.00    -0.270 N 
HETATM    8  C10 UNL     1      21.507   1.047  48.657  1.00  0.00     0.226 A 
HETATM    9  N4  UNL     1      21.579   0.689  49.893  1.00  0.00    -0.241 NA
HETATM   10  C11 UNL     1      22.122   1.399  50.997  1.00  0.00     0.082 A 
HETATM   11  H7  UNL     1      21.762   2.268  47.036  1.00  0.00     0.190 HD
ENDROOT
BRANCH   1  12
HETATM   12  C5  UNL     1      23.925   5.773  49.804  1.00  0.00     0.168 C 
BRANCH  12  13
HETATM   13  C4  UNL     1      25.317   5.664  49.348  1.00  0.00    -0.040 A 
HETATM   14  C3  UNL     1      26.011   4.453  49.437  1.00  0.00     0.010 A 
HETATM   15  C2  UNL     1      27.319   4.380  49.000  1.00  0.00     0.024 A 
HETATM   16  C1  UNL     1      27.956   5.478  48.477  1.00  0.00     0.034 A 
HETATM   17 CL1  UNL     1      29.631   5.382  47.919  1.00  0.00    -0.084 Cl
HETATM   18  C19 UNL     1      27.325   6.700  48.362  1.00  0.00     0.024 A 
HETATM   19  C18 UNL     1      26.024   6.714  48.813  1.00  0.00     0.010 A 
ENDBRANCH  12  13
ENDBRANCH   1  12
BRANCH  10  20
HETATM   20  C12 UNL     1      22.039   0.688  52.273  1.00  0.00    -0.005 A 
HETATM   21  C13 UNL     1      20.870   0.412  52.961  1.00  0.00     0.014 A 
HETATM   22  C14 UNL     1      20.918  -0.269  54.160  1.00  0.00     0.002 A 
HETATM   23  C15 UNL     1      22.154  -0.671  54.663  1.00  0.00     0.019 A 
HETATM   24  C16 UNL     1      23.318  -0.392  53.969  1.00  0.00     0.011 A 
HETATM   25 BR1  UNL     1      24.988  -0.962  54.695  1.00  0.00    -0.051 Br
HETATM   26  C17 UNL     1      23.267   0.293  52.764  1.00  0.00     0.032 A 
ENDBRANCH  10  20
TORSDOF 3
ENDMDL
MODEL 4
REMARK VINA RESULT:      -8.6      6.559      8.232
REMARK  3 active torsions:
REMARK  status: ('A' for Active; 'I' for Inactive)
REMARK    1  A    between atoms: C4_5  and  C5_6 
REMARK    2  A    between atoms: C5_6  and  N1_7 
REMARK    3  A    between atoms: C11_16  and  C12_17 
ROOT
HETATM    1  N1  UNL     1      25.860   5.153  49.345  1.00  0.00    -0.336 N 
HETATM    2  C6  UNL     1      26.731   4.136  49.221  1.00  0.00     0.094 A 
HETATM    3  C7  UNL     1      26.530   3.219  50.232  1.00  0.00     0.035 A 
HETATM    4  C8  UNL     1      25.473   3.762  50.970  1.00  0.00     0.043 A 
HETATM    5  C9  UNL     1      25.070   4.952  50.415  1.00  0.00     0.162 A 
HETATM    6  N2  UNL     1      24.149   5.801  50.738  1.00  0.00    -0.154 NA
HETATM    7  N3  UNL     1      23.255   5.715  51.827  1.00  0.00    -0.270 N 
HETATM    8  C10 UNL     1      23.182   4.663  52.806  1.00  0.00     0.226 A 
HETATM    9  N4  UNL     1      23.907   3.600  52.889  1.00  0.00    -0.241 NA
HETATM   10  C11 UNL     1      24.967   3.176  52.045  1.00  0.00     0.082 A 
HETATM   11  H7  UNL     1      22.535   6.440  52.028  1.00  0.00     0.190 HD
ENDROOT
BRANCH   1  12
HETATM   12  C5  UNL     1      25.888   6.256  48.374  1.00  0.00     0.168 C 
BRANCH  12  13
HETATM   13  C4  UNL     1      26.987   7.188  48.655  1.00  0.00    -0.040 A 
HETATM   14  C3  UNL     1      26.835   8.226  49.581  1.00  0.00     0.010 A 
HETATM   15  C2  UNL     1      27.886   9.086  49.824  1.00  0.00     0.024 A 
HETATM   16  C1  UNL     1      29.087   8.945  49.172  1.00  0.00     0.034 A 
HETATM   17 CL1  UNL     1      30.432  10.049  49.486  1.00  0.00    -0.084 Cl
HETATM   18  C19 UNL     1      29.301   7.942  48.250  1.00  0.00     0.024 A 
HETATM   19  C18 UNL     1      28.218   7.114  48.047  1.00  0.00     0.010 A 
ENDBRANCH  12  13
ENDBRANCH   1  12
BRANCH  10  20
HETATM   20  C12 UNL     1      25.578   1.904  52.434  1.00  0.00    -0.005 A 
HETATM   21  C13 UNL     1      25.019   0.654  52.233  1.00  0.00     0.014 A 
HETATM   22  C14 UNL     1      25.694  -0.478  52.645  1.00  0.00     0.002 A 
HETATM   23  C15 UNL     1      26.936  -0.341  53.262  1.00  0.00     0.019 A 
HETATM   24  C16 UNL     1      27.487   0.913  53.458  1.00  0.00     0.011 A 
HETATM   25 BR1  UNL     1      29.191   1.052  54.306  1.00  0.00    -0.051 Br
HETATM   26  C17 UNL     1      26.807   2.048  53.044  1.00  0.00     0.032 A 
ENDBRANCH  10  20
TORSDOF 3
ENDMDL
MODEL 5
REMARK VINA RESULT:      -8.5      2.983      3.588
REMARK  3 active torsions:
REMARK  status: ('A' for Active; 'I' for Inactive)
REMARK    1  A    between atoms: C4_5  and  C5_6 
REMARK    2  A    between atoms: C5_6  and  N1_7 
REMARK    3  A    between atoms: C11_16  and  C12_17 
ROOT
HETATM    1  N1  UNL     1      23.819   1.401  52.935  1.00  0.00    -0.336 N 
HETATM    2  C6  UNL     1      24.402   2.573  53.243  1.00  0.00     0.094 A 
HETATM    3  C7  UNL     1      23.940   3.563  52.401  1.00  0.00     0.035 A 
HETATM    4  C8  UNL     1      23.037   2.897  51.566  1.00  0.00     0.043 A 
HETATM    5  C9  UNL     1      22.971   1.568  51.904  1.00  0.00     0.162 A 
HETATM    6  N2  UNL     1      22.291   0.576  51.426  1.00  0.00    -0.154 NA
HETATM    7  N3  UNL     1      21.372   0.610  50.356  1.00  0.00    -0.270 N 
HETATM    8  C10 UNL     1      21.000   1.757  49.570  1.00  0.00     0.226 A 
HETATM    9  N4  UNL     1      21.423   2.969  49.680  1.00  0.00    -0.241 NA
HETATM   10  C11 UNL     1      22.364   3.506  50.600  1.00  0.00     0.082 A 
HETATM   11  H7  UNL     1      20.857  -0.233  50.023  1.00  0.00     0.190 HD
ENDROOT
BRANCH   1  12
HETATM   12  C5  UNL     1      24.160   0.195  53.703  1.00  0.00     0.168 C 
BRANCH  12  13
HETATM   13  C4  UNL     1      25.607  -0.058  53.688  1.00  0.00    -0.040 A 
HETATM   14  C3  UNL     1      26.213  -0.712  52.610  1.00  0.00     0.010 A 
HETATM   15  C2  UNL     1      27.575  -0.936  52.625  1.00  0.00     0.024 A 
HETATM   16  C1  UNL     1      28.353  -0.527  53.680  1.00  0.00     0.034 A 
HETATM   17 CL1  UNL     1      30.097  -0.814  53.695  1.00  0.00    -0.084 Cl
HETATM   18  C19 UNL     1      27.815   0.125  54.771  1.00  0.00     0.024 A 
HETATM   19  C18 UNL     1      26.453   0.320  54.703  1.00  0.00     0.010 A 
ENDBRANCH  12  13
ENDBRANCH   1  12
BRANCH  10  20
HETATM   20  C12 UNL     1      22.614   4.938  50.443  1.00  0.00    -0.005 A 
HETATM   21  C13 UNL     1      21.896   5.948  51.058  1.00  0.00     0.014 A 
HETATM   22  C14 UNL     1      22.227   7.269  50.832  1.00  0.00     0.002 A 
HETATM   23  C15 UNL     1      23.288   7.565  49.979  1.00  0.00     0.019 A 
HETATM   24  C16 UNL     1      24.002   6.549  49.368  1.00  0.00     0.011 A 
HETATM   25 BR1  UNL     1      25.449   7.003  48.208  1.00  0.00    -0.051 Br
HETATM   26  C17 UNL     1      23.667   5.224  49.597  1.00  0.00     0.032 A 
ENDBRANCH  10  20
TORSDOF 3
ENDMDL
MODEL 6
REMARK VINA RESULT:      -8.4      3.769      7.263
REMARK  3 active torsions:
REMARK  status: ('A' for Active; 'I' for Inactive)
REMARK    1  A    between atoms: C4_5  and  C5_6 
REMARK    2  A    between atoms: C5_6  and  N1_7 
REMARK    3  A    between atoms: C11_16  and  C12_17 
ROOT
HETATM    1  N1  UNL     1      22.859   1.806  51.953  1.00  0.00    -0.336 N 
HETATM    2  C6  UNL     1      24.060   2.035  51.391  1.00  0.00     0.094 A 
HETATM    3  C7  UNL     1      25.021   1.257  52.003  1.00  0.00     0.035 A 
HETATM    4  C8  UNL     1      24.307   0.545  52.972  1.00  0.00     0.043 A 
HETATM    5  C9  UNL     1      22.979   0.890  52.932  1.00  0.00     0.162 A 
HETATM    6  N2  UNL     1      21.953   0.506  53.620  1.00  0.00    -0.154 NA
HETATM    7  N3  UNL     1      21.936  -0.440  54.667  1.00  0.00    -0.270 N 
HETATM    8  C10 UNL     1      23.058  -1.174  55.190  1.00  0.00     0.226 A 
HETATM    9  N4  UNL     1      24.290  -1.120  54.814  1.00  0.00    -0.241 NA
HETATM   10  C11 UNL     1      24.876  -0.328  53.790  1.00  0.00     0.082 A 
HETATM   11  H7  UNL     1      21.068  -0.703  55.180  1.00  0.00     0.190 HD
ENDROOT
BRANCH   1  12
HETATM   12  C5  UNL     1      21.677   2.526  51.461  1.00  0.00     0.168 C 
BRANCH  12  13
HETATM   13  C4  UNL     1      21.761   2.769  50.015  1.00  0.00    -0.040 A 
HETATM   14  C3  UNL     1      21.840   1.707  49.109  1.00  0.00     0.010 A 
HETATM   15  C2  UNL     1      21.918   1.966  47.755  1.00  0.00     0.024 A 
HETATM   16  C1  UNL     1      21.920   3.253  47.276  1.00  0.00     0.034 A 
HETATM   17 CL1  UNL     1      22.020   3.582  45.542  1.00  0.00    -0.084 Cl
HETATM   18  C19 UNL     1      21.843   4.343  48.118  1.00  0.00     0.024 A 
HETATM   19  C18 UNL     1      21.767   4.025  49.456  1.00  0.00     0.010 A 
ENDBRANCH  12  13
ENDBRANCH   1  12
BRANCH  10  20
HETATM   20  C12 UNL     1      26.318  -0.519  53.630  1.00  0.00    -0.005 A 
HETATM   21  C13 UNL     1      26.920  -1.614  53.036  1.00  0.00     0.014 A 
HETATM   22  C14 UNL     1      28.295  -1.681  52.943  1.00  0.00     0.002 A 
HETATM   23  C15 UNL     1      29.061  -0.635  53.453  1.00  0.00     0.019 A 
HETATM   24  C16 UNL     1      28.452   0.458  54.044  1.00  0.00     0.011 A 
HETATM   25 BR1  UNL     1      29.542   1.867  54.728  1.00  0.00    -0.051 Br
HETATM   26  C17 UNL     1      27.070   0.522  54.137  1.00  0.00     0.032 A 
ENDBRANCH  10  20
TORSDOF 3
ENDMDL
MODEL 7
REMARK VINA RESULT:      -8.4      1.801      2.704
REMARK  3 active torsions:
REMARK  status: ('A' for Active; 'I' for Inactive)
REMARK    1  A    between atoms: C4_5  and  C5_6 
REMARK    2  A    between atoms: C5_6  and  N1_7 
REMARK    3  A    between atoms: C11_16  and  C12_17 
ROOT
HETATM    1  N1  UNL     1      23.321   0.275  53.223  1.00  0.00    -0.336 N 
HETATM    2  C6  UNL     1      22.385  -0.322  52.465  1.00  0.00     0.094 A 
HETATM    3  C7  UNL     1      21.852   0.586  51.574  1.00  0.00     0.035 A 
HETATM    4  C8  UNL     1      22.539   1.772  51.854  1.00  0.00     0.043 A 
HETATM    5  C9  UNL     1      23.441   1.568  52.870  1.00  0.00     0.162 A 
HETATM    6  N2  UNL     1      24.283   2.350  53.462  1.00  0.00    -0.154 NA
HETATM    7  N3  UNL     1      24.510   3.717  53.194  1.00  0.00    -0.270 N 
HETATM    8  C10 UNL     1      23.849   4.527  52.205  1.00  0.00     0.226 A 
HETATM    9  N4  UNL     1      22.928   4.176  51.374  1.00  0.00    -0.241 NA
HETATM   10  C11 UNL     1      22.317   2.905  51.204  1.00  0.00     0.082 A 
HETATM   11  H7  UNL     1      25.210   4.289  53.713  1.00  0.00     0.190 HD
ENDROOT
BRANCH   1  12
HETATM   12  C5  UNL     1      24.030  -0.502  54.249  1.00  0.00     0.168 C 
BRANCH  12  13
HETATM   13  C4  UNL     1      25.482  -0.479  54.030  1.00  0.00    -0.040 A 
HETATM   14  C3  UNL     1      26.047  -1.041  52.880  1.00  0.00     0.010 A 
HETATM   15  C2  UNL     1      27.415  -1.004  52.702  1.00  0.00     0.024 A 
HETATM   16  C1  UNL     1      28.239  -0.425  53.634  1.00  0.00     0.034 A 
HETATM   17 CL1  UNL     1      29.991  -0.379  53.403  1.00  0.00    -0.084 Cl
HETATM   18  C19 UNL     1      27.744   0.148  54.788  1.00  0.00     0.024 A 
HETATM   19  C18 UNL     1      26.374   0.082  54.913  1.00  0.00     0.010 A 
ENDBRANCH  12  13
ENDBRANCH   1  12
BRANCH  10  20
HETATM   20  C12 UNL     1      21.298   2.859  50.156  1.00  0.00    -0.005 A 
HETATM   21  C13 UNL     1      21.500   2.413  48.862  1.00  0.00     0.014 A 
HETATM   22  C14 UNL     1      20.456   2.418  47.958  1.00  0.00     0.002 A 
HETATM   23  C15 UNL     1      19.206   2.876  48.369  1.00  0.00     0.019 A 
HETATM   24  C16 UNL     1      19.012   3.319  49.665  1.00  0.00     0.011 A 
HETATM   25 BR1  UNL     1      17.281   3.936  50.183  1.00  0.00    -0.051 Br
HETATM   26  C17 UNL     1      20.062   3.314  50.571  1.00  0.00     0.032 A 
ENDBRANCH  10  20
TORSDOF 3
ENDMDL
MODEL 8
REMARK VINA RESULT:      -8.1      4.545      7.921
REMARK  3 active torsions:
REMARK  status: ('A' for Active; 'I' for Inactive)
REMARK    1  A    between atoms: C4_5  and  C5_6 
REMARK    2  A    between atoms: C5_6  and  N1_7 
REMARK    3  A    between atoms: C11_16  and  C12_17 
ROOT
HETATM    1  N1  UNL     1      23.779   2.738  49.947  1.00  0.00    -0.336 N 
HETATM    2  C6  UNL     1      25.058   3.141  49.850  1.00  0.00     0.094 A 
HETATM    3  C7  UNL     1      25.806   2.581  50.865  1.00  0.00     0.035 A 
HETATM    4  C8  UNL     1      24.880   1.813  51.578  1.00  0.00     0.043 A 
HETATM    5  C9  UNL     1      23.636   1.917  51.004  1.00  0.00     0.162 A 
HETATM    6  N2  UNL     1      22.489   1.399  51.302  1.00  0.00    -0.154 NA
HETATM    7  N3  UNL     1      22.200   0.529  52.374  1.00  0.00    -0.270 N 
HETATM    8  C10 UNL     1      23.123   0.035  53.362  1.00  0.00     0.226 A 
HETATM    9  N4  UNL     1      24.383   0.282  53.468  1.00  0.00    -0.241 NA
HETATM   10  C11 UNL     1      25.204   1.103  52.648  1.00  0.00     0.082 A 
HETATM   11  H7  UNL     1      21.246   0.148  52.555  1.00  0.00     0.190 HD
ENDROOT
BRANCH   1  12
HETATM   12  C5  UNL     1      22.791   3.210  48.967  1.00  0.00     0.168 C 
BRANCH  12  13
HETATM   13  C4  UNL     1      22.649   4.671  49.012  1.00  0.00    -0.040 A 
HETATM   14  C3  UNL     1      22.983   5.462  47.908  1.00  0.00     0.010 A 
HETATM   15  C2  UNL     1      22.839   6.833  47.980  1.00  0.00     0.024 A 
HETATM   16  C1  UNL     1      22.372   7.441  49.119  1.00  0.00     0.034 A 
HETATM   17 CL1  UNL     1      22.188   9.197  49.207  1.00  0.00    -0.084 Cl
HETATM   18  C19 UNL     1      22.023   6.716  50.240  1.00  0.00     0.024 A 
HETATM   19  C18 UNL     1      22.188   5.355  50.112  1.00  0.00     0.010 A 
ENDBRANCH  12  13
ENDBRANCH   1  12
BRANCH  10  20
HETATM   20  C12 UNL     1      26.606   1.159  53.061  1.00  0.00    -0.005 A 
HETATM   21  C13 UNL     1      27.277   2.301  53.464  1.00  0.00     0.014 A 
HETATM   22  C14 UNL     1      28.605   2.228  53.831  1.00  0.00     0.002 A 
HETATM   23  C15 UNL     1      29.254   0.995  53.790  1.00  0.00     0.019 A 
HETATM   24  C16 UNL     1      28.576  -0.141  53.386  1.00  0.00     0.011 A 
HETATM   25 BR1  UNL     1      29.506  -1.808  53.345  1.00  0.00    -0.051 Br
HETATM   26  C17 UNL     1      27.242  -0.065  53.017  1.00  0.00     0.032 A 
ENDBRANCH  10  20
TORSDOF 3
ENDMDL
MODEL 9
REMARK VINA RESULT:      -8.1      2.557      3.817
REMARK  3 active torsions:
REMARK  status: ('A' for Active; 'I' for Inactive)
REMARK    1  A    between atoms: C4_5  and  C5_6 
REMARK    2  A    between atoms: C5_6  and  N1_7 
REMARK    3  A    between atoms: C11_16  and  C12_17 
ROOT
HETATM    1  N1  UNL     1      23.931   1.134  52.443  1.00  0.00    -0.336 N 
HETATM    2  C6  UNL     1      22.708   0.969  51.910  1.00  0.00     0.094 A 
HETATM    3  C7  UNL     1      22.587   1.729  50.765  1.00  0.00     0.035 A 
HETATM    4  C8  UNL     1      23.829   2.361  50.651  1.00  0.00     0.043 A 
HETATM    5  C9  UNL     1      24.648   1.988  51.689  1.00  0.00     0.162 A 
HETATM    6  N2  UNL     1      25.862   2.305  52.003  1.00  0.00    -0.154 NA
HETATM    7  N3  UNL     1      26.721   3.181  51.306  1.00  0.00    -0.270 N 
HETATM    8  C10 UNL     1      26.425   3.906  50.099  1.00  0.00     0.226 A 
HETATM    9  N4  UNL     1      25.331   3.905  49.417  1.00  0.00    -0.241 NA
HETATM   10  C11 UNL     1      24.126   3.194  49.665  1.00  0.00     0.082 A 
HETATM   11  H7  UNL     1      27.693   3.391  51.619  1.00  0.00     0.190 HD
ENDROOT
BRANCH   1  12
HETATM   12  C5  UNL     1      24.291   0.420  53.676  1.00  0.00     0.168 C 
BRANCH  12  13
HETATM   13  C4  UNL     1      25.701   0.009  53.664  1.00  0.00    -0.040 A 
HETATM   14  C3  UNL     1      26.161  -0.964  52.770  1.00  0.00     0.010 A 
HETATM   15  C2  UNL     1      27.492  -1.330  52.782  1.00  0.00     0.024 A 
HETATM   16  C1  UNL     1      28.380  -0.756  53.658  1.00  0.00     0.034 A 
HETATM   17 CL1  UNL     1      30.084  -1.226  53.671  1.00  0.00    -0.084 Cl
HETATM   18  C19 UNL     1      27.989   0.210  54.563  1.00  0.00     0.024 A 
HETATM   19  C18 UNL     1      26.651   0.535  54.506  1.00  0.00     0.010 A 
ENDBRANCH  12  13
ENDBRANCH   1  12
BRANCH  10  20
HETATM   20  C12 UNL     1      23.073   3.427  48.677  1.00  0.00    -0.005 A 
HETATM   21  C13 UNL     1      22.662   2.520  47.716  1.00  0.00     0.014 A 
HETATM   22  C14 UNL     1      21.653   2.856  46.835  1.00  0.00     0.002 A 
HETATM   23  C15 UNL     1      21.062   4.114  46.929  1.00  0.00     0.019 A 
HETATM   24  C16 UNL     1      21.478   5.015  47.893  1.00  0.00     0.011 A 
HETATM   25 BR1  UNL     1      20.639   6.726  47.984  1.00  0.00    -0.051 Br
HETATM   26  C17 UNL     1      22.492   4.675  48.776  1.00  0.00     0.032 A 
ENDBRANCH  10  20
TORSDOF 3
ENDMDL
