MODEL 1
REMARK VINA RESULT:      -8.3      0.000      0.000
REMARK  7 active torsions:
REMARK  status: ('A' for Active; 'I' for Inactive)
REMARK    1  A    between atoms: C2_2  and  C3_3 
REMARK    2  A    between atoms: C4_5  and  C5_6 
REMARK    3  A    between atoms: C5_6  and  O1_7 
REMARK    4  A    between atoms: O1_7  and  C6_8 
REMARK    5  A    between atoms: C8_10  and  C9_11 
REMARK    6  A    between atoms: N2_17  and  C14_18 
REMARK    7  A    between atoms: C15_20  and  O2_21 
ROOT
HETATM    1  C6  UNL     1      25.578   1.451  52.572  1.00  0.00     0.254 C 
HETATM    2  C7  UNL     1      24.078   1.343  52.326  1.00  0.00     0.117 C 
HETATM    3  C8  UNL     1      23.681   0.131  53.075  1.00  0.00     0.066 C 
HETATM    4  N1  UNL     1      24.703  -0.516  53.475  1.00  0.00    -0.172 NA
HETATM    5  N2  UNL     1      25.869   0.144  53.069  1.00  0.00    -0.216 N 
ENDROOT
BRANCH   1   6
HETATM    6  O1  UNL     1      26.257   1.761  51.400  1.00  0.00    -0.361 OA
BRANCH   6   7
HETATM    7  C5  UNL     1      25.598   2.744  50.678  1.00  0.00     0.201 C 
BRANCH   7   8
HETATM    8  C4  UNL     1      26.544   3.341  49.697  1.00  0.00     0.041 C 
HETATM    9  C3  UNL     1      26.637   4.644  49.498  1.00  0.00     0.111 C 
HETATM   10  F1  UNL     1      25.864   5.510  50.187  1.00  0.00    -0.207 F 
BRANCH   9  11
HETATM   11  C2  UNL     1      27.581   5.174  48.526  1.00  0.00     0.015 C 
HETATM   12  C1  UNL     1      27.674   6.442  48.177  1.00  0.00     0.034 C 
ENDBRANCH   9  11
ENDBRANCH   7   8
ENDBRANCH   6   7
ENDBRANCH   1   6
BRANCH   5  13
HETATM   13  C14 UNL     1      27.104  -0.596  53.223  1.00  0.00     0.194 A 
HETATM   14  N3  UNL     1      27.520  -1.645  53.224  1.00  0.00    -0.198 NA
HETATM   15  C15 UNL     1      28.726  -2.122  53.391  1.00  0.00     0.171 A 
HETATM   16  C16 UNL     1      29.645  -1.191  53.601  1.00  0.00     0.111 A 
HETATM   17  S1  UNL     1      28.683   0.417  53.547  1.00  0.00    -0.058 SA
BRANCH  15  18
HETATM   18  O2  UNL     1      28.937  -3.512  53.335  1.00  0.00    -0.344 OA
HETATM   19  H15 UNL     1      28.536  -4.099  52.616  1.00  0.00     0.219 HD
ENDBRANCH  15  18
ENDBRANCH   5  13
BRANCH   3  20
HETATM   20  C9  UNL     1      22.276  -0.251  53.310  1.00  0.00    -0.028 A 
HETATM   21  C10 UNL     1      21.190   0.231  52.741  1.00  0.00     0.009 A 
HETATM   22  C11 UNL     1      19.954  -0.378  53.211  1.00  0.00    -0.003 A 
HETATM   23  C12 UNL     1      20.345  -1.269  54.107  1.00  0.00    -0.022 A 
HETATM   24  C13 UNL     1      21.809  -1.302  54.278  1.00  0.00     0.067 A 
ENDBRANCH   3  20
TORSDOF 7
ENDMDL
MODEL 2
REMARK VINA RESULT:      -8.2      2.333      6.302
REMARK  7 active torsions:
REMARK  status: ('A' for Active; 'I' for Inactive)
REMARK    1  A    between atoms: C2_2  and  C3_3 
REMARK    2  A    between atoms: C4_5  and  C5_6 
REMARK    3  A    between atoms: C5_6  and  O1_7 
REMARK    4  A    between atoms: O1_7  and  C6_8 
REMARK    5  A    between atoms: C8_10  and  C9_11 
REMARK    6  A    between atoms: N2_17  and  C14_18 
REMARK    7  A    between atoms: C15_20  and  O2_21 
ROOT
HETATM    1  C6  UNL     1      24.978   0.913  52.144  1.00  0.00     0.254 C 
HETATM    2  C7  UNL     1      24.715   2.322  51.626  1.00  0.00     0.117 C 
HETATM    3  C8  UNL     1      25.972   2.689  50.939  1.00  0.00     0.066 C 
HETATM    4  N1  UNL     1      26.891   1.841  51.181  1.00  0.00    -0.172 NA
HETATM    5  N2  UNL     1      26.399   0.838  52.025  1.00  0.00    -0.216 N 
ENDROOT
BRANCH   1   6
HETATM    6  O1  UNL     1      24.523   0.765  53.448  1.00  0.00    -0.361 OA
BRANCH   6   7
HETATM    7  C5  UNL     1      23.881  -0.451  53.626  1.00  0.00     0.201 C 
BRANCH   7   8
HETATM    8  C4  UNL     1      22.429  -0.276  53.358  1.00  0.00     0.041 C 
HETATM    9  C3  UNL     1      21.503  -1.034  53.918  1.00  0.00     0.111 C 
HETATM   10  F1  UNL     1      21.837  -2.022  54.775  1.00  0.00    -0.207 F 
BRANCH   9  11
HETATM   11  C2  UNL     1      20.094  -0.817  53.619  1.00  0.00     0.015 C 
HETATM   12  C1  UNL     1      19.638  -0.038  52.658  1.00  0.00     0.034 C 
ENDBRANCH   9  11
ENDBRANCH   7   8
ENDBRANCH   6   7
ENDBRANCH   1   6
BRANCH   5  13
HETATM   13  C14 UNL     1      27.387  -0.053  52.597  1.00  0.00     0.194 A 
HETATM   14  N3  UNL     1      27.647  -1.147  52.697  1.00  0.00    -0.198 NA
HETATM   15  C15 UNL     1      28.633  -1.774  53.284  1.00  0.00     0.171 A 
HETATM   16  C16 UNL     1      29.499  -0.970  53.881  1.00  0.00     0.111 A 
HETATM   17  S1  UNL     1      28.823   0.748  53.554  1.00  0.00    -0.058 SA
BRANCH  15  18
HETATM   18  O2  UNL     1      28.688  -3.180  53.236  1.00  0.00    -0.344 OA
HETATM   19  H15 UNL     1      28.486  -3.764  54.035  1.00  0.00     0.219 HD
ENDBRANCH  15  18
ENDBRANCH   5  13
BRANCH   3  20
HETATM   20  C9  UNL     1      26.110   3.886  50.089  1.00  0.00    -0.028 A 
HETATM   21  C10 UNL     1      27.112   4.218  49.298  1.00  0.00     0.009 A 
HETATM   22  C11 UNL     1      26.920   5.480  48.598  1.00  0.00    -0.003 A 
HETATM   23  C12 UNL     1      25.736   5.908  49.004  1.00  0.00    -0.022 A 
HETATM   24  C13 UNL     1      25.096   4.989  49.964  1.00  0.00     0.067 A 
ENDBRANCH   3  20
TORSDOF 7
ENDMDL
MODEL 3
REMARK VINA RESULT:      -7.8      2.655      5.498
REMARK  7 active torsions:
REMARK  status: ('A' for Active; 'I' for Inactive)
REMARK    1  A    between atoms: C2_2  and  C3_3 
REMARK    2  A    between atoms: C4_5  and  C5_6 
REMARK    3  A    between atoms: C5_6  and  O1_7 
REMARK    4  A    between atoms: O1_7  and  C6_8 
REMARK    5  A    between atoms: C8_10  and  C9_11 
REMARK    6  A    between atoms: N2_17  and  C14_18 
REMARK    7  A    between atoms: C15_20  and  O2_21 
ROOT
HETATM    1  C6  UNL     1      25.092   1.759  51.339  1.00  0.00     0.254 C 
HETATM    2  C7  UNL     1      26.543   1.537  51.749  1.00  0.00     0.117 C 
HETATM    3  C8  UNL     1      26.504   0.281  52.529  1.00  0.00     0.066 C 
HETATM    4  N1  UNL     1      25.305  -0.067  52.778  1.00  0.00    -0.172 NA
HETATM    5  N2  UNL     1      24.418   0.864  52.225  1.00  0.00    -0.216 N 
ENDROOT
BRANCH   1   6
HETATM    6  O1  UNL     1      24.721   3.088  51.507  1.00  0.00    -0.361 OA
BRANCH   6   7
HETATM    7  C5  UNL     1      24.233   3.630  50.328  1.00  0.00     0.201 C 
BRANCH   7   8
HETATM    8  C4  UNL     1      25.151   4.709  49.875  1.00  0.00     0.041 C 
HETATM    9  C3  UNL     1      26.298   4.462  49.267  1.00  0.00     0.111 C 
HETATM   10  F1  UNL     1      26.699   3.196  49.025  1.00  0.00    -0.207 F 
BRANCH   9  11
HETATM   11  C2  UNL     1      27.158   5.559  48.844  1.00  0.00     0.015 C 
HETATM   12  C1  UNL     1      28.357   5.417  48.315  1.00  0.00     0.034 C 
ENDBRANCH   9  11
ENDBRANCH   7   8
ENDBRANCH   6   7
ENDBRANCH   1   6
BRANCH   5  13
HETATM   13  C14 UNL     1      23.035   0.749  52.639  1.00  0.00     0.194 A 
HETATM   14  N3  UNL     1      22.388   0.584  53.549  1.00  0.00    -0.198 NA
HETATM   15  C15 UNL     1      21.094   0.509  53.717  1.00  0.00     0.171 A 
HETATM   16  C16 UNL     1      20.400   0.656  52.598  1.00  0.00     0.111 A 
HETATM   17  S1  UNL     1      21.710   0.908  51.282  1.00  0.00    -0.058 SA
BRANCH  15  18
HETATM   18  O2  UNL     1      20.572   0.292  55.006  1.00  0.00    -0.344 OA
HETATM   19  H15 UNL     1      19.691   0.680  55.313  1.00  0.00     0.219 HD
ENDBRANCH  15  18
ENDBRANCH   5  13
BRANCH   3  20
HETATM   20  C9  UNL     1      27.715  -0.449  52.948  1.00  0.00    -0.028 A 
HETATM   21  C10 UNL     1      28.826   0.036  53.465  1.00  0.00     0.009 A 
HETATM   22  C11 UNL     1      29.830  -0.975  53.767  1.00  0.00    -0.003 A 
HETATM   23  C12 UNL     1      29.269  -2.117  53.404  1.00  0.00    -0.022 A 
HETATM   24  C13 UNL     1      27.910  -1.937  52.861  1.00  0.00     0.067 A 
ENDBRANCH   3  20
TORSDOF 7
ENDMDL
MODEL 4
REMARK VINA RESULT:      -7.8      1.995      2.239
REMARK  7 active torsions:
REMARK  status: ('A' for Active; 'I' for Inactive)
REMARK    1  A    between atoms: C2_2  and  C3_3 
REMARK    2  A    between atoms: C4_5  and  C5_6 
REMARK    3  A    between atoms: C5_6  and  O1_7 
REMARK    4  A    between atoms: O1_7  and  C6_8 
REMARK    5  A    between atoms: C8_10  and  C9_11 
REMARK    6  A    between atoms: N2_17  and  C14_18 
REMARK    7  A    between atoms: C15_20  and  O2_21 
ROOT
HETATM    1  C6  UNL     1      24.999   2.669  52.418  1.00  0.00     0.254 C 
HETATM    2  C7  UNL     1      23.657   1.999  52.148  1.00  0.00     0.117 C 
HETATM    3  C8  UNL     1      23.599   0.905  53.140  1.00  0.00     0.066 C 
HETATM    4  N1  UNL     1      24.724   0.750  53.718  1.00  0.00    -0.172 NA
HETATM    5  N2  UNL     1      25.646   1.675  53.214  1.00  0.00    -0.216 N 
ENDROOT
BRANCH   1   6
HETATM    6  O1  UNL     1      25.667   2.950  51.232  1.00  0.00    -0.361 OA
BRANCH   6   7
HETATM    7  C5  UNL     1      24.784   3.311  50.226  1.00  0.00     0.201 C 
BRANCH   7   8
HETATM    8  C4  UNL     1      25.202   4.624  49.664  1.00  0.00     0.041 C 
HETATM    9  C3  UNL     1      26.364   4.805  49.062  1.00  0.00     0.111 C 
HETATM   10  F1  UNL     1      27.244   3.791  48.928  1.00  0.00    -0.207 F 
BRANCH   9  11
HETATM   11  C2  UNL     1      26.720   6.112  48.530  1.00  0.00     0.015 C 
HETATM   12  C1  UNL     1      26.710   7.237  49.218  1.00  0.00     0.034 C 
ENDBRANCH   9  11
ENDBRANCH   7   8
ENDBRANCH   6   7
ENDBRANCH   1   6
BRANCH   5  13
HETATM   13  C14 UNL     1      27.029   1.459  53.581  1.00  0.00     0.194 A 
HETATM   14  N3  UNL     1      27.921   1.978  54.040  1.00  0.00    -0.198 NA
HETATM   15  C15 UNL     1      29.142   1.586  54.295  1.00  0.00     0.171 A 
HETATM   16  C16 UNL     1      29.385   0.331  53.948  1.00  0.00     0.111 A 
HETATM   17  S1  UNL     1      27.758  -0.264  53.231  1.00  0.00    -0.058 SA
BRANCH  15  18
HETATM   18  O2  UNL     1      30.050   2.484  54.887  1.00  0.00    -0.344 OA
HETATM   19  H15 UNL     1      30.784   2.186  55.514  1.00  0.00     0.219 HD
ENDBRANCH  15  18
ENDBRANCH   5  13
BRANCH   3  20
HETATM   20  C9  UNL     1      22.382   0.115  53.405  1.00  0.00    -0.028 A 
HETATM   21  C10 UNL     1      22.264  -1.001  54.097  1.00  0.00     0.009 A 
HETATM   22  C11 UNL     1      20.904  -1.518  54.159  1.00  0.00    -0.003 A 
HETATM   23  C12 UNL     1      20.188  -0.651  53.462  1.00  0.00    -0.022 A 
HETATM   24  C13 UNL     1      21.001   0.452  52.916  1.00  0.00     0.067 A 
ENDBRANCH   3  20
TORSDOF 7
ENDMDL
MODEL 5
REMARK VINA RESULT:      -7.8      2.322      6.840
REMARK  7 active torsions:
REMARK  status: ('A' for Active; 'I' for Inactive)
REMARK    1  A    between atoms: C2_2  and  C3_3 
REMARK    2  A    between atoms: C4_5  and  C5_6 
REMARK    3  A    between atoms: C5_6  and  O1_7 
REMARK    4  A    between atoms: O1_7  and  C6_8 
REMARK    5  A    between atoms: C8_10  and  C9_11 
REMARK    6  A    between atoms: N2_17  and  C14_18 
REMARK    7  A    between atoms: C15_20  and  O2_21 
ROOT
HETATM    1  C6  UNL     1      24.675   2.373  50.726  1.00  0.00     0.254 C 
HETATM    2  C7  UNL     1      24.757   3.772  50.126  1.00  0.00     0.117 C 
HETATM    3  C8  UNL     1      26.201   3.969  49.879  1.00  0.00     0.066 C 
HETATM    4  N1  UNL     1      26.889   3.046  50.424  1.00  0.00    -0.172 NA
HETATM    5  N2  UNL     1      26.040   2.146  51.079  1.00  0.00    -0.216 N 
ENDROOT
BRANCH   1   6
HETATM    6  O1  UNL     1      23.810   2.345  51.814  1.00  0.00    -0.361 OA
BRANCH   6   7
HETATM    7  C5  UNL     1      22.922   1.283  51.727  1.00  0.00     0.201 C 
BRANCH   7   8
HETATM    8  C4  UNL     1      22.855   0.599  53.047  1.00  0.00     0.041 C 
HETATM    9  C3  UNL     1      21.838  -0.164  53.404  1.00  0.00     0.111 C 
HETATM   10  F1  UNL     1      20.792  -0.362  52.575  1.00  0.00    -0.207 F 
BRANCH   9  11
HETATM   11  C2  UNL     1      21.826  -0.810  54.709  1.00  0.00     0.015 C 
HETATM   12  C1  UNL     1      22.885  -1.312  55.313  1.00  0.00     0.034 C 
ENDBRANCH   9  11
ENDBRANCH   7   8
ENDBRANCH   6   7
ENDBRANCH   1   6
BRANCH   5  13
HETATM   13  C14 UNL     1      26.681   1.191  51.958  1.00  0.00     0.194 A 
HETATM   14  N3  UNL     1      26.733   0.086  52.187  1.00  0.00    -0.198 NA
HETATM   15  C15 UNL     1      27.408  -0.607  53.066  1.00  0.00     0.171 A 
HETATM   16  C16 UNL     1      28.186   0.129  53.845  1.00  0.00     0.111 A 
HETATM   17  S1  UNL     1      27.898   1.882  53.247  1.00  0.00    -0.058 SA
BRANCH  15  18
HETATM   18  O2  UNL     1      27.259  -2.006  53.109  1.00  0.00    -0.344 OA
HETATM   19  H15 UNL     1      27.144  -2.518  53.973  1.00  0.00     0.219 HD
ENDBRANCH  15  18
ENDBRANCH   5  13
BRANCH   3  20
HETATM   20  C9  UNL     1      26.743   5.097  49.100  1.00  0.00    -0.028 A 
HETATM   21  C10 UNL     1      26.142   6.220  48.757  1.00  0.00     0.009 A 
HETATM   22  C11 UNL     1      26.977   7.125  47.980  1.00  0.00    -0.003 A 
HETATM   23  C12 UNL     1      28.132   6.492  47.864  1.00  0.00    -0.022 A 
HETATM   24  C13 UNL     1      28.133   5.178  48.532  1.00  0.00     0.067 A 
ENDBRANCH   3  20
TORSDOF 7
ENDMDL
MODEL 6
REMARK VINA RESULT:      -7.5      2.250      2.702
REMARK  7 active torsions:
REMARK  status: ('A' for Active; 'I' for Inactive)
REMARK    1  A    between atoms: C2_2  and  C3_3 
REMARK    2  A    between atoms: C4_5  and  C5_6 
REMARK    3  A    between atoms: C5_6  and  O1_7 
REMARK    4  A    between atoms: O1_7  and  C6_8 
REMARK    5  A    between atoms: C8_10  and  C9_11 
REMARK    6  A    between atoms: N2_17  and  C14_18 
REMARK    7  A    between atoms: C15_20  and  O2_21 
ROOT
HETATM    1  C6  UNL     1      25.006   2.332  52.114  1.00  0.00     0.254 C 
HETATM    2  C7  UNL     1      23.668   1.629  51.921  1.00  0.00     0.117 C 
HETATM    3  C8  UNL     1      23.589   0.694  53.064  1.00  0.00     0.066 C 
HETATM    4  N1  UNL     1      24.703   0.626  53.678  1.00  0.00    -0.172 NA
HETATM    5  N2  UNL     1      25.636   1.467  53.060  1.00  0.00    -0.216 N 
ENDROOT
BRANCH   1   6
HETATM    6  O1  UNL     1      25.696   2.435  50.912  1.00  0.00    -0.361 OA
BRANCH   6   7
HETATM    7  C5  UNL     1      25.683   3.734  50.429  1.00  0.00     0.201 C 
BRANCH   7   8
HETATM    8  C4  UNL     1      24.753   3.811  49.271  1.00  0.00     0.041 C 
HETATM    9  C3  UNL     1      23.550   4.353  49.355  1.00  0.00     0.111 C 
HETATM   10  F1  UNL     1      23.100   4.870  50.518  1.00  0.00    -0.207 F 
BRANCH   9  11
HETATM   11  C2  UNL     1      22.682   4.402  48.188  1.00  0.00     0.015 C 
HETATM   12  C1  UNL     1      22.241   3.347  47.530  1.00  0.00     0.034 C 
ENDBRANCH   9  11
ENDBRANCH   7   8
ENDBRANCH   6   7
ENDBRANCH   1   6
BRANCH   5  13
HETATM   13  C14 UNL     1      27.013   1.309  53.480  1.00  0.00     0.194 A 
HETATM   14  N3  UNL     1      27.870   1.870  53.954  1.00  0.00    -0.198 NA
HETATM   15  C15 UNL     1      29.093   1.527  54.261  1.00  0.00     0.171 A 
HETATM   16  C16 UNL     1      29.390   0.273  53.957  1.00  0.00     0.111 A 
HETATM   17  S1  UNL     1      27.811  -0.396  53.200  1.00  0.00    -0.058 SA
BRANCH  15  18
HETATM   18  O2  UNL     1      29.949   2.471  54.860  1.00  0.00    -0.344 OA
HETATM   19  H15 UNL     1      30.570   2.240  55.623  1.00  0.00     0.219 HD
ENDBRANCH  15  18
ENDBRANCH   5  13
BRANCH   3  20
HETATM   20  C9  UNL     1      22.366  -0.049  53.421  1.00  0.00    -0.028 A 
HETATM   21  C10 UNL     1      21.128   0.175  53.026  1.00  0.00     0.009 A 
HETATM   22  C11 UNL     1      20.154  -0.759  53.575  1.00  0.00    -0.003 A 
HETATM   23  C12 UNL     1      20.868  -1.574  54.333  1.00  0.00    -0.022 A 
HETATM   24  C13 UNL     1      22.305  -1.242  54.333  1.00  0.00     0.067 A 
ENDBRANCH   3  20
TORSDOF 7
ENDMDL
MODEL 7
REMARK VINA RESULT:      -7.5      3.073      5.846
REMARK  7 active torsions:
REMARK  status: ('A' for Active; 'I' for Inactive)
REMARK    1  A    between atoms: C2_2  and  C3_3 
REMARK    2  A    between atoms: C4_5  and  C5_6 
REMARK    3  A    between atoms: C5_6  and  O1_7 
REMARK    4  A    between atoms: O1_7  and  C6_8 
REMARK    5  A    between atoms: C8_10  and  C9_11 
REMARK    6  A    between atoms: N2_17  and  C14_18 
REMARK    7  A    between atoms: C15_20  and  O2_21 
ROOT
HETATM    1  C6  UNL     1      24.756   1.675  52.010  1.00  0.00     0.254 C 
HETATM    2  C7  UNL     1      26.237   1.644  52.368  1.00  0.00     0.117 C 
HETATM    3  C8  UNL     1      26.456   0.267  52.860  1.00  0.00     0.066 C 
HETATM    4  N1  UNL     1      25.350  -0.342  53.024  1.00  0.00    -0.172 NA
HETATM    5  N2  UNL     1      24.289   0.503  52.680  1.00  0.00    -0.216 N 
ENDROOT
BRANCH   1   6
HETATM    6  O1  UNL     1      24.156   2.845  52.458  1.00  0.00    -0.361 OA
BRANCH   6   7
HETATM    7  C5  UNL     1      23.999   3.760  51.428  1.00  0.00     0.201 C 
BRANCH   7   8
HETATM    8  C4  UNL     1      23.279   3.104  50.303  1.00  0.00     0.041 C 
HETATM    9  C3  UNL     1      23.461   3.450  49.042  1.00  0.00     0.111 C 
HETATM   10  F1  UNL     1      24.323   4.433  48.706  1.00  0.00    -0.207 F 
BRANCH   9  11
HETATM   11  C2  UNL     1      22.729   2.772  47.980  1.00  0.00     0.015 C 
HETATM   12  C1  UNL     1      21.998   1.687  48.141  1.00  0.00     0.034 C 
ENDBRANCH   9  11
ENDBRANCH   7   8
ENDBRANCH   6   7
ENDBRANCH   1   6
BRANCH   5  13
HETATM   13  C14 UNL     1      22.966   0.048  53.054  1.00  0.00     0.194 A 
HETATM   14  N3  UNL     1      22.427  -0.612  53.795  1.00  0.00    -0.198 NA
HETATM   15  C15 UNL     1      21.165  -0.901  53.971  1.00  0.00     0.171 A 
HETATM   16  C16 UNL     1      20.353  -0.302  53.112  1.00  0.00     0.111 A 
HETATM   17  S1  UNL     1      21.504   0.706  52.029  1.00  0.00    -0.058 SA
BRANCH  15  18
HETATM   18  O2  UNL     1      20.792  -1.779  55.006  1.00  0.00    -0.344 OA
HETATM   19  H15 UNL     1      21.121  -2.733  55.061  1.00  0.00     0.219 HD
ENDBRANCH  15  18
ENDBRANCH   5  13
BRANCH   3  20
HETATM   20  C9  UNL     1      27.794  -0.298  53.118  1.00  0.00    -0.028 A 
HETATM   21  C10 UNL     1      28.180  -1.556  53.044  1.00  0.00     0.009 A 
HETATM   22  C11 UNL     1      29.585  -1.765  53.366  1.00  0.00    -0.003 A 
HETATM   23  C12 UNL     1      30.044  -0.556  53.642  1.00  0.00    -0.022 A 
HETATM   24  C13 UNL     1      29.009   0.488  53.525  1.00  0.00     0.067 A 
ENDBRANCH   3  20
TORSDOF 7
ENDMDL
MODEL 8
REMARK VINA RESULT:      -7.4      3.583      6.031
REMARK  7 active torsions:
REMARK  status: ('A' for Active; 'I' for Inactive)
REMARK    1  A    between atoms: C2_2  and  C3_3 
REMARK    2  A    between atoms: C4_5  and  C5_6 
REMARK    3  A    between atoms: C5_6  and  O1_7 
REMARK    4  A    between atoms: O1_7  and  C6_8 
REMARK    5  A    between atoms: C8_10  and  C9_11 
REMARK    6  A    between atoms: N2_17  and  C14_18 
REMARK    7  A    between atoms: C15_20  and  O2_21 
ROOT
HETATM    1  C6  UNL     1      24.432   2.155  52.561  1.00  0.00     0.254 C 
HETATM    2  C7  UNL     1      24.561   2.647  51.124  1.00  0.00     0.117 C 
HETATM    3  C8  UNL     1      23.252   2.324  50.518  1.00  0.00     0.066 C 
HETATM    4  N1  UNL     1      22.562   1.580  51.288  1.00  0.00    -0.172 NA
HETATM    5  N2  UNL     1      23.281   1.316  52.460  1.00  0.00    -0.216 N 
ENDROOT
BRANCH   1   6
HETATM    6  O1  UNL     1      25.577   1.477  52.963  1.00  0.00    -0.361 OA
BRANCH   6   7
HETATM    7  C5  UNL     1      26.163   0.800  51.904  1.00  0.00     0.201 C 
BRANCH   7   8
HETATM    8  C4  UNL     1      27.469   0.243  52.349  1.00  0.00     0.041 C 
HETATM    9  C3  UNL     1      27.577  -0.926  52.956  1.00  0.00     0.111 C 
HETATM   10  F1  UNL     1      26.488  -1.683  53.206  1.00  0.00    -0.207 F 
BRANCH   9  11
HETATM   11  C2  UNL     1      28.882  -1.422  53.369  1.00  0.00     0.015 C 
HETATM   12  C1  UNL     1      29.917  -0.664  53.672  1.00  0.00     0.034 C 
ENDBRANCH   9  11
ENDBRANCH   7   8
ENDBRANCH   6   7
ENDBRANCH   1   6
BRANCH   5  13
HETATM   13  C14 UNL     1      22.742   0.282  53.318  1.00  0.00     0.194 A 
HETATM   14  N3  UNL     1      23.020  -0.402  54.172  1.00  0.00    -0.198 NA
HETATM   15  C15 UNL     1      22.354  -1.309  54.836  1.00  0.00     0.171 A 
HETATM   16  C16 UNL     1      21.103  -1.460  54.429  1.00  0.00     0.111 A 
HETATM   17  S1  UNL     1      20.929  -0.222  53.032  1.00  0.00    -0.058 SA
BRANCH  15  18
HETATM   18  O2  UNL     1      22.988  -2.015  55.876  1.00  0.00    -0.344 OA
HETATM   19  H15 UNL     1      22.477  -2.510  56.594  1.00  0.00     0.219 HD
ENDBRANCH  15  18
ENDBRANCH   5  13
BRANCH   3  20
HETATM   20  C9  UNL     1      22.829   2.814  49.193  1.00  0.00    -0.028 A 
HETATM   21  C10 UNL     1      22.348   2.123  48.179  1.00  0.00     0.009 A 
HETATM   22  C11 UNL     1      22.030   2.930  47.010  1.00  0.00    -0.003 A 
HETATM   23  C12 UNL     1      22.345   4.164  47.364  1.00  0.00    -0.022 A 
HETATM   24  C13 UNL     1      22.871   4.247  48.739  1.00  0.00     0.067 A 
ENDBRANCH   3  20
TORSDOF 7
ENDMDL
MODEL 9
REMARK VINA RESULT:      -7.2      3.577      5.806
REMARK  7 active torsions:
REMARK  status: ('A' for Active; 'I' for Inactive)
REMARK    1  A    between atoms: C2_2  and  C3_3 
REMARK    2  A    between atoms: C4_5  and  C5_6 
REMARK    3  A    between atoms: C5_6  and  O1_7 
REMARK    4  A    between atoms: O1_7  and  C6_8 
REMARK    5  A    between atoms: C8_10  and  C9_11 
REMARK    6  A    between atoms: N2_17  and  C14_18 
REMARK    7  A    between atoms: C15_20  and  O2_21 
ROOT
HETATM    1  C6  UNL     1      23.544   0.601  52.324  1.00  0.00     0.254 C 
HETATM    2  C7  UNL     1      22.351  -0.196  52.841  1.00  0.00     0.117 C 
HETATM    3  C8  UNL     1      21.180   0.522  52.293  1.00  0.00     0.066 C 
HETATM    4  N1  UNL     1      21.523   1.637  51.782  1.00  0.00    -0.172 NA
HETATM    5  N2  UNL     1      22.906   1.810  51.911  1.00  0.00    -0.216 N 
ENDROOT
BRANCH   1   6
HETATM    6  O1  UNL     1      24.492   0.787  53.323  1.00  0.00    -0.361 OA
BRANCH   6   7
HETATM    7  C5  UNL     1      25.120  -0.403  53.654  1.00  0.00     0.201 C 
BRANCH   7   8
HETATM    8  C4  UNL     1      26.536  -0.347  53.201  1.00  0.00     0.041 C 
HETATM    9  C3  UNL     1      27.540  -0.113  54.026  1.00  0.00     0.111 C 
HETATM   10  F1  UNL     1      27.326   0.090  55.343  1.00  0.00    -0.207 F 
BRANCH   9  11
HETATM   11  C2  UNL     1      28.908  -0.069  53.527  1.00  0.00     0.015 C 
HETATM   12  C1  UNL     1      29.768  -1.066  53.594  1.00  0.00     0.034 C 
ENDBRANCH   9  11
ENDBRANCH   7   8
ENDBRANCH   6   7
ENDBRANCH   1   6
BRANCH   5  13
HETATM   13  C14 UNL     1      23.413   3.134  51.612  1.00  0.00     0.194 A 
HETATM   14  N3  UNL     1      24.302   3.668  51.166  1.00  0.00    -0.198 NA
HETATM   15  C15 UNL     1      24.576   4.932  50.981  1.00  0.00     0.171 A 
HETATM   16  C16 UNL     1      23.624   5.753  51.399  1.00  0.00     0.111 A 
HETATM   17  S1  UNL     1      22.304   4.609  52.078  1.00  0.00    -0.058 SA
BRANCH  15  18
HETATM   18  O2  UNL     1      25.797   5.298  50.383  1.00  0.00    -0.344 OA
HETATM   19  H15 UNL     1      26.496   4.621  50.108  1.00  0.00     0.219 HD
ENDBRANCH  15  18
ENDBRANCH   5  13
BRANCH   3  20
HETATM   20  C9  UNL     1      19.806  -0.011  52.347  1.00  0.00    -0.028 A 
HETATM   21  C10 UNL     1      18.819   0.179  51.493  1.00  0.00     0.009 A 
HETATM   22  C11 UNL     1      17.584  -0.501  51.855  1.00  0.00    -0.003 A 
HETATM   23  C12 UNL     1      17.868  -1.124  52.986  1.00  0.00    -0.022 A 
HETATM   24  C13 UNL     1      19.258  -0.903  53.426  1.00  0.00     0.067 A 
ENDBRANCH   3  20
TORSDOF 7
ENDMDL
