MODEL 1
REMARK VINA RESULT:      -7.5      0.000      0.000
REMARK  5 active torsions:
REMARK  status: ('A' for Active; 'I' for Inactive)
REMARK    1  A    between atoms: C3_3  and  C4_4 
REMARK       I    between atoms: C4_4  and  N1_6 
REMARK    2  A    between atoms: N1_6  and  C5_7 
REMARK    3  A    between atoms: C5_7  and  C6_8 
REMARK    4  A    between atoms: C8_10  and  N2_11 
REMARK    5  A    between atoms: N2_11  and  C9_12 
ROOT
HETATM    1  C1  UNL     1      29.107  -1.171  53.465  1.00  0.00     0.112 C 
HETATM    2  C2  UNL     1      27.939  -0.289  53.377  1.00  0.00    -0.101 C 
HETATM    3  C3  UNL     1      26.950   0.439  53.295  1.00  0.00    -0.006 C 
ENDROOT
BRANCH   3   4
HETATM    4  C4  UNL     1      25.785   1.276  53.187  1.00  0.00     0.296 C 
HETATM    5  O1  UNL     1      25.844   2.342  53.838  1.00  0.00    -0.258 OA
HETATM    6  N1  UNL     1      24.646   0.922  52.401  1.00  0.00    -0.346 N 
HETATM    7  H4  UNL     1      24.744  -0.010  51.909  1.00  0.00     0.163 HD
BRANCH   6   8
HETATM    8  C5  UNL     1      23.534   1.934  52.427  1.00  0.00     0.158 C 
BRANCH   8   9
HETATM    9  C6  UNL     1      23.402   2.579  51.142  1.00  0.00    -0.055 C 
HETATM   10  C7  UNL     1      23.828   3.774  50.833  1.00  0.00     0.057 C 
HETATM   11  C8  UNL     1      24.257   5.056  50.408  1.00  0.00     0.148 C 
HETATM   12  N3  UNL     1      24.254   5.723  51.537  1.00  0.00    -0.156 NA
HETATM   13  N4  UNL     1      23.884   5.176  52.749  1.00  0.00    -0.270 N 
HETATM   14  C15 UNL     1      22.468   4.833  52.478  1.00  0.00     0.394 C 
HETATM   15  H13 UNL     1      23.530   4.750  53.629  1.00  0.00     0.190 HD
HETATM   16  N5  UNL     1      21.394   4.179  52.105  1.00  0.00    -0.382 NA
HETATM   17  C16 UNL     1      21.381   2.862  51.548  1.00  0.00     0.074 C 
HETATM   18  C17 UNL     1      21.299   1.590  51.044  1.00  0.00    -0.006 C 
HETATM   19  C18 UNL     1      22.664   1.535  50.352  1.00  0.00     0.064 C 
BRANCH  11  20
HETATM   20  N2  UNL     1      24.445   5.916  49.321  1.00  0.00    -0.340 N 
HETATM   21  H8  UNL     1      23.458   6.255  49.075  1.00  0.00     0.167 HD
BRANCH  20  22
HETATM   22  C9  UNL     1      25.742   6.153  48.803  1.00  0.00     0.035 A 
HETATM   23  C10 UNL     1      26.872   5.343  48.856  1.00  0.00     0.029 A 
HETATM   24  C11 UNL     1      28.049   5.753  48.283  1.00  0.00     0.004 A 
HETATM   25  C12 UNL     1      28.105   6.979  47.649  1.00  0.00     0.019 A 
HETATM   26  C13 UNL     1      27.004   7.804  47.579  1.00  0.00     0.013 A 
HETATM   27 BR1  UNL     1      27.265   9.455  46.668  1.00  0.00    -0.051 Br
HETATM   28  C14 UNL     1      25.823   7.389  48.158  1.00  0.00     0.048 A 
ENDBRANCH  20  22
ENDBRANCH  11  20
ENDBRANCH   8   9
ENDBRANCH   6   8
ENDBRANCH   3   4
TORSDOF 5
ENDMDL
MODEL 2
REMARK VINA RESULT:      -7.4      5.924      9.193
REMARK  5 active torsions:
REMARK  status: ('A' for Active; 'I' for Inactive)
REMARK    1  A    between atoms: C3_3  and  C4_4 
REMARK       I    between atoms: C4_4  and  N1_6 
REMARK    2  A    between atoms: N1_6  and  C5_7 
REMARK    3  A    between atoms: C5_7  and  C6_8 
REMARK    4  A    between atoms: C8_10  and  N2_11 
REMARK    5  A    between atoms: N2_11  and  C9_12 
ROOT
HETATM    1  C1  UNL     1      23.115   7.851  50.550  1.00  0.00     0.112 C 
HETATM    2  C2  UNL     1      24.469   8.160  50.080  1.00  0.00    -0.101 C 
HETATM    3  C3  UNL     1      25.610   8.404  49.688  1.00  0.00    -0.006 C 
ENDROOT
BRANCH   3   4
HETATM    4  C4  UNL     1      26.949   8.669  49.233  1.00  0.00     0.296 C 
HETATM    5  O1  UNL     1      27.158   9.851  48.881  1.00  0.00    -0.258 OA
HETATM    6  N1  UNL     1      27.965   7.666  49.184  1.00  0.00    -0.346 N 
HETATM    7  H4  UNL     1      27.636   6.715  49.514  1.00  0.00     0.163 HD
BRANCH   6   8
HETATM    8  C5  UNL     1      29.293   8.151  48.675  1.00  0.00     0.158 C 
BRANCH   8   9
HETATM    9  C6  UNL     1      29.778   7.294  47.620  1.00  0.00    -0.055 C 
HETATM   10  C7  UNL     1      30.397   6.154  47.778  1.00  0.00     0.057 C 
HETATM   11  C8  UNL     1      31.072   4.910  47.852  1.00  0.00     0.148 C 
HETATM   12  N3  UNL     1      31.665   5.001  49.018  1.00  0.00    -0.156 NA
HETATM   13  N4  UNL     1      31.570   6.106  49.841  1.00  0.00    -0.270 N 
HETATM   14  C15 UNL     1      32.196   7.142  48.987  1.00  0.00     0.394 C 
HETATM   15  H13 UNL     1      31.535   6.982  50.400  1.00  0.00     0.190 HD
HETATM   16  N5  UNL     1      32.357   8.094  48.098  1.00  0.00    -0.382 NA
HETATM   17  C16 UNL     1      31.318   8.653  47.290  1.00  0.00     0.074 C 
HETATM   18  C17 UNL     1      30.361   9.255  46.514  1.00  0.00    -0.006 C 
HETATM   19  C18 UNL     1      29.396   8.073  46.392  1.00  0.00     0.064 C 
BRANCH  11  20
HETATM   20  N2  UNL     1      31.531   3.795  47.145  1.00  0.00    -0.340 N 
HETATM   21  H8  UNL     1      30.732   3.085  47.218  1.00  0.00     0.167 HD
BRANCH  20  22
HETATM   22  C9  UNL     1      32.812   3.801  46.539  1.00  0.00     0.035 A 
HETATM   23  C10 UNL     1      33.986   3.180  46.956  1.00  0.00     0.029 A 
HETATM   24  C11 UNL     1      35.136   3.302  46.219  1.00  0.00     0.004 A 
HETATM   25  C12 UNL     1      35.122   4.046  45.055  1.00  0.00     0.019 A 
HETATM   26  C13 UNL     1      33.976   4.671  44.614  1.00  0.00     0.013 A 
HETATM   27 BR1  UNL     1      34.142   5.652  42.991  1.00  0.00    -0.051 Br
HETATM   28  C14 UNL     1      32.822   4.547  45.359  1.00  0.00     0.048 A 
ENDBRANCH  20  22
ENDBRANCH  11  20
ENDBRANCH   8   9
ENDBRANCH   6   8
ENDBRANCH   3   4
TORSDOF 5
ENDMDL
MODEL 3
REMARK VINA RESULT:      -7.3      1.681      1.993
REMARK  5 active torsions:
REMARK  status: ('A' for Active; 'I' for Inactive)
REMARK    1  A    between atoms: C3_3  and  C4_4 
REMARK       I    between atoms: C4_4  and  N1_6 
REMARK    2  A    between atoms: N1_6  and  C5_7 
REMARK    3  A    between atoms: C5_7  and  C6_8 
REMARK    4  A    between atoms: C8_10  and  N2_11 
REMARK    5  A    between atoms: N2_11  and  C9_12 
ROOT
HETATM    1  C1  UNL     1      29.006   0.346  54.326  1.00  0.00     0.112 C 
HETATM    2  C2  UNL     1      27.812   0.861  53.649  1.00  0.00    -0.101 C 
HETATM    3  C3  UNL     1      26.803   1.297  53.096  1.00  0.00    -0.006 C 
ENDROOT
BRANCH   3   4
HETATM    4  C4  UNL     1      25.614   1.809  52.467  1.00  0.00     0.296 C 
HETATM    5  O1  UNL     1      24.903   0.944  51.910  1.00  0.00    -0.258 OA
HETATM    6  N1  UNL     1      25.267   3.195  52.475  1.00  0.00    -0.346 N 
HETATM    7  H4  UNL     1      25.966   3.803  52.986  1.00  0.00     0.163 HD
BRANCH   6   8
HETATM    8  C5  UNL     1      23.985   3.518  51.759  1.00  0.00     0.158 C 
BRANCH   8   9
HETATM    9  C6  UNL     1      24.254   3.969  50.414  1.00  0.00    -0.055 C 
HETATM   10  C7  UNL     1      24.881   5.065  50.080  1.00  0.00     0.057 C 
HETATM   11  C8  UNL     1      25.549   6.229  49.625  1.00  0.00     0.148 C 
HETATM   12  N3  UNL     1      25.343   7.058  50.620  1.00  0.00    -0.156 NA
HETATM   13  N4  UNL     1      24.621   6.732  51.751  1.00  0.00    -0.270 N 
HETATM   14  C15 UNL     1      23.287   6.467  51.161  1.00  0.00     0.394 C 
HETATM   15  H13 UNL     1      24.011   6.475  52.553  1.00  0.00     0.190 HD
HETATM   16  N5  UNL     1      22.271   5.852  50.604  1.00  0.00    -0.382 NA
HETATM   17  C16 UNL     1      22.243   4.472  50.233  1.00  0.00     0.074 C 
HETATM   18  C17 UNL     1      22.142   3.148  49.890  1.00  0.00    -0.006 C 
HETATM   19  C18 UNL     1      23.620   2.879  49.594  1.00  0.00     0.064 C 
BRANCH  11  20
HETATM   20  N2  UNL     1      26.101   6.896  48.527  1.00  0.00    -0.340 N 
HETATM   21  H8  UNL     1      25.286   7.460  48.120  1.00  0.00     0.167 HD
BRANCH  20  22
HETATM   22  C9  UNL     1      27.468   6.726  48.190  1.00  0.00     0.035 A 
HETATM   23  C10 UNL     1      28.293   5.624  48.393  1.00  0.00     0.029 A 
HETATM   24  C11 UNL     1      29.602   5.652  47.985  1.00  0.00     0.004 A 
HETATM   25  C12 UNL     1      30.098   6.785  47.369  1.00  0.00     0.019 A 
HETATM   26  C13 UNL     1      29.307   7.892  47.154  1.00  0.00     0.013 A 
HETATM   27 BR1  UNL     1      30.157   9.360  46.291  1.00  0.00    -0.051 Br
HETATM   28  C14 UNL     1      27.991   7.860  47.566  1.00  0.00     0.048 A 
ENDBRANCH  20  22
ENDBRANCH  11  20
ENDBRANCH   8   9
ENDBRANCH   6   8
ENDBRANCH   3   4
TORSDOF 5
ENDMDL
MODEL 4
REMARK VINA RESULT:      -7.3      5.265      8.570
REMARK  5 active torsions:
REMARK  status: ('A' for Active; 'I' for Inactive)
REMARK    1  A    between atoms: C3_3  and  C4_4 
REMARK       I    between atoms: C4_4  and  N1_6 
REMARK    2  A    between atoms: N1_6  and  C5_7 
REMARK    3  A    between atoms: C5_7  and  C6_8 
REMARK    4  A    between atoms: C8_10  and  N2_11 
REMARK    5  A    between atoms: N2_11  and  C9_12 
ROOT
HETATM    1  C1  UNL     1      25.358   2.843  50.329  1.00  0.00     0.112 C 
HETATM    2  C2  UNL     1      25.820   4.120  49.776  1.00  0.00    -0.101 C 
HETATM    3  C3  UNL     1      26.213   5.183  49.297  1.00  0.00    -0.006 C 
ENDROOT
BRANCH   3   4
HETATM    4  C4  UNL     1      26.680   6.416  48.721  1.00  0.00     0.296 C 
HETATM    5  O1  UNL     1      25.916   6.917  47.867  1.00  0.00    -0.258 OA
HETATM    6  N1  UNL     1      27.918   7.026  49.091  1.00  0.00    -0.346 N 
HETATM    7  H4  UNL     1      28.453   6.484  49.826  1.00  0.00     0.163 HD
BRANCH   6   8
HETATM    8  C5  UNL     1      28.219   8.308  48.367  1.00  0.00     0.158 C 
BRANCH   8   9
HETATM    9  C6  UNL     1      29.219   8.095  47.348  1.00  0.00    -0.055 C 
HETATM   10  C7  UNL     1      30.394   7.552  47.523  1.00  0.00     0.057 C 
HETATM   11  C8  UNL     1      31.684   6.974  47.619  1.00  0.00     0.148 C 
HETATM   12  N3  UNL     1      31.991   7.221  48.870  1.00  0.00    -0.156 NA
HETATM   13  N4  UNL     1      31.164   7.899  49.743  1.00  0.00    -0.270 N 
HETATM   14  C15 UNL     1      31.083   9.221  49.077  1.00  0.00     0.394 C 
HETATM   15  H13 UNL     1      30.546   8.476  50.349  1.00  0.00     0.190 HD
HETATM   16  N5  UNL     1      30.696  10.201  48.296  1.00  0.00    -0.382 NA
HETATM   17  C16 UNL     1      29.608  10.139  47.370  1.00  0.00     0.074 C 
HETATM   18  C17 UNL     1      28.555  10.154  46.493  1.00  0.00    -0.006 C 
HETATM   19  C18 UNL     1      28.542   8.666  46.132  1.00  0.00     0.064 C 
BRANCH  11  20
HETATM   20  N2  UNL     1      32.793   6.489  46.920  1.00  0.00    -0.340 N 
HETATM   21  H8  UNL     1      33.064   7.289  46.260  1.00  0.00     0.167 HD
BRANCH  20  22
HETATM   22  C9  UNL     1      33.295   5.188  47.174  1.00  0.00     0.035 A 
HETATM   23  C10 UNL     1      34.517   4.809  47.723  1.00  0.00     0.029 A 
HETATM   24  C11 UNL     1      34.818   3.482  47.896  1.00  0.00     0.004 A 
HETATM   25  C12 UNL     1      33.898   2.521  47.522  1.00  0.00     0.019 A 
HETATM   26  C13 UNL     1      32.680   2.865  46.977  1.00  0.00     0.013 A 
HETATM   27 BR1  UNL     1      31.539   1.411  46.521  1.00  0.00    -0.051 Br
HETATM   28  C14 UNL     1      32.382   4.200  46.803  1.00  0.00     0.048 A 
ENDBRANCH  20  22
ENDBRANCH  11  20
ENDBRANCH   8   9
ENDBRANCH   6   8
ENDBRANCH   3   4
TORSDOF 5
ENDMDL
MODEL 5
REMARK VINA RESULT:      -7.1      6.813     10.501
REMARK  5 active torsions:
REMARK  status: ('A' for Active; 'I' for Inactive)
REMARK    1  A    between atoms: C3_3  and  C4_4 
REMARK       I    between atoms: C4_4  and  N1_6 
REMARK    2  A    between atoms: N1_6  and  C5_7 
REMARK    3  A    between atoms: C5_7  and  C6_8 
REMARK    4  A    between atoms: C8_10  and  N2_11 
REMARK    5  A    between atoms: N2_11  and  C9_12 
ROOT
HETATM    1  C1  UNL     1      32.042   7.159  39.763  1.00  0.00     0.112 C 
HETATM    2  C2  UNL     1      32.494   6.655  41.064  1.00  0.00    -0.101 C 
HETATM    3  C3  UNL     1      32.887   6.226  42.148  1.00  0.00    -0.006 C 
ENDROOT
BRANCH   3   4
HETATM    4  C4  UNL     1      33.362   5.714  43.406  1.00  0.00     0.296 C 
HETATM    5  O1  UNL     1      34.152   6.468  44.014  1.00  0.00    -0.258 OA
HETATM    6  N1  UNL     1      32.966   4.443  43.926  1.00  0.00    -0.346 N 
HETATM    7  H4  UNL     1      32.293   3.920  43.297  1.00  0.00     0.163 HD
BRANCH   6   8
HETATM    8  C5  UNL     1      33.581   4.096  45.253  1.00  0.00     0.158 C 
BRANCH   8   9
HETATM    9  C6  UNL     1      32.635   4.311  46.323  1.00  0.00    -0.055 C 
HETATM   10  C7  UNL     1      32.399   5.446  46.925  1.00  0.00     0.057 C 
HETATM   11  C8  UNL     1      32.075   6.631  47.632  1.00  0.00     0.148 C 
HETATM   12  N3  UNL     1      33.190   7.314  47.525  1.00  0.00    -0.156 NA
HETATM   13  N4  UNL     1      34.314   6.849  46.871  1.00  0.00    -0.270 N 
HETATM   14  C15 UNL     1      34.643   5.662  47.694  1.00  0.00     0.394 C 
HETATM   15  H13 UNL     1      35.162   6.437  46.433  1.00  0.00     0.190 HD
HETATM   16  N5  UNL     1      34.673   4.434  48.154  1.00  0.00    -0.382 NA
HETATM   17  C16 UNL     1      33.944   3.331  47.610  1.00  0.00     0.074 C 
HETATM   18  C17 UNL     1      33.301   2.227  47.112  1.00  0.00    -0.006 C 
HETATM   19  C18 UNL     1      32.077   2.929  46.519  1.00  0.00     0.064 C 
BRANCH  11  20
HETATM   20  N2  UNL     1      31.202   7.241  48.537  1.00  0.00    -0.340 N 
HETATM   21  H8  UNL     1      31.834   7.863  49.139  1.00  0.00     0.167 HD
BRANCH  20  22
HETATM   22  C9  UNL     1      29.813   6.960  48.503  1.00  0.00     0.035 A 
HETATM   23  C10 UNL     1      29.167   5.732  48.395  1.00  0.00     0.029 A 
HETATM   24  C11 UNL     1      27.797   5.667  48.386  1.00  0.00     0.004 A 
HETATM   25  C12 UNL     1      27.060   6.832  48.486  1.00  0.00     0.019 A 
HETATM   26  C13 UNL     1      27.670   8.062  48.594  1.00  0.00     0.013 A 
HETATM   27 BR1  UNL     1      26.499   9.557  48.722  1.00  0.00    -0.051 Br
HETATM   28  C14 UNL     1      29.048   8.123  48.602  1.00  0.00     0.048 A 
ENDBRANCH  20  22
ENDBRANCH  11  20
ENDBRANCH   8   9
ENDBRANCH   6   8
ENDBRANCH   3   4
TORSDOF 5
ENDMDL
MODEL 6
REMARK VINA RESULT:      -7.0      5.302      8.502
REMARK  5 active torsions:
REMARK  status: ('A' for Active; 'I' for Inactive)
REMARK    1  A    between atoms: C3_3  and  C4_4 
REMARK       I    between atoms: C4_4  and  N1_6 
REMARK    2  A    between atoms: N1_6  and  C5_7 
REMARK    3  A    between atoms: C5_7  and  C6_8 
REMARK    4  A    between atoms: C8_10  and  N2_11 
REMARK    5  A    between atoms: N2_11  and  C9_12 
ROOT
HETATM    1  C1  UNL     1      23.797   3.009  49.660  1.00  0.00     0.112 C 
HETATM    2  C2  UNL     1      24.670   4.148  49.360  1.00  0.00    -0.101 C 
HETATM    3  C3  UNL     1      25.416   5.094  49.113  1.00  0.00    -0.006 C 
ENDROOT
BRANCH   3   4
HETATM    4  C4  UNL     1      26.305   6.191  48.833  1.00  0.00     0.296 C 
HETATM    5  O1  UNL     1      25.735   7.263  48.532  1.00  0.00    -0.258 OA
HETATM    6  N1  UNL     1      27.727   6.071  48.892  1.00  0.00    -0.346 N 
HETATM    7  H4  UNL     1      28.060   5.103  49.160  1.00  0.00     0.163 HD
BRANCH   6   8
HETATM    8  C5  UNL     1      28.471   7.335  48.560  1.00  0.00     0.158 C 
BRANCH   8   9
HETATM    9  C6  UNL     1      29.448   7.094  47.526  1.00  0.00    -0.055 C 
HETATM   10  C7  UNL     1      30.453   6.263  47.595  1.00  0.00     0.057 C 
HETATM   11  C8  UNL     1      31.567   5.386  47.579  1.00  0.00     0.148 C 
HETATM   12  N3  UNL     1      31.853   5.301  48.856  1.00  0.00    -0.156 NA
HETATM   13  N4  UNL     1      31.159   5.971  49.844  1.00  0.00    -0.270 N 
HETATM   14  C15 UNL     1      31.425   7.378  49.462  1.00  0.00     0.394 C 
HETATM   15  H13 UNL     1      30.659   6.548  50.551  1.00  0.00     0.190 HD
HETATM   16  N5  UNL     1      31.320   8.557  48.896  1.00  0.00    -0.382 NA
HETATM   17  C16 UNL     1      30.300   8.940  47.969  1.00  0.00     0.074 C 
HETATM   18  C17 UNL     1      29.330   9.379  47.106  1.00  0.00    -0.006 C 
HETATM   19  C18 UNL     1      28.992   8.038  46.448  1.00  0.00     0.064 C 
BRANCH  11  20
HETATM   20  N2  UNL     1      32.570   4.798  46.804  1.00  0.00    -0.340 N 
HETATM   21  H8  UNL     1      32.763   3.860  47.284  1.00  0.00     0.167 HD
BRANCH  20  22
HETATM   22  C9  UNL     1      33.089   5.465  45.666  1.00  0.00     0.035 A 
HETATM   23  C10 UNL     1      33.638   6.740  45.568  1.00  0.00     0.029 A 
HETATM   24  C11 UNL     1      34.096   7.209  44.364  1.00  0.00     0.004 A 
HETATM   25  C12 UNL     1      34.011   6.404  43.244  1.00  0.00     0.019 A 
HETATM   26  C13 UNL     1      33.473   5.137  43.308  1.00  0.00     0.013 A 
HETATM   27 BR1  UNL     1      33.437   4.172  41.668  1.00  0.00    -0.051 Br
HETATM   28  C14 UNL     1      33.013   4.670  44.521  1.00  0.00     0.048 A 
ENDBRANCH  20  22
ENDBRANCH  11  20
ENDBRANCH   8   9
ENDBRANCH   6   8
ENDBRANCH   3   4
TORSDOF 5
ENDMDL
MODEL 7
REMARK VINA RESULT:      -7.0      4.153      7.020
REMARK  5 active torsions:
REMARK  status: ('A' for Active; 'I' for Inactive)
REMARK    1  A    between atoms: C3_3  and  C4_4 
REMARK       I    between atoms: C4_4  and  N1_6 
REMARK    2  A    between atoms: N1_6  and  C5_7 
REMARK    3  A    between atoms: C5_7  and  C6_8 
REMARK    4  A    between atoms: C8_10  and  N2_11 
REMARK    5  A    between atoms: N2_11  and  C9_12 
ROOT
HETATM    1  C1  UNL     1      29.258   0.277  54.146  1.00  0.00     0.112 C 
HETATM    2  C2  UNL     1      28.298   0.963  53.275  1.00  0.00    -0.101 C 
HETATM    3  C3  UNL     1      27.502   1.533  52.530  1.00  0.00    -0.006 C 
ENDROOT
BRANCH   3   4
HETATM    4  C4  UNL     1      26.582   2.194  51.643  1.00  0.00     0.296 C 
HETATM    5  O1  UNL     1      27.119   2.932  50.787  1.00  0.00    -0.258 OA
HETATM    6  N1  UNL     1      25.166   2.026  51.727  1.00  0.00    -0.346 N 
HETATM    7  H4  UNL     1      24.863   1.371  52.502  1.00  0.00     0.163 HD
BRANCH   6   8
HETATM    8  C5  UNL     1      24.386   2.810  50.708  1.00  0.00     0.158 C 
BRANCH   8   9
HETATM    9  C6  UNL     1      22.974   2.765  51.004  1.00  0.00    -0.055 C 
HETATM   10  C7  UNL     1      22.060   2.143  50.308  1.00  0.00     0.057 C 
HETATM   11  C8  UNL     1      21.004   1.498  49.618  1.00  0.00     0.148 C 
HETATM   12  N3  UNL     1      21.471   1.465  48.392  1.00  0.00    -0.156 NA
HETATM   13  N4  UNL     1      22.696   1.985  48.025  1.00  0.00    -0.270 N 
HETATM   14  C15 UNL     1      22.495   3.419  48.343  1.00  0.00     0.394 C 
HETATM   15  H13 UNL     1      23.591   2.452  47.774  1.00  0.00     0.190 HD
HETATM   16  N5  UNL     1      22.454   4.557  48.994  1.00  0.00    -0.382 NA
HETATM   17  C16 UNL     1      22.827   4.739  50.363  1.00  0.00     0.074 C 
HETATM   18  C17 UNL     1      23.205   4.985  51.658  1.00  0.00    -0.006 C 
HETATM   19  C18 UNL     1      22.895   3.607  52.248  1.00  0.00     0.064 C 
BRANCH  11  20
HETATM   20  N2  UNL     1      19.659   1.117  49.648  1.00  0.00    -0.340 N 
HETATM   21  H8  UNL     1      19.261   1.469  48.718  1.00  0.00     0.167 HD
BRANCH  20  22
HETATM   22  C9  UNL     1      19.130   0.423  50.765  1.00  0.00     0.035 A 
HETATM   23  C10 UNL     1      17.832  -0.026  50.987  1.00  0.00     0.029 A 
HETATM   24  C11 UNL     1      17.515  -0.691  52.144  1.00  0.00     0.004 A 
HETATM   25  C12 UNL     1      18.497  -0.915  53.090  1.00  0.00     0.019 A 
HETATM   26  C13 UNL     1      19.792  -0.485  52.899  1.00  0.00     0.013 A 
HETATM   27 BR1  UNL     1      21.010  -0.881  54.307  1.00  0.00    -0.051 Br
HETATM   28  C14 UNL     1      20.106   0.185  51.735  1.00  0.00     0.048 A 
ENDBRANCH  20  22
ENDBRANCH  11  20
ENDBRANCH   8   9
ENDBRANCH   6   8
ENDBRANCH   3   4
TORSDOF 5
ENDMDL
MODEL 8
REMARK VINA RESULT:      -6.9      3.367      6.831
REMARK  5 active torsions:
REMARK  status: ('A' for Active; 'I' for Inactive)
REMARK    1  A    between atoms: C3_3  and  C4_4 
REMARK       I    between atoms: C4_4  and  N1_6 
REMARK    2  A    between atoms: N1_6  and  C5_7 
REMARK    3  A    between atoms: C5_7  and  C6_8 
REMARK    4  A    between atoms: C8_10  and  N2_11 
REMARK    5  A    between atoms: N2_11  and  C9_12 
ROOT
HETATM    1  C1  UNL     1      31.506   6.168  48.006  1.00  0.00     0.112 C 
HETATM    2  C2  UNL     1      30.050   6.300  48.107  1.00  0.00    -0.101 C 
HETATM    3  C3  UNL     1      28.828   6.408  48.209  1.00  0.00    -0.006 C 
ENDROOT
BRANCH   3   4
HETATM    4  C4  UNL     1      27.401   6.528  48.347  1.00  0.00     0.296 C 
HETATM    5  O1  UNL     1      26.869   7.362  47.582  1.00  0.00    -0.258 OA
HETATM    6  N1  UNL     1      26.645   5.759  49.284  1.00  0.00    -0.346 N 
HETATM    7  H4  UNL     1      27.235   5.096  49.861  1.00  0.00     0.163 HD
BRANCH   6   8
HETATM    8  C5  UNL     1      25.168   6.040  49.270  1.00  0.00     0.158 C 
BRANCH   8   9
HETATM    9  C6  UNL     1      24.580   5.734  50.552  1.00  0.00    -0.055 C 
HETATM   10  C7  UNL     1      24.195   4.555  50.961  1.00  0.00     0.057 C 
HETATM   11  C8  UNL     1      23.753   3.316  51.489  1.00  0.00     0.148 C 
HETATM   12  N3  UNL     1      23.449   2.658  50.396  1.00  0.00    -0.156 NA
HETATM   13  N4  UNL     1      23.571   3.184  49.125  1.00  0.00    -0.270 N 
HETATM   14  C15 UNL     1      22.610   4.310  49.200  1.00  0.00     0.394 C 
HETATM   15  H13 UNL     1      23.606   3.639  48.191  1.00  0.00     0.190 HD
HETATM   16  N5  UNL     1      22.100   5.501  49.405  1.00  0.00    -0.382 NA
HETATM   17  C16 UNL     1      22.819   6.633  49.903  1.00  0.00     0.074 C 
HETATM   18  C17 UNL     1      23.460   7.762  50.341  1.00  0.00    -0.006 C 
HETATM   19  C18 UNL     1      24.536   7.091  51.200  1.00  0.00     0.064 C 
BRANCH  11  20
HETATM   20  N2  UNL     1      23.311   2.629  52.624  1.00  0.00    -0.340 N 
HETATM   21  H8  UNL     1      22.452   3.179  52.951  1.00  0.00     0.167 HD
BRANCH  20  22
HETATM   22  C9  UNL     1      23.995   1.476  53.082  1.00  0.00     0.035 A 
HETATM   23  C10 UNL     1      23.496   0.204  53.347  1.00  0.00     0.029 A 
HETATM   24  C11 UNL     1      24.331  -0.793  53.783  1.00  0.00     0.004 A 
HETATM   25  C12 UNL     1      25.676  -0.526  53.958  1.00  0.00     0.019 A 
HETATM   26  C13 UNL     1      26.200   0.722  53.704  1.00  0.00     0.013 A 
HETATM   27 BR1  UNL     1      28.072   0.907  53.999  1.00  0.00    -0.051 Br
HETATM   28  C14 UNL     1      25.357   1.722  53.266  1.00  0.00     0.048 A 
ENDBRANCH  20  22
ENDBRANCH  11  20
ENDBRANCH   8   9
ENDBRANCH   6   8
ENDBRANCH   3   4
TORSDOF 5
ENDMDL
MODEL 9
REMARK VINA RESULT:      -6.8      8.090     10.630
REMARK  5 active torsions:
REMARK  status: ('A' for Active; 'I' for Inactive)
REMARK    1  A    between atoms: C3_3  and  C4_4 
REMARK       I    between atoms: C4_4  and  N1_6 
REMARK    2  A    between atoms: N1_6  and  C5_7 
REMARK    3  A    between atoms: C5_7  and  C6_8 
REMARK    4  A    between atoms: C8_10  and  N2_11 
REMARK    5  A    between atoms: N2_11  and  C9_12 
ROOT
HETATM    1  C1  UNL     1      31.919   7.332  40.052  1.00  0.00     0.112 C 
HETATM    2  C2  UNL     1      32.452   6.794  41.308  1.00  0.00    -0.101 C 
HETATM    3  C3  UNL     1      32.892   6.328  42.358  1.00  0.00    -0.006 C 
ENDROOT
BRANCH   3   4
HETATM    4  C4  UNL     1      33.394   5.766  43.584  1.00  0.00     0.296 C 
HETATM    5  O1  UNL     1      34.272   6.451  44.153  1.00  0.00    -0.258 OA
HETATM    6  N1  UNL     1      32.930   4.524  44.116  1.00  0.00    -0.346 N 
HETATM    7  H4  UNL     1      32.185   4.061  43.522  1.00  0.00     0.163 HD
BRANCH   6   8
HETATM    8  C5  UNL     1      33.587   4.116  45.405  1.00  0.00     0.158 C 
BRANCH   8   9
HETATM    9  C6  UNL     1      32.690   4.313  46.518  1.00  0.00    -0.055 C 
HETATM   10  C7  UNL     1      32.615   5.382  47.266  1.00  0.00     0.057 C 
HETATM   11  C8  UNL     1      32.462   6.498  48.126  1.00  0.00     0.148 C 
HETATM   12  N3  UNL     1      33.657   7.035  48.076  1.00  0.00    -0.156 NA
HETATM   13  N4  UNL     1      34.701   6.514  47.338  1.00  0.00    -0.270 N 
HETATM   14  C15 UNL     1      34.875   5.198  47.995  1.00  0.00     0.394 C 
HETATM   15  H13 UNL     1      35.482   6.053  46.829  1.00  0.00     0.190 HD
HETATM   16  N5  UNL     1      34.744   3.927  48.294  1.00  0.00    -0.382 NA
HETATM   17  C16 UNL     1      33.868   3.010  47.634  1.00  0.00     0.074 C 
HETATM   18  C17 UNL     1      33.077   2.075  47.018  1.00  0.00    -0.006 C 
HETATM   19  C18 UNL     1      31.952   3.004  46.552  1.00  0.00     0.064 C 
BRANCH  11  20
HETATM   20  N2  UNL     1      31.688   7.096  49.125  1.00  0.00    -0.340 N 
HETATM   21  H8  UNL     1      31.904   6.527  50.007  1.00  0.00     0.167 HD
BRANCH  20  22
HETATM   22  C9  UNL     1      30.857   8.205  48.828  1.00  0.00     0.035 A 
HETATM   23  C10 UNL     1      30.995   9.535  49.213  1.00  0.00     0.029 A 
HETATM   24  C11 UNL     1      30.077  10.473  48.814  1.00  0.00     0.004 A 
HETATM   25  C12 UNL     1      29.011  10.088  48.024  1.00  0.00     0.019 A 
HETATM   26  C13 UNL     1      28.846   8.779  47.627  1.00  0.00     0.013 A 
HETATM   27 BR1  UNL     1      27.321   8.431  46.542  1.00  0.00    -0.051 Br
HETATM   28  C14 UNL     1      29.771   7.839  48.031  1.00  0.00     0.048 A 
ENDBRANCH  20  22
ENDBRANCH  11  20
ENDBRANCH   8   9
ENDBRANCH   6   8
ENDBRANCH   3   4
TORSDOF 5
ENDMDL
