MODEL 1
REMARK VINA RESULT:      -8.7      0.000      0.000
REMARK  3 active torsions:
REMARK  status: ('A' for Active; 'I' for Inactive)
REMARK    1  A    between atoms: C2_2  and  C3_3 
REMARK    2  A    between atoms: C15_16  and  N2_17 
REMARK    3  A    between atoms: C18_21  and  O1_22 
ROOT
HETATM    1  C3  UNL     1      25.860   0.222  52.846  1.00  0.00    -0.023 A 
HETATM    2  C4  UNL     1      24.793  -0.503  53.089  1.00  0.00     0.018 A 
HETATM    3  C5  UNL     1      23.402  -0.070  53.283  1.00  0.00    -0.044 A 
HETATM    4  C6  UNL     1      22.460  -0.905  53.675  1.00  0.00    -0.018 C 
HETATM    5  C7  UNL     1      21.191  -1.491  54.079  1.00  0.00     0.032 C 
HETATM    6  C8  UNL     1      19.979  -0.590  54.062  1.00  0.00     0.045 C 
HETATM    7  C9  UNL     1      19.542  -0.147  52.730  1.00  0.00    -0.029 A 
HETATM    8  C10 UNL     1      18.252  -0.597  52.401  1.00  0.00     0.009 A 
HETATM    9  C11 UNL     1      17.566  -0.350  51.236  1.00  0.00     0.001 A 
HETATM   10  C12 UNL     1      18.166   0.413  50.261  1.00  0.00     0.002 A 
HETATM   11  C13 UNL     1      19.420   0.885  50.511  1.00  0.00     0.032 A 
HETATM   12  C14 UNL     1      20.036   0.596  51.695  1.00  0.00     0.065 A 
HETATM   13  N1  UNL     1      21.263   0.889  52.272  1.00  0.00    -0.234 NA
HETATM   14  C15 UNL     1      22.270   1.510  51.854  1.00  0.00     0.112 C 
HETATM   15  C16 UNL     1      23.164   1.391  53.040  1.00  0.00     0.135 A 
HETATM   16  C17 UNL     1      24.453   2.073  52.787  1.00  0.00     0.061 A 
HETATM   17 CL1  UNL     1      24.174   3.812  52.600  1.00  0.00    -0.085 Cl
HETATM   18  C18 UNL     1      25.694   1.652  52.680  1.00  0.00     0.090 A 
ENDROOT
BRANCH  14  19
HETATM   19  N2  UNL     1      22.410   2.109  50.592  1.00  0.00    -0.387 N 
HETATM   20  H16 UNL     1      23.111   2.865  50.393  1.00  0.00     0.157 HD
HETATM   21  H17 UNL     1      21.722   1.692  49.902  1.00  0.00     0.157 HD
ENDBRANCH  14  19
BRANCH  18  22
HETATM   22  O1  UNL     1      26.717   2.550  52.430  1.00  0.00    -0.359 OA
HETATM   23  H19 UNL     1      26.674   3.101  51.561  1.00  0.00     0.217 HD
ENDBRANCH  18  22
BRANCH   1  24
HETATM   24  C2  UNL     1      27.228  -0.332  52.673  1.00  0.00     0.037 C 
HETATM   25  C1  UNL     1      27.119  -1.840  52.601  1.00  0.00     0.010 C 
ENDBRANCH   1  24
TORSDOF 3
ENDMDL
MODEL 2
REMARK VINA RESULT:      -8.2      3.693      6.377
REMARK  3 active torsions:
REMARK  status: ('A' for Active; 'I' for Inactive)
REMARK    1  A    between atoms: C2_2  and  C3_3 
REMARK    2  A    between atoms: C15_16  and  N2_17 
REMARK    3  A    between atoms: C18_21  and  O1_22 
ROOT
HETATM    1  C3  UNL     1      21.960   0.670  53.014  1.00  0.00    -0.023 A 
HETATM    2  C4  UNL     1      23.162   1.174  52.854  1.00  0.00     0.018 A 
HETATM    3  C5  UNL     1      23.818   1.637  51.624  1.00  0.00    -0.044 A 
HETATM    4  C6  UNL     1      25.092   1.976  51.597  1.00  0.00    -0.018 C 
HETATM    5  C7  UNL     1      26.411   2.421  51.175  1.00  0.00     0.032 C 
HETATM    6  C8  UNL     1      26.563   2.867  49.740  1.00  0.00     0.045 C 
HETATM    7  C9  UNL     1      25.850   4.102  49.386  1.00  0.00    -0.029 A 
HETATM    8  C10 UNL     1      26.714   5.137  48.988  1.00  0.00     0.009 A 
HETATM    9  C11 UNL     1      26.355   6.404  48.596  1.00  0.00     0.001 A 
HETATM   10  C12 UNL     1      25.022   6.741  48.576  1.00  0.00     0.002 A 
HETATM   11  C13 UNL     1      24.123   5.786  48.950  1.00  0.00     0.032 A 
HETATM   12  C14 UNL     1      24.559   4.548  49.327  1.00  0.00     0.065 A 
HETATM   13  N1  UNL     1      23.958   3.374  49.757  1.00  0.00    -0.234 NA
HETATM   14  C15 UNL     1      22.764   3.069  49.992  1.00  0.00     0.112 C 
HETATM   15  C16 UNL     1      22.933   1.649  50.412  1.00  0.00     0.135 A 
HETATM   16  C17 UNL     1      21.621   1.048  50.744  1.00  0.00     0.061 A 
HETATM   17 CL1  UNL     1      20.619   0.976  49.286  1.00  0.00    -0.085 Cl
HETATM   18  C18 UNL     1      21.093   0.587  51.856  1.00  0.00     0.090 A 
ENDROOT
BRANCH  14  19
HETATM   19  N2  UNL     1      21.652   3.915  49.865  1.00  0.00    -0.387 N 
HETATM   20  H16 UNL     1      20.665   3.587  50.010  1.00  0.00     0.157 HD
HETATM   21  H17 UNL     1      21.957   4.898  49.608  1.00  0.00     0.157 HD
ENDBRANCH  14  19
BRANCH  18  22
HETATM   22  O1  UNL     1      19.807   0.076  51.858  1.00  0.00    -0.359 OA
HETATM   23  H19 UNL     1      19.029   0.725  52.038  1.00  0.00     0.217 HD
ENDBRANCH  18  22
BRANCH   1  24
HETATM   24  C2  UNL     1      21.404   0.227  54.319  1.00  0.00     0.037 C 
HETATM   25  C1  UNL     1      21.858  -1.195  54.565  1.00  0.00     0.010 C 
ENDBRANCH   1  24
TORSDOF 3
ENDMDL
MODEL 3
REMARK VINA RESULT:      -8.1      2.721      6.528
REMARK  3 active torsions:
REMARK  status: ('A' for Active; 'I' for Inactive)
REMARK    1  A    between atoms: C2_2  and  C3_3 
REMARK    2  A    between atoms: C15_16  and  N2_17 
REMARK    3  A    between atoms: C18_21  and  O1_22 
ROOT
HETATM    1  C3  UNL     1      21.164   2.675  51.814  1.00  0.00    -0.023 A 
HETATM    2  C4  UNL     1      21.839   1.875  52.607  1.00  0.00     0.018 A 
HETATM    3  C5  UNL     1      23.154   1.256  52.400  1.00  0.00    -0.044 A 
HETATM    4  C6  UNL     1      23.636   0.347  53.225  1.00  0.00    -0.018 C 
HETATM    5  C7  UNL     1      24.481  -0.644  53.874  1.00  0.00     0.032 C 
HETATM    6  C8  UNL     1      25.839  -0.898  53.265  1.00  0.00     0.045 C 
HETATM    7  C9  UNL     1      26.790   0.219  53.359  1.00  0.00    -0.029 A 
HETATM    8  C10 UNL     1      27.929  -0.096  54.120  1.00  0.00     0.009 A 
HETATM    9  C11 UNL     1      28.994   0.730  54.388  1.00  0.00     0.001 A 
HETATM   10  C12 UNL     1      28.988   2.009  53.880  1.00  0.00     0.002 A 
HETATM   11  C13 UNL     1      27.913   2.385  53.130  1.00  0.00     0.032 A 
HETATM   12  C14 UNL     1      26.893   1.505  52.908  1.00  0.00     0.065 A 
HETATM   13  N1  UNL     1      25.686   1.538  52.224  1.00  0.00    -0.234 NA
HETATM   14  C15 UNL     1      25.093   2.447  51.595  1.00  0.00     0.112 C 
HETATM   15  C16 UNL     1      23.870   1.712  51.163  1.00  0.00     0.135 A 
HETATM   16  C17 UNL     1      22.987   2.598  50.371  1.00  0.00     0.061 A 
HETATM   17 CL1  UNL     1      23.802   3.053  48.866  1.00  0.00    -0.085 Cl
HETATM   18  C18 UNL     1      21.781   3.084  50.568  1.00  0.00     0.090 A 
ENDROOT
BRANCH  14  19
HETATM   19  N2  UNL     1      25.546   3.763  51.415  1.00  0.00    -0.387 N 
HETATM   20  H16 UNL     1      26.466   4.106  51.787  1.00  0.00     0.157 HD
HETATM   21  H17 UNL     1      24.838   4.329  50.865  1.00  0.00     0.157 HD
ENDBRANCH  14  19
BRANCH  18  22
HETATM   22  O1  UNL     1      21.200   3.912  49.624  1.00  0.00    -0.359 OA
HETATM   23  H19 UNL     1      20.388   3.554  49.102  1.00  0.00     0.217 HD
ENDBRANCH  18  22
BRANCH   1  24
HETATM   24  C2  UNL     1      19.826   3.239  52.133  1.00  0.00     0.037 C 
HETATM   25  C1  UNL     1      18.777   2.279  51.616  1.00  0.00     0.010 C 
ENDBRANCH   1  24
TORSDOF 3
ENDMDL
MODEL 4
REMARK VINA RESULT:      -7.9      3.303      6.078
REMARK  3 active torsions:
REMARK  status: ('A' for Active; 'I' for Inactive)
REMARK    1  A    between atoms: C2_2  and  C3_3 
REMARK    2  A    between atoms: C15_16  and  N2_17 
REMARK    3  A    between atoms: C18_21  and  O1_22 
ROOT
HETATM    1  C3  UNL     1      23.099  -0.304  53.369  1.00  0.00    -0.023 A 
HETATM    2  C4  UNL     1      22.735   0.775  52.715  1.00  0.00     0.018 A 
HETATM    3  C5  UNL     1      23.450   2.048  52.554  1.00  0.00    -0.044 A 
HETATM    4  C6  UNL     1      22.886   3.101  51.996  1.00  0.00    -0.018 C 
HETATM    5  C7  UNL     1      22.626   4.428  51.459  1.00  0.00     0.032 C 
HETATM    6  C8  UNL     1      23.768   5.416  51.480  1.00  0.00     0.045 C 
HETATM    7  C9  UNL     1      24.896   5.095  50.594  1.00  0.00    -0.029 A 
HETATM    8  C10 UNL     1      25.097   6.062  49.593  1.00  0.00     0.009 A 
HETATM    9  C11 UNL     1      26.066   6.050  48.620  1.00  0.00     0.001 A 
HETATM   10  C12 UNL     1      26.955   5.000  48.580  1.00  0.00     0.002 A 
HETATM   11  C13 UNL     1      26.821   4.023  49.521  1.00  0.00     0.032 A 
HETATM   12  C14 UNL     1      25.830   4.107  50.458  1.00  0.00     0.065 A 
HETATM   13  N1  UNL     1      25.405   3.328  51.524  1.00  0.00    -0.234 NA
HETATM   14  C15 UNL     1      25.785   2.218  51.968  1.00  0.00     0.112 C 
HETATM   15  C16 UNL     1      24.843   2.056  53.112  1.00  0.00     0.135 A 
HETATM   16  C17 UNL     1      25.106   0.783  53.821  1.00  0.00     0.061 A 
HETATM   17 CL1  UNL     1      26.714   0.839  54.559  1.00  0.00    -0.085 Cl
HETATM   18  C18 UNL     1      24.407  -0.318  53.993  1.00  0.00     0.090 A 
ENDROOT
BRANCH  14  19
HETATM   19  N2  UNL     1      26.822   1.428  51.448  1.00  0.00    -0.387 N 
HETATM   20  H16 UNL     1      27.751   1.318  51.924  1.00  0.00     0.157 HD
HETATM   21  H17 UNL     1      26.526   0.979  50.534  1.00  0.00     0.157 HD
ENDBRANCH  14  19
BRANCH  18  22
HETATM   22  O1  UNL     1      24.932  -1.371  54.721  1.00  0.00    -0.359 OA
HETATM   23  H19 UNL     1      25.187  -1.199  55.704  1.00  0.00     0.217 HD
ENDBRANCH  18  22
BRANCH   1  24
HETATM   24  C2  UNL     1      22.281  -1.540  53.467  1.00  0.00     0.037 C 
HETATM   25  C1  UNL     1      21.174  -1.293  54.469  1.00  0.00     0.010 C 
ENDBRANCH   1  24
TORSDOF 3
ENDMDL
MODEL 5
REMARK VINA RESULT:      -7.9      3.358      5.654
REMARK  3 active torsions:
REMARK  status: ('A' for Active; 'I' for Inactive)
REMARK    1  A    between atoms: C2_2  and  C3_3 
REMARK    2  A    between atoms: C15_16  and  N2_17 
REMARK    3  A    between atoms: C18_21  and  O1_22 
ROOT
HETATM    1  C3  UNL     1      24.301   6.191  50.782  1.00  0.00    -0.023 A 
HETATM    2  C4  UNL     1      23.445   5.378  51.357  1.00  0.00     0.018 A 
HETATM    3  C5  UNL     1      23.422   3.910  51.366  1.00  0.00    -0.044 A 
HETATM    4  C6  UNL     1      22.405   3.230  51.860  1.00  0.00    -0.018 C 
HETATM    5  C7  UNL     1      21.515   2.165  52.292  1.00  0.00     0.032 C 
HETATM    6  C8  UNL     1      22.003   0.746  52.122  1.00  0.00     0.045 C 
HETATM    7  C9  UNL     1      23.141   0.365  52.970  1.00  0.00    -0.029 A 
HETATM    8  C10 UNL     1      22.830  -0.670  53.869  1.00  0.00     0.009 A 
HETATM    9  C11 UNL     1      23.676  -1.245  54.786  1.00  0.00     0.001 A 
HETATM   10  C12 UNL     1      24.973  -0.792  54.870  1.00  0.00     0.002 A 
HETATM   11  C13 UNL     1      25.347   0.212  54.027  1.00  0.00     0.032 A 
HETATM   12  C14 UNL     1      24.446   0.732  53.141  1.00  0.00     0.065 A 
HETATM   13  N1  UNL     1      24.469   1.725  52.172  1.00  0.00    -0.234 NA
HETATM   14  C15 UNL     1      25.355   2.535  51.808  1.00  0.00     0.112 C 
HETATM   15  C16 UNL     1      24.620   3.263  50.736  1.00  0.00     0.135 A 
HETATM   16  C17 UNL     1      25.486   4.299  50.128  1.00  0.00     0.061 A 
HETATM   17 CL1  UNL     1      26.845   3.521  49.301  1.00  0.00    -0.085 Cl
HETATM   18  C18 UNL     1      25.437   5.612  50.092  1.00  0.00     0.090 A 
ENDROOT
BRANCH  14  19
HETATM   19  N2  UNL     1      26.650   2.641  52.339  1.00  0.00    -0.387 N 
HETATM   20  H16 UNL     1      26.849   3.059  53.281  1.00  0.00     0.157 HD
HETATM   21  H17 UNL     1      27.364   2.247  51.661  1.00  0.00     0.157 HD
ENDBRANCH  14  19
BRANCH  18  22
HETATM   22  O1  UNL     1      26.418   6.330  49.431  1.00  0.00    -0.359 OA
HETATM   23  H19 UNL     1      26.274   7.341  49.302  1.00  0.00     0.217 HD
ENDBRANCH  18  22
BRANCH   1  24
HETATM   24  C2  UNL     1      24.217   7.674  50.837  1.00  0.00     0.037 C 
HETATM   25  C1  UNL     1      22.957   8.100  50.116  1.00  0.00     0.010 C 
ENDBRANCH   1  24
TORSDOF 3
ENDMDL
MODEL 6
REMARK VINA RESULT:      -7.6      4.040      5.919
REMARK  3 active torsions:
REMARK  status: ('A' for Active; 'I' for Inactive)
REMARK    1  A    between atoms: C2_2  and  C3_3 
REMARK    2  A    between atoms: C15_16  and  N2_17 
REMARK    3  A    between atoms: C18_21  and  O1_22 
ROOT
HETATM    1  C3  UNL     1      24.800   7.005  49.960  1.00  0.00    -0.023 A 
HETATM    2  C4  UNL     1      23.717   6.289  50.158  1.00  0.00     0.018 A 
HETATM    3  C5  UNL     1      23.518   4.843  49.994  1.00  0.00    -0.044 A 
HETATM    4  C6  UNL     1      22.325   4.288  50.082  1.00  0.00    -0.018 C 
HETATM    5  C7  UNL     1      21.224   3.339  50.105  1.00  0.00     0.032 C 
HETATM    6  C8  UNL     1      21.568   1.878  49.930  1.00  0.00     0.045 C 
HETATM    7  C9  UNL     1      22.331   1.275  51.032  1.00  0.00    -0.029 A 
HETATM    8  C10 UNL     1      21.635   0.237  51.675  1.00  0.00     0.009 A 
HETATM    9  C11 UNL     1      22.078  -0.520  52.732  1.00  0.00     0.001 A 
HETATM   10  C12 UNL     1      23.328  -0.271  53.250  1.00  0.00     0.002 A 
HETATM   11  C13 UNL     1      24.063   0.724  52.676  1.00  0.00     0.032 A 
HETATM   12  C14 UNL     1      23.552   1.432  51.626  1.00  0.00     0.065 A 
HETATM   13  N1  UNL     1      23.993   2.476  50.826  1.00  0.00    -0.234 NA
HETATM   14  C15 UNL     1      25.038   3.170  50.837  1.00  0.00     0.112 C 
HETATM   15  C16 UNL     1      24.767   4.073  49.683  1.00  0.00     0.135 A 
HETATM   16  C17 UNL     1      25.896   5.009  49.482  1.00  0.00     0.061 A 
HETATM   17 CL1  UNL     1      27.342   4.099  49.018  1.00  0.00    -0.085 Cl
HETATM   18  C18 UNL     1      26.017   6.315  49.581  1.00  0.00     0.090 A 
ENDROOT
BRANCH  14  19
HETATM   19  N2  UNL     1      26.107   3.046  51.739  1.00  0.00    -0.387 N 
HETATM   20  H16 UNL     1      27.071   3.407  51.536  1.00  0.00     0.157 HD
HETATM   21  H17 UNL     1      25.794   2.548  52.622  1.00  0.00     0.157 HD
ENDBRANCH  14  19
BRANCH  18  22
HETATM   22  O1  UNL     1      27.234   6.924  49.329  1.00  0.00    -0.359 OA
HETATM   23  H19 UNL     1      27.227   7.847  48.873  1.00  0.00     0.217 HD
ENDBRANCH  18  22
BRANCH   1  24
HETATM   24  C2  UNL     1      24.880   8.476  50.154  1.00  0.00     0.037 C 
HETATM   25  C1  UNL     1      24.489   9.143  48.853  1.00  0.00     0.010 C 
ENDBRANCH   1  24
TORSDOF 3
ENDMDL
MODEL 7
REMARK VINA RESULT:      -7.5      2.630      6.209
REMARK  3 active torsions:
REMARK  status: ('A' for Active; 'I' for Inactive)
REMARK    1  A    between atoms: C2_2  and  C3_3 
REMARK    2  A    between atoms: C15_16  and  N2_17 
REMARK    3  A    between atoms: C18_21  and  O1_22 
ROOT
HETATM    1  C3  UNL     1      18.759   1.419  50.993  1.00  0.00    -0.023 A 
HETATM    2  C4  UNL     1      19.409   0.891  52.003  1.00  0.00     0.018 A 
HETATM    3  C5  UNL     1      20.780   0.367  52.053  1.00  0.00    -0.044 A 
HETATM    4  C6  UNL     1      21.244  -0.279  53.105  1.00  0.00    -0.018 C 
HETATM    5  C7  UNL     1      22.090  -1.009  54.035  1.00  0.00     0.032 C 
HETATM    6  C8  UNL     1      23.517  -1.267  53.614  1.00  0.00     0.045 C 
HETATM    7  C9  UNL     1      24.370  -0.074  53.514  1.00  0.00    -0.029 A 
HETATM    8  C10 UNL     1      25.448  -0.096  54.416  1.00  0.00     0.009 A 
HETATM    9  C11 UNL     1      26.417   0.866  54.563  1.00  0.00     0.001 A 
HETATM   10  C12 UNL     1      26.369   1.988  53.767  1.00  0.00     0.002 A 
HETATM   11  C13 UNL     1      25.348   2.079  52.867  1.00  0.00     0.032 A 
HETATM   12  C14 UNL     1      24.422   1.078  52.780  1.00  0.00     0.065 A 
HETATM   13  N1  UNL     1      23.289   0.840  52.016  1.00  0.00    -0.234 NA
HETATM   14  C15 UNL     1      22.696   1.519  51.144  1.00  0.00     0.112 C 
HETATM   15  C16 UNL     1      21.579   0.593  50.803  1.00  0.00     0.135 A 
HETATM   16  C17 UNL     1      20.716   1.186  49.757  1.00  0.00     0.061 A 
HETATM   17 CL1  UNL     1      21.640   1.357  48.256  1.00  0.00    -0.085 Cl
HETATM   18  C18 UNL     1      19.464   1.587  49.737  1.00  0.00     0.090 A 
ENDROOT
BRANCH  14  19
HETATM   19  N2  UNL     1      23.067   2.796  50.693  1.00  0.00    -0.387 N 
HETATM   20  H16 UNL     1      22.880   3.672  51.240  1.00  0.00     0.157 HD
HETATM   21  H17 UNL     1      23.547   2.733  49.749  1.00  0.00     0.157 HD
ENDBRANCH  14  19
BRANCH  18  22
HETATM   22  O1  UNL     1      18.919   2.118  48.581  1.00  0.00    -0.359 OA
HETATM   23  H19 UNL     1      19.563   2.512  47.881  1.00  0.00     0.217 HD
ENDBRANCH  18  22
BRANCH   1  24
HETATM   24  C2  UNL     1      17.358   1.912  51.061  1.00  0.00     0.037 C 
HETATM   25  C1  UNL     1      17.385   3.333  51.582  1.00  0.00     0.010 C 
ENDBRANCH   1  24
TORSDOF 3
ENDMDL
MODEL 8
REMARK VINA RESULT:      -7.3      3.380      6.743
REMARK  3 active torsions:
REMARK  status: ('A' for Active; 'I' for Inactive)
REMARK    1  A    between atoms: C2_2  and  C3_3 
REMARK    2  A    between atoms: C15_16  and  N2_17 
REMARK    3  A    between atoms: C18_21  and  O1_22 
ROOT
HETATM    1  C3  UNL     1      21.511   3.428  48.341  1.00  0.00    -0.023 A 
HETATM    2  C4  UNL     1      22.805   3.232  48.445  1.00  0.00     0.018 A 
HETATM    3  C5  UNL     1      23.633   3.123  49.654  1.00  0.00    -0.044 A 
HETATM    4  C6  UNL     1      24.950   3.081  49.597  1.00  0.00    -0.018 C 
HETATM    5  C7  UNL     1      26.362   3.009  49.938  1.00  0.00     0.032 C 
HETATM    6  C8  UNL     1      26.711   2.838  51.397  1.00  0.00     0.045 C 
HETATM    7  C9  UNL     1      26.331   1.547  51.989  1.00  0.00    -0.029 A 
HETATM    8  C10 UNL     1      27.438   0.803  52.434  1.00  0.00     0.009 A 
HETATM    9  C11 UNL     1      27.411  -0.434  53.031  1.00  0.00     0.001 A 
HETATM   10  C12 UNL     1      26.197  -1.049  53.234  1.00  0.00     0.002 A 
HETATM   11  C13 UNL     1      25.078  -0.385  52.826  1.00  0.00     0.032 A 
HETATM   12  C14 UNL     1      25.187   0.844  52.240  1.00  0.00     0.065 A 
HETATM   13  N1  UNL     1      24.301   1.775  51.717  1.00  0.00    -0.234 NA
HETATM   14  C15 UNL     1      23.056   1.769  51.566  1.00  0.00     0.112 C 
HETATM   15  C16 UNL     1      22.860   3.107  50.940  1.00  0.00     0.135 A 
HETATM   16  C17 UNL     1      21.425   3.345  50.665  1.00  0.00     0.061 A 
HETATM   17 CL1  UNL     1      20.536   3.423  52.194  1.00  0.00    -0.085 Cl
HETATM   18  C18 UNL     1      20.729   3.498  49.560  1.00  0.00     0.090 A 
ENDROOT
BRANCH  14  19
HETATM   19  N2  UNL     1      22.182   0.729  51.921  1.00  0.00    -0.387 N 
HETATM   20  H16 UNL     1      22.195  -0.212  51.457  1.00  0.00     0.157 HD
HETATM   21  H17 UNL     1      21.534   1.037  52.702  1.00  0.00     0.157 HD
ENDBRANCH  14  19
BRANCH  18  22
HETATM   22  O1  UNL     1      19.363   3.708  49.619  1.00  0.00    -0.359 OA
HETATM   23  H19 UNL     1      18.744   2.971  49.252  1.00  0.00     0.217 HD
ENDBRANCH  18  22
BRANCH   1  24
HETATM   24  C2  UNL     1      20.779   3.527  47.052  1.00  0.00     0.037 C 
HETATM   25  C1  UNL     1      21.797   3.699  45.946  1.00  0.00     0.010 C 
ENDBRANCH   1  24
TORSDOF 3
ENDMDL
MODEL 9
REMARK VINA RESULT:      -7.1     10.078     11.724
REMARK  3 active torsions:
REMARK  status: ('A' for Active; 'I' for Inactive)
REMARK    1  A    between atoms: C2_2  and  C3_3 
REMARK    2  A    between atoms: C15_16  and  N2_17 
REMARK    3  A    between atoms: C18_21  and  O1_22 
ROOT
HETATM    1  C3  UNL     1      33.276   4.604  47.774  1.00  0.00    -0.023 A 
HETATM    2  C4  UNL     1      31.965   4.568  47.834  1.00  0.00     0.018 A 
HETATM    3  C5  UNL     1      31.009   5.679  47.926  1.00  0.00    -0.044 A 
HETATM    4  C6  UNL     1      29.723   5.479  48.136  1.00  0.00    -0.018 C 
HETATM    5  C7  UNL     1      28.296   5.665  48.349  1.00  0.00     0.032 C 
HETATM    6  C8  UNL     1      27.768   7.079  48.295  1.00  0.00     0.045 C 
HETATM    7  C9  UNL     1      27.825   7.722  46.974  1.00  0.00    -0.029 A 
HETATM    8  C10 UNL     1      26.554   8.051  46.472  1.00  0.00     0.009 A 
HETATM    9  C11 UNL     1      26.276   8.661  45.273  1.00  0.00     0.001 A 
HETATM   10  C12 UNL     1      27.319   9.002  44.442  1.00  0.00     0.002 A 
HETATM   11  C13 UNL     1      28.583   8.712  44.864  1.00  0.00     0.032 A 
HETATM   12  C14 UNL     1      28.778   8.105  46.072  1.00  0.00     0.065 A 
HETATM   13  N1  UNL     1      29.878   7.671  46.798  1.00  0.00    -0.234 NA
HETATM   14  C15 UNL     1      31.107   7.657  46.547  1.00  0.00     0.112 C 
HETATM   15  C16 UNL     1      31.624   7.042  47.802  1.00  0.00     0.135 A 
HETATM   16  C17 UNL     1      33.099   6.923  47.750  1.00  0.00     0.061 A 
HETATM   17 CL1  UNL     1      33.820   8.540  47.704  1.00  0.00    -0.085 Cl
HETATM   18  C18 UNL     1      33.924   5.900  47.731  1.00  0.00     0.090 A 
ENDROOT
BRANCH  14  19
HETATM   19  N2  UNL     1      31.719   8.117  45.371  1.00  0.00    -0.387 N 
HETATM   20  H16 UNL     1      32.757   8.245  45.279  1.00  0.00     0.157 HD
HETATM   21  H17 UNL     1      30.993   8.308  44.622  1.00  0.00     0.157 HD
ENDBRANCH  14  19
BRANCH  18  22
HETATM   22  O1  UNL     1      35.291   6.106  47.676  1.00  0.00    -0.359 OA
HETATM   23  H19 UNL     1      35.629   7.068  47.527  1.00  0.00     0.217 HD
ENDBRANCH  18  22
BRANCH   1  24
HETATM   24  C2  UNL     1      34.145   3.402  47.690  1.00  0.00     0.037 C 
HETATM   25  C1  UNL     1      33.274   2.178  47.877  1.00  0.00     0.010 C 
ENDBRANCH   1  24
TORSDOF 3
ENDMDL
