MODEL 1
REMARK VINA RESULT:      -9.2      0.000      0.000
REMARK  5 active torsions:
REMARK  status: ('A' for Active; 'I' for Inactive)
REMARK    1  A    between atoms: O1_2  and  C2_3 
REMARK    2  A    between atoms: C5_6  and  N1_7 
REMARK       I    between atoms: N1_7  and  C6_8 
REMARK       I    between atoms: C6_8  and  N2_10 
REMARK    3  A    between atoms: N2_10  and  C7_11 
REMARK    4  A    between atoms: C10_14  and  O3_15 
REMARK    5  A    between atoms: O3_15  and  C11_16 
ROOT
HETATM    1  C7  UNL     1      26.846   5.234  48.930  1.00  0.00     0.036 A 
HETATM    2  C8  UNL     1      25.756   5.574  49.684  1.00  0.00     0.032 A 
HETATM    3  C9  UNL     1      24.987   4.694  50.412  1.00  0.00     0.039 A 
HETATM    4  C10 UNL     1      25.314   3.354  50.399  1.00  0.00     0.078 A 
HETATM    5  C21 UNL     1      26.408   2.982  49.647  1.00  0.00     0.039 A 
HETATM    6  C22 UNL     1      27.143   3.891  48.940  1.00  0.00     0.032 A 
ENDROOT
BRANCH   1   7
HETATM    7  N2  UNL     1      27.663   6.104  48.169  1.00  0.00    -0.309 N 
HETATM    8  C6  UNL     1      29.060   6.246  48.158  1.00  0.00     0.325 C 
HETATM    9  N1  UNL     1      29.782   7.145  47.361  1.00  0.00    -0.309 N 
HETATM   10  O2  UNL     1      29.748   5.534  48.902  1.00  0.00    -0.247 OA
HETATM   11  H6  UNL     1      29.255   7.783  46.703  1.00  0.00     0.170 HD
HETATM   12  H7  UNL     1      27.204   6.765  47.493  1.00  0.00     0.170 HD
BRANCH   9  13
HETATM   13  C5  UNL     1      31.196   7.052  47.578  1.00  0.00     0.036 A 
HETATM   14  C4  UNL     1      31.857   6.118  46.782  1.00  0.00     0.032 A 
HETATM   15  C3  UNL     1      33.238   5.966  46.931  1.00  0.00     0.039 A 
HETATM   16  C2  UNL     1      33.920   6.751  47.870  1.00  0.00     0.068 A 
HETATM   17  C24 UNL     1      33.204   7.657  48.625  1.00  0.00     0.039 A 
HETATM   18  C23 UNL     1      31.838   7.843  48.514  1.00  0.00     0.032 A 
BRANCH  16  19
HETATM   19  O1  UNL     1      35.289   6.672  48.089  1.00  0.00    -0.356 OA
HETATM   20  C1  UNL     1      35.867   5.945  49.152  1.00  0.00     0.210 C 
ENDBRANCH  16  19
ENDBRANCH   9  13
ENDBRANCH   1   7
BRANCH   4  21
HETATM   21  O3  UNL     1      24.540   2.466  51.132  1.00  0.00    -0.291 OA
BRANCH  21  22
HETATM   22  C11 UNL     1      25.205   1.799  52.177  1.00  0.00     0.183 A 
HETATM   23  N3  UNL     1      26.502   2.054  52.440  1.00  0.00    -0.217 NA
HETATM   24  C12 UNL     1      27.177   1.456  53.412  1.00  0.00     0.236 A 
HETATM   25  N4  UNL     1      26.556   0.555  54.173  1.00  0.00    -0.241 NA
HETATM   26  C13 UNL     1      25.258   0.237  53.980  1.00  0.00     0.071 A 
HETATM   27  C14 UNL     1      24.555   0.858  52.970  1.00  0.00     0.046 A 
HETATM   28  C20 UNL     1      24.900  -0.670  54.859  1.00  0.00     0.032 C 
HETATM   29  C15 UNL     1      23.326   0.823  52.485  1.00  0.00     0.027 C 
HETATM   30  C16 UNL     1      22.111   0.077  52.816  1.00  0.00    -0.039 C 
HETATM   31  C17 UNL     1      21.093   0.198  51.740  1.00  0.00     0.050 C 
HETATM   32  C18 UNL     1      21.790  -0.660  53.884  1.00  0.00     0.141 C 
HETATM   33  O4  UNL     1      22.504  -0.962  55.032  1.00  0.00    -0.359 OA
HETATM   34  C19 UNL     1      23.760  -1.496  55.311  1.00  0.00     0.204 C 
ENDBRANCH  21  22
ENDBRANCH   4  21
TORSDOF 5
ENDMDL
MODEL 2
REMARK VINA RESULT:      -9.0      3.117      3.775
REMARK  5 active torsions:
REMARK  status: ('A' for Active; 'I' for Inactive)
REMARK    1  A    between atoms: O1_2  and  C2_3 
REMARK    2  A    between atoms: C5_6  and  N1_7 
REMARK       I    between atoms: N1_7  and  C6_8 
REMARK       I    between atoms: C6_8  and  N2_10 
REMARK    3  A    between atoms: N2_10  and  C7_11 
REMARK    4  A    between atoms: C10_14  and  O3_15 
REMARK    5  A    between atoms: O3_15  and  C11_16 
ROOT
HETATM    1  C7  UNL     1      24.887   6.037  50.675  1.00  0.00     0.036 A 
HETATM    2  C8  UNL     1      25.224   5.110  49.727  1.00  0.00     0.032 A 
HETATM    3  C9  UNL     1      24.686   3.847  49.622  1.00  0.00     0.039 A 
HETATM    4  C10 UNL     1      23.727   3.454  50.531  1.00  0.00     0.078 A 
HETATM    5  C21 UNL     1      23.367   4.367  51.499  1.00  0.00     0.039 A 
HETATM    6  C22 UNL     1      23.929   5.611  51.565  1.00  0.00     0.032 A 
ENDROOT
BRANCH   1   7
HETATM    7  N2  UNL     1      25.413   7.343  50.819  1.00  0.00    -0.309 N 
HETATM    8  C6  UNL     1      26.409   7.998  50.078  1.00  0.00     0.325 C 
HETATM    9  N1  UNL     1      26.864   9.305  50.301  1.00  0.00    -0.309 N 
HETATM   10  O2  UNL     1      26.955   7.405  49.138  1.00  0.00    -0.247 OA
HETATM   11  H6  UNL     1      26.439   9.868  51.089  1.00  0.00     0.170 HD
HETATM   12  H7  UNL     1      25.035   7.959  51.583  1.00  0.00     0.170 HD
BRANCH   9  13
HETATM   13  C5  UNL     1      27.889   9.690  49.376  1.00  0.00     0.036 A 
HETATM   14  C4  UNL     1      27.451  10.431  48.280  1.00  0.00     0.032 A 
HETATM   15  C3  UNL     1      28.389  10.847  47.331  1.00  0.00     0.039 A 
HETATM   16  C2  UNL     1      29.738  10.512  47.504  1.00  0.00     0.068 A 
HETATM   17  C24 UNL     1      30.105   9.778  48.613  1.00  0.00     0.039 A 
HETATM   18  C23 UNL     1      29.214   9.343  49.578  1.00  0.00     0.032 A 
BRANCH  16  19
HETATM   19  O1  UNL     1      30.741  10.881  46.617  1.00  0.00    -0.356 OA
HETATM   20  C1  UNL     1      31.980  11.420  47.024  1.00  0.00     0.210 C 
ENDBRANCH  16  19
ENDBRANCH   9  13
ENDBRANCH   1   7
BRANCH   4  21
HETATM   21  O3  UNL     1      23.183   2.181  50.427  1.00  0.00    -0.291 OA
BRANCH  21  22
HETATM   22  C11 UNL     1      23.451   1.316  51.504  1.00  0.00     0.183 A 
HETATM   23  N3  UNL     1      24.703   1.184  51.984  1.00  0.00    -0.217 NA
HETATM   24  C12 UNL     1      25.011   0.384  52.995  1.00  0.00     0.236 A 
HETATM   25  N4  UNL     1      24.047  -0.331  53.574  1.00  0.00    -0.241 NA
HETATM   26  C13 UNL     1      22.765  -0.261  53.157  1.00  0.00     0.071 A 
HETATM   27  C14 UNL     1      22.443   0.571  52.106  1.00  0.00     0.046 A 
HETATM   28  C20 UNL     1      22.026  -1.060  53.893  1.00  0.00     0.032 C 
HETATM   29  C15 UNL     1      21.352   0.903  51.436  1.00  0.00     0.027 C 
HETATM   30  C16 UNL     1      19.941   0.521  51.512  1.00  0.00    -0.039 C 
HETATM   31  C17 UNL     1      19.196   0.964  50.306  1.00  0.00     0.050 C 
HETATM   32  C18 UNL     1      19.253  -0.133  52.454  1.00  0.00     0.141 C 
HETATM   33  O4  UNL     1      19.649  -0.666  53.669  1.00  0.00    -0.359 OA
HETATM   34  C19 UNL     1      20.645  -1.544  54.094  1.00  0.00     0.204 C 
ENDBRANCH  21  22
ENDBRANCH   4  21
TORSDOF 5
ENDMDL
MODEL 3
REMARK VINA RESULT:      -8.9      6.131     12.764
REMARK  5 active torsions:
REMARK  status: ('A' for Active; 'I' for Inactive)
REMARK    1  A    between atoms: O1_2  and  C2_3 
REMARK    2  A    between atoms: C5_6  and  N1_7 
REMARK       I    between atoms: N1_7  and  C6_8 
REMARK       I    between atoms: C6_8  and  N2_10 
REMARK    3  A    between atoms: N2_10  and  C7_11 
REMARK    4  A    between atoms: C10_14  and  O3_15 
REMARK    5  A    between atoms: O3_15  and  C11_16 
ROOT
HETATM    1  C7  UNL     1      18.612   3.196  51.037  1.00  0.00     0.036 A 
HETATM    2  C8  UNL     1      18.860   2.121  50.227  1.00  0.00     0.032 A 
HETATM    3  C9  UNL     1      20.038   1.410  50.188  1.00  0.00     0.039 A 
HETATM    4  C10 UNL     1      21.071   1.785  51.020  1.00  0.00     0.078 A 
HETATM    5  C21 UNL     1      20.851   2.866  51.848  1.00  0.00     0.039 A 
HETATM    6  C22 UNL     1      19.663   3.543  51.852  1.00  0.00     0.032 A 
ENDROOT
BRANCH   1   7
HETATM    7  N2  UNL     1      17.419   3.954  51.110  1.00  0.00    -0.309 N 
HETATM    8  C6  UNL     1      16.193   3.646  51.721  1.00  0.00     0.325 C 
HETATM    9  N1  UNL     1      15.061   4.472  51.737  1.00  0.00    -0.309 N 
HETATM   10  O2  UNL     1      16.062   2.563  52.305  1.00  0.00    -0.247 OA
HETATM   11  H6  UNL     1      15.105   5.412  51.255  1.00  0.00     0.170 HD
HETATM   12  H7  UNL     1      17.394   4.901  50.652  1.00  0.00     0.170 HD
BRANCH   9  13
HETATM   13  C5  UNL     1      13.963   3.877  52.442  1.00  0.00     0.036 A 
HETATM   14  C4  UNL     1      13.685   4.436  53.687  1.00  0.00     0.032 A 
HETATM   15  C3  UNL     1      12.629   3.914  54.438  1.00  0.00     0.039 A 
HETATM   16  C2  UNL     1      11.879   2.849  53.925  1.00  0.00     0.068 A 
HETATM   17  C24 UNL     1      12.207   2.342  52.684  1.00  0.00     0.039 A 
HETATM   18  C23 UNL     1      13.243   2.825  51.904  1.00  0.00     0.032 A 
BRANCH  16  19
HETATM   19  O1  UNL     1      10.813   2.264  54.596  1.00  0.00    -0.356 OA
HETATM   20  C1  UNL     1      10.955   1.531  55.793  1.00  0.00     0.210 C 
ENDBRANCH  16  19
ENDBRANCH   9  13
ENDBRANCH   1   7
BRANCH   4  21
HETATM   21  O3  UNL     1      22.259   1.069  50.983  1.00  0.00    -0.291 OA
BRANCH  21  22
HETATM   22  C11 UNL     1      22.597   0.389  52.167  1.00  0.00     0.183 A 
HETATM   23  N3  UNL     1      21.677  -0.344  52.825  1.00  0.00    -0.217 NA
HETATM   24  C12 UNL     1      21.941  -1.004  53.944  1.00  0.00     0.236 A 
HETATM   25  N4  UNL     1      23.170  -0.949  54.456  1.00  0.00    -0.241 NA
HETATM   26  C13 UNL     1      24.153  -0.238  53.863  1.00  0.00     0.071 A 
HETATM   27  C14 UNL     1      23.881   0.448  52.699  1.00  0.00     0.046 A 
HETATM   28  C20 UNL     1      25.255  -0.353  54.569  1.00  0.00     0.032 C 
HETATM   29  C15 UNL     1      24.544   1.222  51.856  1.00  0.00     0.027 C 
HETATM   30  C16 UNL     1      25.919   1.716  51.777  1.00  0.00    -0.039 C 
HETATM   31  C17 UNL     1      26.042   2.813  50.783  1.00  0.00     0.050 C 
HETATM   32  C18 UNL     1      27.027   1.350  52.428  1.00  0.00     0.141 C 
HETATM   33  O4  UNL     1      27.240   0.382  53.396  1.00  0.00    -0.359 OA
HETATM   34  C19 UNL     1      26.672   0.064  54.628  1.00  0.00     0.204 C 
ENDBRANCH  21  22
ENDBRANCH   4  21
TORSDOF 5
ENDMDL
MODEL 4
REMARK VINA RESULT:      -8.8      1.488      2.029
REMARK  5 active torsions:
REMARK  status: ('A' for Active; 'I' for Inactive)
REMARK    1  A    between atoms: O1_2  and  C2_3 
REMARK    2  A    between atoms: C5_6  and  N1_7 
REMARK       I    between atoms: N1_7  and  C6_8 
REMARK       I    between atoms: C6_8  and  N2_10 
REMARK    3  A    between atoms: N2_10  and  C7_11 
REMARK    4  A    between atoms: C10_14  and  O3_15 
REMARK    5  A    between atoms: O3_15  and  C11_16 
ROOT
HETATM    1  C7  UNL     1      26.283   5.603  49.565  1.00  0.00     0.036 A 
HETATM    2  C8  UNL     1      26.538   4.309  49.199  1.00  0.00     0.032 A 
HETATM    3  C9  UNL     1      25.737   3.228  49.488  1.00  0.00     0.039 A 
HETATM    4  C10 UNL     1      24.575   3.431  50.203  1.00  0.00     0.078 A 
HETATM    5  C21 UNL     1      24.292   4.724  50.586  1.00  0.00     0.039 A 
HETATM    6  C22 UNL     1      25.118   5.768  50.277  1.00  0.00     0.032 A 
ENDROOT
BRANCH   1   7
HETATM    7  N2  UNL     1      27.077   6.742  49.290  1.00  0.00    -0.309 N 
HETATM    8  C6  UNL     1      28.316   6.838  48.637  1.00  0.00     0.325 C 
HETATM    9  N1  UNL     1      29.028   8.024  48.412  1.00  0.00    -0.309 N 
HETATM   10  O2  UNL     1      28.857   5.811  48.208  1.00  0.00    -0.247 OA
HETATM   11  H6  UNL     1      28.622   8.939  48.753  1.00  0.00     0.170 HD
HETATM   12  H7  UNL     1      26.732   7.685  49.601  1.00  0.00     0.170 HD
BRANCH   9  13
HETATM   13  C5  UNL     1      30.262   7.795  47.718  1.00  0.00     0.036 A 
HETATM   14  C4  UNL     1      30.177   7.835  46.328  1.00  0.00     0.032 A 
HETATM   15  C3  UNL     1      31.336   7.623  45.577  1.00  0.00     0.039 A 
HETATM   16  C2  UNL     1      32.547   7.377  46.235  1.00  0.00     0.068 A 
HETATM   17  C24 UNL     1      32.562   7.352  47.615  1.00  0.00     0.039 A 
HETATM   18  C23 UNL     1      31.442   7.555  48.401  1.00  0.00     0.032 A 
BRANCH  16  19
HETATM   19  O1  UNL     1      33.750   7.155  45.576  1.00  0.00    -0.356 OA
HETATM   20  C1  UNL     1      33.834   6.668  44.254  1.00  0.00     0.210 C 
ENDBRANCH  16  19
ENDBRANCH   9  13
ENDBRANCH   1   7
BRANCH   4  21
HETATM   21  O3  UNL     1      23.766   2.342  50.494  1.00  0.00    -0.291 OA
BRANCH  21  22
HETATM   22  C11 UNL     1      24.153   1.579  51.612  1.00  0.00     0.183 A 
HETATM   23  N3  UNL     1      25.431   1.585  52.038  1.00  0.00    -0.217 NA
HETATM   24  C12 UNL     1      25.850   0.886  53.083  1.00  0.00     0.236 A 
HETATM   25  N4  UNL     1      24.977   0.136  53.755  1.00  0.00    -0.241 NA
HETATM   26  C13 UNL     1      23.677   0.071  53.397  1.00  0.00     0.071 A 
HETATM   27  C14 UNL     1      23.239   0.797  52.310  1.00  0.00     0.046 A 
HETATM   28  C20 UNL     1      23.042  -0.734  54.219  1.00  0.00     0.032 C 
HETATM   29  C15 UNL     1      22.097   0.990  51.674  1.00  0.00     0.027 C 
HETATM   30  C16 UNL     1      20.729   0.499  51.844  1.00  0.00    -0.039 C 
HETATM   31  C17 UNL     1      19.897   0.793  50.648  1.00  0.00     0.050 C 
HETATM   32  C18 UNL     1      20.140  -0.142  52.858  1.00  0.00     0.141 C 
HETATM   33  O4  UNL     1      20.633  -0.555  54.086  1.00  0.00    -0.359 OA
HETATM   34  C19 UNL     1      21.717  -1.315  54.519  1.00  0.00     0.204 C 
ENDBRANCH  21  22
ENDBRANCH   4  21
TORSDOF 5
ENDMDL
MODEL 5
REMARK VINA RESULT:      -8.7      6.047     12.759
REMARK  5 active torsions:
REMARK  status: ('A' for Active; 'I' for Inactive)
REMARK    1  A    between atoms: O1_2  and  C2_3 
REMARK    2  A    between atoms: C5_6  and  N1_7 
REMARK       I    between atoms: N1_7  and  C6_8 
REMARK       I    between atoms: C6_8  and  N2_10 
REMARK    3  A    between atoms: N2_10  and  C7_11 
REMARK    4  A    between atoms: C10_14  and  O3_15 
REMARK    5  A    between atoms: O3_15  and  C11_16 
ROOT
HETATM    1  C7  UNL     1      18.699   3.034  51.200  1.00  0.00     0.036 A 
HETATM    2  C8  UNL     1      19.011   1.906  50.491  1.00  0.00     0.032 A 
HETATM    3  C9  UNL     1      20.198   1.215  50.579  1.00  0.00     0.039 A 
HETATM    4  C10 UNL     1      21.173   1.671  51.442  1.00  0.00     0.078 A 
HETATM    5  C21 UNL     1      20.887   2.807  52.169  1.00  0.00     0.039 A 
HETATM    6  C22 UNL     1      19.693   3.461  52.049  1.00  0.00     0.032 A 
ENDROOT
BRANCH   1   7
HETATM    7  N2  UNL     1      17.493   3.774  51.141  1.00  0.00    -0.309 N 
HETATM    8  C6  UNL     1      16.251   3.519  51.744  1.00  0.00     0.325 C 
HETATM    9  N1  UNL     1      15.108   4.320  51.623  1.00  0.00    -0.309 N 
HETATM   10  O2  UNL     1      16.114   2.512  52.450  1.00  0.00    -0.247 OA
HETATM   11  H6  UNL     1      15.155   5.197  51.033  1.00  0.00     0.170 HD
HETATM   12  H7  UNL     1      17.471   4.658  50.572  1.00  0.00     0.170 HD
BRANCH   9  13
HETATM   13  C5  UNL     1      13.994   3.795  52.357  1.00  0.00     0.036 A 
HETATM   14  C4  UNL     1      13.729   4.430  53.569  1.00  0.00     0.032 A 
HETATM   15  C3  UNL     1      12.659   3.978  54.345  1.00  0.00     0.039 A 
HETATM   16  C2  UNL     1      11.883   2.905  53.890  1.00  0.00     0.068 A 
HETATM   17  C24 UNL     1      12.199   2.321  52.680  1.00  0.00     0.039 A 
HETATM   18  C23 UNL     1      13.247   2.733  51.877  1.00  0.00     0.032 A 
BRANCH  16  19
HETATM   19  O1  UNL     1      10.801   2.387  54.591  1.00  0.00    -0.356 OA
HETATM   20  C1  UNL     1      10.933   1.595  55.751  1.00  0.00     0.210 C 
ENDBRANCH  16  19
ENDBRANCH   9  13
ENDBRANCH   1   7
BRANCH   4  21
HETATM   21  O3  UNL     1      22.370   0.976  51.531  1.00  0.00    -0.291 OA
BRANCH  21  22
HETATM   22  C11 UNL     1      23.521   1.697  51.163  1.00  0.00     0.183 A 
HETATM   23  N3  UNL     1      23.507   2.512  50.090  1.00  0.00    -0.217 NA
HETATM   24  C12 UNL     1      24.561   3.214  49.698  1.00  0.00     0.236 A 
HETATM   25  N4  UNL     1      25.697   3.119  50.390  1.00  0.00    -0.241 NA
HETATM   26  C13 UNL     1      25.800   2.327  51.477  1.00  0.00     0.071 A 
HETATM   27  C14 UNL     1      24.705   1.596  51.886  1.00  0.00     0.046 A 
HETATM   28  C20 UNL     1      27.017   2.418  51.965  1.00  0.00     0.032 C 
HETATM   29  C15 UNL     1      24.419   0.745  52.857  1.00  0.00     0.027 C 
HETATM   30  C16 UNL     1      25.166   0.174  53.978  1.00  0.00    -0.039 C 
HETATM   31  C17 UNL     1      24.444  -0.979  54.576  1.00  0.00     0.050 C 
HETATM   32  C18 UNL     1      26.340   0.512  54.520  1.00  0.00     0.141 C 
HETATM   33  O4  UNL     1      27.239   1.517  54.199  1.00  0.00    -0.359 OA
HETATM   34  C19 UNL     1      27.900   1.929  53.044  1.00  0.00     0.204 C 
ENDBRANCH  21  22
ENDBRANCH   4  21
TORSDOF 5
ENDMDL
MODEL 6
REMARK VINA RESULT:      -8.7      3.501      4.609
REMARK  5 active torsions:
REMARK  status: ('A' for Active; 'I' for Inactive)
REMARK    1  A    between atoms: O1_2  and  C2_3 
REMARK    2  A    between atoms: C5_6  and  N1_7 
REMARK       I    between atoms: N1_7  and  C6_8 
REMARK       I    between atoms: C6_8  and  N2_10 
REMARK    3  A    between atoms: N2_10  and  C7_11 
REMARK    4  A    between atoms: C10_14  and  O3_15 
REMARK    5  A    between atoms: O3_15  and  C11_16 
ROOT
HETATM    1  C7  UNL     1      24.894   5.834  50.614  1.00  0.00     0.036 A 
HETATM    2  C8  UNL     1      25.430   4.696  50.074  1.00  0.00     0.032 A 
HETATM    3  C9  UNL     1      24.726   3.551  49.775  1.00  0.00     0.039 A 
HETATM    4  C10 UNL     1      23.371   3.516  50.027  1.00  0.00     0.078 A 
HETATM    5  C21 UNL     1      22.804   4.649  50.571  1.00  0.00     0.039 A 
HETATM    6  C22 UNL     1      23.542   5.764  50.853  1.00  0.00     0.032 A 
ENDROOT
BRANCH   1   7
HETATM    7  N2  UNL     1      25.579   7.030  50.937  1.00  0.00    -0.309 N 
HETATM    8  C6  UNL     1      26.379   7.854  50.130  1.00  0.00     0.325 C 
HETATM    9  N1  UNL     1      27.019   9.029  50.547  1.00  0.00    -0.309 N 
HETATM   10  O2  UNL     1      26.559   7.552  48.943  1.00  0.00    -0.247 OA
HETATM   11  H6  UNL     1      26.908   9.345  51.550  1.00  0.00     0.170 HD
HETATM   12  H7  UNL     1      25.510   7.402  51.918  1.00  0.00     0.170 HD
BRANCH   9  13
HETATM   13  C5  UNL     1      27.765   9.649  49.490  1.00  0.00     0.036 A 
HETATM   14  C4  UNL     1      29.098   9.254  49.394  1.00  0.00     0.032 A 
HETATM   15  C3  UNL     1      29.893   9.811  48.390  1.00  0.00     0.039 A 
HETATM   16  C2  UNL     1      29.336  10.745  47.509  1.00  0.00     0.068 A 
HETATM   17  C24 UNL     1      28.008  11.091  47.658  1.00  0.00     0.039 A 
HETATM   18  C23 UNL     1      27.181  10.568  48.636  1.00  0.00     0.032 A 
BRANCH  16  19
HETATM   19  O1  UNL     1      30.046  11.352  46.480  1.00  0.00    -0.356 OA
HETATM   20  C1  UNL     1      31.414  11.685  46.570  1.00  0.00     0.210 C 
ENDBRANCH  16  19
ENDBRANCH   9  13
ENDBRANCH   1   7
BRANCH   4  21
HETATM   21  O3  UNL     1      22.660   2.363  49.725  1.00  0.00    -0.291 OA
BRANCH  21  22
HETATM   22  C11 UNL     1      21.597   2.059  50.596  1.00  0.00     0.183 A 
HETATM   23  N3  UNL     1      20.341   2.452  50.310  1.00  0.00    -0.217 NA
HETATM   24  C12 UNL     1      19.303   2.193  51.093  1.00  0.00     0.236 A 
HETATM   25  N4  UNL     1      19.498   1.512  52.223  1.00  0.00    -0.241 NA
HETATM   26  C13 UNL     1      20.723   1.080  52.588  1.00  0.00     0.071 A 
HETATM   27  C14 UNL     1      21.803   1.348  51.774  1.00  0.00     0.046 A 
HETATM   28  C20 UNL     1      20.633   0.443  53.733  1.00  0.00     0.032 C 
HETATM   29  C15 UNL     1      23.102   1.106  51.782  1.00  0.00     0.027 C 
HETATM   30  C16 UNL     1      24.015   0.417  52.695  1.00  0.00    -0.039 C 
HETATM   31  C17 UNL     1      25.434   0.717  52.369  1.00  0.00     0.050 C 
HETATM   32  C18 UNL     1      23.781  -0.400  53.727  1.00  0.00     0.141 C 
HETATM   33  O4  UNL     1      22.596  -0.865  54.273  1.00  0.00    -0.359 OA
HETATM   34  C19 UNL     1      21.424  -0.282  54.750  1.00  0.00     0.204 C 
ENDBRANCH  21  22
ENDBRANCH   4  21
TORSDOF 5
ENDMDL
MODEL 7
REMARK VINA RESULT:      -8.5      2.510      2.979
REMARK  5 active torsions:
REMARK  status: ('A' for Active; 'I' for Inactive)
REMARK    1  A    between atoms: O1_2  and  C2_3 
REMARK    2  A    between atoms: C5_6  and  N1_7 
REMARK       I    between atoms: N1_7  and  C6_8 
REMARK       I    between atoms: C6_8  and  N2_10 
REMARK    3  A    between atoms: N2_10  and  C7_11 
REMARK    4  A    between atoms: C10_14  and  O3_15 
REMARK    5  A    between atoms: O3_15  and  C11_16 
ROOT
HETATM    1  C7  UNL     1      25.857   6.606  49.593  1.00  0.00     0.036 A 
HETATM    2  C8  UNL     1      26.471   5.521  49.030  1.00  0.00     0.032 A 
HETATM    3  C9  UNL     1      26.198   4.206  49.335  1.00  0.00     0.039 A 
HETATM    4  C10 UNL     1      25.234   3.927  50.281  1.00  0.00     0.078 A 
HETATM    5  C21 UNL     1      24.599   5.002  50.867  1.00  0.00     0.039 A 
HETATM    6  C22 UNL     1      24.903   6.292  50.532  1.00  0.00     0.032 A 
ENDROOT
BRANCH   1   7
HETATM    7  N2  UNL     1      26.105   7.971  49.309  1.00  0.00    -0.309 N 
HETATM    8  C6  UNL     1      27.292   8.605  48.909  1.00  0.00     0.325 C 
HETATM    9  N1  UNL     1      27.437   9.975  48.650  1.00  0.00    -0.309 N 
HETATM   10  O2  UNL     1      28.320   7.931  48.760  1.00  0.00    -0.247 OA
HETATM   11  H6  UNL     1      26.597  10.609  48.759  1.00  0.00     0.170 HD
HETATM   12  H7  UNL     1      25.313   8.657  49.397  1.00  0.00     0.170 HD
BRANCH   9  13
HETATM   13  C5  UNL     1      28.773  10.317  48.259  1.00  0.00     0.036 A 
HETATM   14  C4  UNL     1      29.588  10.789  49.286  1.00  0.00     0.032 A 
HETATM   15  C3  UNL     1      30.906  11.145  48.988  1.00  0.00     0.039 A 
HETATM   16  C2  UNL     1      31.373  11.019  47.674  1.00  0.00     0.068 A 
HETATM   17  C24 UNL     1      30.513  10.543  46.704  1.00  0.00     0.039 A 
HETATM   18  C23 UNL     1      29.201  10.180  46.951  1.00  0.00     0.032 A 
BRANCH  16  19
HETATM   19  O1  UNL     1      32.665  11.346  47.281  1.00  0.00    -0.356 OA
HETATM   20  C1  UNL     1      33.632  10.387  46.913  1.00  0.00     0.210 C 
ENDBRANCH  16  19
ENDBRANCH   9  13
ENDBRANCH   1   7
BRANCH   4  21
HETATM   21  O3  UNL     1      24.958   2.603  50.590  1.00  0.00    -0.291 OA
BRANCH  21  22
HETATM   22  C11 UNL     1      25.717   2.053  51.640  1.00  0.00     0.183 A 
HETATM   23  N3  UNL     1      27.008   2.400  51.811  1.00  0.00    -0.217 NA
HETATM   24  C12 UNL     1      27.768   1.914  52.781  1.00  0.00     0.236 A 
HETATM   25  N4  UNL     1      27.244   1.037  53.638  1.00  0.00    -0.241 NA
HETATM   26  C13 UNL     1      25.959   0.633  53.541  1.00  0.00     0.071 A 
HETATM   27  C14 UNL     1      25.168   1.138  52.532  1.00  0.00     0.046 A 
HETATM   28  C20 UNL     1      25.703  -0.226  54.501  1.00  0.00     0.032 C 
HETATM   29  C15 UNL     1      23.919   0.997  52.122  1.00  0.00     0.027 C 
HETATM   30  C16 UNL     1      22.770   0.210  52.573  1.00  0.00    -0.039 C 
HETATM   31  C17 UNL     1      21.692   0.194  51.550  1.00  0.00     0.050 C 
HETATM   32  C18 UNL     1      22.551  -0.463  53.706  1.00  0.00     0.141 C 
HETATM   33  O4  UNL     1      23.342  -0.640  54.831  1.00  0.00    -0.359 OA
HETATM   34  C19 UNL     1      24.641  -1.080  55.074  1.00  0.00     0.204 C 
ENDBRANCH  21  22
ENDBRANCH   4  21
TORSDOF 5
ENDMDL
MODEL 8
REMARK VINA RESULT:      -8.3      6.443     10.448
REMARK  5 active torsions:
REMARK  status: ('A' for Active; 'I' for Inactive)
REMARK    1  A    between atoms: O1_2  and  C2_3 
REMARK    2  A    between atoms: C5_6  and  N1_7 
REMARK       I    between atoms: N1_7  and  C6_8 
REMARK       I    between atoms: C6_8  and  N2_10 
REMARK    3  A    between atoms: N2_10  and  C7_11 
REMARK    4  A    between atoms: C10_14  and  O3_15 
REMARK    5  A    between atoms: O3_15  and  C11_16 
ROOT
HETATM    1  C7  UNL     1      19.944   0.792  52.135  1.00  0.00     0.036 A 
HETATM    2  C8  UNL     1      19.237  -0.099  52.896  1.00  0.00     0.032 A 
HETATM    3  C9  UNL     1      18.052  -0.695  52.528  1.00  0.00     0.039 A 
HETATM    4  C10 UNL     1      17.506  -0.390  51.299  1.00  0.00     0.078 A 
HETATM    5  C21 UNL     1      18.196   0.506  50.510  1.00  0.00     0.039 A 
HETATM    6  C22 UNL     1      19.371   1.074  50.917  1.00  0.00     0.032 A 
ENDROOT
BRANCH   1   7
HETATM    7  N2  UNL     1      21.163   1.427  52.474  1.00  0.00    -0.309 N 
HETATM    8  C6  UNL     1      22.443   0.879  52.650  1.00  0.00     0.325 C 
HETATM    9  N1  UNL     1      23.598   1.598  52.989  1.00  0.00    -0.309 N 
HETATM   10  O2  UNL     1      22.608  -0.339  52.504  1.00  0.00    -0.247 OA
HETATM   11  H6  UNL     1      23.528   2.644  53.129  1.00  0.00     0.170 HD
HETATM   12  H7  UNL     1      21.165   2.467  52.627  1.00  0.00     0.170 HD
BRANCH   9  13
HETATM   13  C5  UNL     1      24.753   0.755  53.097  1.00  0.00     0.036 A 
HETATM   14  C4  UNL     1      25.645   0.832  52.029  1.00  0.00     0.032 A 
HETATM   15  C3  UNL     1      26.797   0.042  52.058  1.00  0.00     0.039 A 
HETATM   16  C2  UNL     1      27.027  -0.801  53.151  1.00  0.00     0.068 A 
HETATM   17  C24 UNL     1      26.104  -0.828  54.177  1.00  0.00     0.039 A 
HETATM   18  C23 UNL     1      24.949  -0.066  54.193  1.00  0.00     0.032 A 
BRANCH  16  19
HETATM   19  O1  UNL     1      28.142  -1.621  53.270  1.00  0.00    -0.356 OA
HETATM   20  C1  UNL     1      29.439  -1.136  53.540  1.00  0.00     0.210 C 
ENDBRANCH  16  19
ENDBRANCH   9  13
ENDBRANCH   1   7
BRANCH   4  21
HETATM   21  O3  UNL     1      16.312  -0.989  50.926  1.00  0.00    -0.291 OA
BRANCH  21  22
HETATM   22  C11 UNL     1      15.156  -0.479  51.545  1.00  0.00     0.183 A 
HETATM   23  N3  UNL     1      14.811   0.815  51.397  1.00  0.00    -0.217 NA
HETATM   24  C12 UNL     1      13.735   1.348  51.957  1.00  0.00     0.236 A 
HETATM   25  N4  UNL     1      12.945   0.579  52.707  1.00  0.00    -0.241 NA
HETATM   26  C13 UNL     1      13.215  -0.728  52.909  1.00  0.00     0.071 A 
HETATM   27  C14 UNL     1      14.334  -1.284  52.327  1.00  0.00     0.046 A 
HETATM   28  C20 UNL     1      12.286  -1.247  53.680  1.00  0.00     0.032 C 
HETATM   29  C15 UNL     1      14.914  -2.471  52.288  1.00  0.00     0.027 C 
HETATM   30  C16 UNL     1      14.616  -3.781  52.868  1.00  0.00    -0.039 C 
HETATM   31  C17 UNL     1      15.780  -4.699  52.756  1.00  0.00     0.050 C 
HETATM   32  C18 UNL     1      13.513  -4.258  53.454  1.00  0.00     0.141 C 
HETATM   33  O4  UNL     1      12.286  -3.666  53.707  1.00  0.00    -0.359 OA
HETATM   34  C19 UNL     1      11.854  -2.499  54.334  1.00  0.00     0.204 C 
ENDBRANCH  21  22
ENDBRANCH   4  21
TORSDOF 5
ENDMDL
MODEL 9
REMARK VINA RESULT:      -8.2      4.074      5.163
REMARK  5 active torsions:
REMARK  status: ('A' for Active; 'I' for Inactive)
REMARK    1  A    between atoms: O1_2  and  C2_3 
REMARK    2  A    between atoms: C5_6  and  N1_7 
REMARK       I    between atoms: N1_7  and  C6_8 
REMARK       I    between atoms: C6_8  and  N2_10 
REMARK    3  A    between atoms: N2_10  and  C7_11 
REMARK    4  A    between atoms: C10_14  and  O3_15 
REMARK    5  A    between atoms: O3_15  and  C11_16 
ROOT
HETATM    1  C7  UNL     1      25.663   6.021  50.075  1.00  0.00     0.036 A 
HETATM    2  C8  UNL     1      25.982   4.881  49.389  1.00  0.00     0.032 A 
HETATM    3  C9  UNL     1      25.281   3.697  49.443  1.00  0.00     0.039 A 
HETATM    4  C10 UNL     1      24.161   3.622  50.244  1.00  0.00     0.078 A 
HETATM    5  C21 UNL     1      23.815   4.756  50.948  1.00  0.00     0.039 A 
HETATM    6  C22 UNL     1      24.542   5.910  50.863  1.00  0.00     0.032 A 
ENDROOT
BRANCH   1   7
HETATM    7  N2  UNL     1      26.353   7.256  50.048  1.00  0.00    -0.309 N 
HETATM    8  C6  UNL     1      26.284   8.305  49.118  1.00  0.00     0.325 C 
HETATM    9  N1  UNL     1      27.016   9.499  49.180  1.00  0.00    -0.309 N 
HETATM   10  O2  UNL     1      25.523   8.207  48.147  1.00  0.00    -0.247 OA
HETATM   11  H6  UNL     1      27.686   9.649  49.985  1.00  0.00     0.170 HD
HETATM   12  H7  UNL     1      27.035   7.470  50.819  1.00  0.00     0.170 HD
BRANCH   9  13
HETATM   13  C5  UNL     1      26.725  10.375  48.083  1.00  0.00     0.036 A 
HETATM   14  C4  UNL     1      27.550  10.225  46.970  1.00  0.00     0.032 A 
HETATM   15  C3  UNL     1      27.331  11.041  45.857  1.00  0.00     0.039 A 
HETATM   16  C2  UNL     1      26.296  11.983  45.886  1.00  0.00     0.068 A 
HETATM   17  C24 UNL     1      25.515  12.079  47.020  1.00  0.00     0.039 A 
HETATM   18  C23 UNL     1      25.692  11.294  48.145  1.00  0.00     0.032 A 
BRANCH  16  19
HETATM   19  O1  UNL     1      26.002  12.836  44.830  1.00  0.00    -0.356 OA
HETATM   20  C1  UNL     1      24.975  13.803  44.873  1.00  0.00     0.210 C 
ENDBRANCH  16  19
ENDBRANCH   9  13
ENDBRANCH   1   7
BRANCH   4  21
HETATM   21  O3  UNL     1      23.453   2.430  50.300  1.00  0.00    -0.291 OA
BRANCH  21  22
HETATM   22  C11 UNL     1      23.740   1.603  51.402  1.00  0.00     0.183 A 
HETATM   23  N3  UNL     1      24.992   1.524  51.894  1.00  0.00    -0.217 NA
HETATM   24  C12 UNL     1      25.319   0.763  52.928  1.00  0.00     0.236 A 
HETATM   25  N4  UNL     1      24.374   0.033  53.521  1.00  0.00    -0.241 NA
HETATM   26  C13 UNL     1      23.093   0.051  53.094  1.00  0.00     0.071 A 
HETATM   27  C14 UNL     1      22.752   0.842  52.018  1.00  0.00     0.046 A 
HETATM   28  C20 UNL     1      22.376  -0.752  53.846  1.00  0.00     0.032 C 
HETATM   29  C15 UNL     1      21.656   1.121  51.333  1.00  0.00     0.027 C 
HETATM   30  C16 UNL     1      20.258   0.696  51.410  1.00  0.00    -0.039 C 
HETATM   31  C17 UNL     1      19.508   1.082  50.187  1.00  0.00     0.050 C 
HETATM   32  C18 UNL     1      19.585   0.046  52.365  1.00  0.00     0.141 C 
HETATM   33  O4  UNL     1      19.989  -0.442  53.597  1.00  0.00    -0.359 OA
HETATM   34  C19 UNL     1      21.009  -1.275  54.052  1.00  0.00     0.204 C 
ENDBRANCH  21  22
ENDBRANCH   4  21
TORSDOF 5
ENDMDL
