MODEL 1
REMARK VINA RESULT:     -10.4      0.000      0.000
REMARK  1 active torsions:
REMARK  status: ('A' for Active; 'I' for Inactive)
REMARK    1  A    between atoms: N3_9  and  C7_10 
ROOT
HETATM    1  C1  UNL     1      20.118   1.174  51.181  1.00  0.00    -0.000 C 
HETATM    2  C2  UNL     1      20.198   2.121  50.201  1.00  0.00    -0.000 C 
HETATM    3  C3  UNL     1      21.543   2.589  50.019  1.00  0.00    -0.001 C 
HETATM    4  C4  UNL     1      22.734   3.126  49.727  1.00  0.00     0.015 C 
HETATM    5  C5  UNL     1      23.852   2.628  50.495  1.00  0.00     0.140 A 
HETATM    6  N1  UNL     1      24.612   3.352  49.824  1.00  0.00    -0.257 NA
HETATM    7  C6  UNL     1      25.944   3.731  49.648  1.00  0.00     0.251 A 
HETATM    8  N2  UNL     1      26.763   3.163  50.439  1.00  0.00    -0.161 NA
HETATM    9  N3  UNL     1      26.287   2.231  51.399  1.00  0.00    -0.239 N 
HETATM   10  C17 UNL     1      24.932   2.130  51.258  1.00  0.00     0.076 A 
HETATM   11  C18 UNL     1      24.052   1.477  51.848  1.00  0.00     0.168 A 
HETATM   12  N4  UNL     1      23.372   0.580  52.741  1.00  0.00    -0.406 N 
HETATM   13  C19 UNL     1      22.700  -0.383  53.521  1.00  0.00     0.142 C 
HETATM   14  C20 UNL     1      21.247  -0.473  53.182  1.00  0.00    -0.008 C 
HETATM   15  C21 UNL     1      20.765   0.354  52.200  1.00  0.00    -0.002 C 
HETATM   16  H16 UNL     1      23.284   1.336  53.530  1.00  0.00     0.154 HD
ENDROOT
BRANCH   9  17
HETATM   17  C7  UNL     1      26.985   1.500  52.365  1.00  0.00     0.044 A 
HETATM   18  C8  UNL     1      27.213   0.312  52.859  1.00  0.00    -0.025 A 
HETATM   19  C9  UNL     1      26.798  -1.049  52.623  1.00  0.00     0.010 C 
HETATM   20  C15 UNL     1      28.110   0.933  53.838  1.00  0.00     0.049 A 
HETATM   21  C10 UNL     1      27.256  -2.280  52.669  1.00  0.00     0.001 C 
HETATM   22  C11 UNL     1      28.617  -2.755  53.046  1.00  0.00     0.000 C 
HETATM   23  C12 UNL     1      29.768  -2.134  53.411  1.00  0.00    -0.000 C 
HETATM   24  C13 UNL     1      30.094  -0.729  53.565  1.00  0.00    -0.003 C 
HETATM   25  C14 UNL     1      29.533   0.481  53.729  1.00  0.00    -0.017 C 
HETATM   26  C16 UNL     1      27.886   2.295  53.300  1.00  0.00     0.073 A 
ENDBRANCH   9  17
TORSDOF 1
ENDMDL
MODEL 2
REMARK VINA RESULT:     -10.4      1.114      1.453
REMARK  1 active torsions:
REMARK  status: ('A' for Active; 'I' for Inactive)
REMARK    1  A    between atoms: N3_9  and  C7_10 
ROOT
HETATM    1  C1  UNL     1      19.228  -0.258  52.481  1.00  0.00    -0.000 C 
HETATM    2  C2  UNL     1      19.040   0.604  51.439  1.00  0.00    -0.000 C 
HETATM    3  C3  UNL     1      20.265   1.243  51.046  1.00  0.00    -0.001 C 
HETATM    4  C4  UNL     1      21.313   1.917  50.560  1.00  0.00     0.015 C 
HETATM    5  C5  UNL     1      22.581   1.652  51.200  1.00  0.00     0.140 A 
HETATM    6  N1  UNL     1      23.132   2.416  50.386  1.00  0.00    -0.257 NA
HETATM    7  C6  UNL     1      24.358   2.966  50.006  1.00  0.00     0.251 A 
HETATM    8  N2  UNL     1      25.346   2.591  50.714  1.00  0.00    -0.161 NA
HETATM    9  N3  UNL     1      25.142   1.685  51.789  1.00  0.00    -0.239 N 
HETATM   10  C17 UNL     1      23.811   1.379  51.841  1.00  0.00     0.076 A 
HETATM   11  C18 UNL     1      23.122   0.660  52.586  1.00  0.00     0.168 A 
HETATM   12  N4  UNL     1      22.704  -0.245  53.621  1.00  0.00    -0.406 N 
HETATM   13  C19 UNL     1      22.290  -1.225  54.546  1.00  0.00     0.142 C 
HETATM   14  C20 UNL     1      20.836  -1.550  54.414  1.00  0.00    -0.008 C 
HETATM   15  C21 UNL     1      20.115  -0.887  53.455  1.00  0.00    -0.002 C 
HETATM   16  H16 UNL     1      22.600   0.555  54.362  1.00  0.00     0.154 HD
ENDROOT
BRANCH   9  17
HETATM   17  C7  UNL     1      26.058   1.147  52.698  1.00  0.00     0.044 A 
HETATM   18  C8  UNL     1      26.664   0.061  53.098  1.00  0.00    -0.025 A 
HETATM   19  C9  UNL     1      26.700  -1.339  52.758  1.00  0.00     0.010 C 
HETATM   20  C15 UNL     1      27.338   0.862  54.124  1.00  0.00     0.049 A 
HETATM   21  C10 UNL     1      27.528  -2.359  52.710  1.00  0.00     0.001 C 
HETATM   22  C11 UNL     1      28.977  -2.400  53.052  1.00  0.00     0.000 C 
HETATM   23  C12 UNL     1      29.878  -1.472  53.466  1.00  0.00    -0.000 C 
HETATM   24  C13 UNL     1      29.742  -0.052  53.729  1.00  0.00    -0.003 C 
HETATM   25  C14 UNL     1      28.828   0.899  53.984  1.00  0.00    -0.017 C 
HETATM   26  C16 UNL     1      26.679   2.117  53.693  1.00  0.00     0.073 A 
ENDBRANCH   9  17
TORSDOF 1
ENDMDL
MODEL 3
REMARK VINA RESULT:      -9.6      2.145      5.938
REMARK  1 active torsions:
REMARK  status: ('A' for Active; 'I' for Inactive)
REMARK    1  A    between atoms: N3_9  and  C7_10 
ROOT
HETATM    1  C1  UNL     1      21.766  -0.821  54.748  1.00  0.00    -0.000 C 
HETATM    2  C2  UNL     1      22.847  -1.416  55.332  1.00  0.00    -0.000 C 
HETATM    3  C3  UNL     1      24.084  -0.889  54.830  1.00  0.00    -0.001 C 
HETATM    4  C4  UNL     1      25.314  -0.505  54.470  1.00  0.00     0.015 C 
HETATM    5  C5  UNL     1      25.379   0.539  53.473  1.00  0.00     0.140 A 
HETATM    6  N1  UNL     1      26.621   0.531  53.571  1.00  0.00    -0.257 NA
HETATM    7  C6  UNL     1      27.795   1.117  53.092  1.00  0.00     0.251 A 
HETATM    8  N2  UNL     1      27.613   2.019  52.214  1.00  0.00    -0.161 NA
HETATM    9  N3  UNL     1      26.294   2.349  51.802  1.00  0.00    -0.239 N 
HETATM   10  C17 UNL     1      25.422   1.560  52.497  1.00  0.00     0.076 A 
HETATM   11  C18 UNL     1      24.183   1.443  52.501  1.00  0.00     0.168 A 
HETATM   12  N4  UNL     1      22.784   1.620  52.220  1.00  0.00    -0.406 N 
HETATM   13  C19 UNL     1      21.405   1.859  52.053  1.00  0.00     0.142 C 
HETATM   14  C20 UNL     1      20.569   1.013  52.959  1.00  0.00    -0.008 C 
HETATM   15  C21 UNL     1      21.215   0.145  53.802  1.00  0.00    -0.002 C 
HETATM   16  H16 UNL     1      22.807   0.931  51.368  1.00  0.00     0.154 HD
ENDROOT
BRANCH   9  17
HETATM   17  C7  UNL     1      25.853   3.284  50.861  1.00  0.00     0.044 A 
HETATM   18  C8  UNL     1      25.004   4.246  50.615  1.00  0.00    -0.025 A 
HETATM   19  C9  UNL     1      23.930   4.931  51.291  1.00  0.00     0.010 C 
HETATM   20  C15 UNL     1      25.586   4.367  49.276  1.00  0.00     0.049 A 
HETATM   21  C10 UNL     1      23.375   6.118  51.388  1.00  0.00     0.001 C 
HETATM   22  C11 UNL     1      23.758   7.384  50.702  1.00  0.00     0.000 C 
HETATM   23  C12 UNL     1      24.747   7.731  49.838  1.00  0.00    -0.000 C 
HETATM   24  C13 UNL     1      25.828   6.958  49.256  1.00  0.00    -0.003 C 
HETATM   25  C14 UNL     1      26.219   5.697  49.007  1.00  0.00    -0.017 C 
HETATM   26  C16 UNL     1      26.572   3.289  49.518  1.00  0.00     0.073 A 
ENDBRANCH   9  17
TORSDOF 1
ENDMDL
MODEL 4
REMARK VINA RESULT:      -9.2      1.542      4.066
REMARK  1 active torsions:
REMARK  status: ('A' for Active; 'I' for Inactive)
REMARK    1  A    between atoms: N3_9  and  C7_10 
ROOT
HETATM    1  C1  UNL     1      20.456   4.029  50.763  1.00  0.00    -0.000 C 
HETATM    2  C2  UNL     1      19.515   3.458  51.570  1.00  0.00    -0.000 C 
HETATM    3  C3  UNL     1      20.060   2.387  52.355  1.00  0.00    -0.001 C 
HETATM    4  C4  UNL     1      20.413   1.373  53.154  1.00  0.00     0.015 C 
HETATM    5  C5  UNL     1      21.801   0.976  53.087  1.00  0.00     0.140 A 
HETATM    6  N1  UNL     1      21.585   0.138  53.984  1.00  0.00    -0.257 NA
HETATM    7  C6  UNL     1      22.177  -0.856  54.766  1.00  0.00     0.251 A 
HETATM    8  N2  UNL     1      23.415  -1.038  54.536  1.00  0.00    -0.161 NA
HETATM    9  N3  UNL     1      24.074  -0.258  53.549  1.00  0.00    -0.239 N 
HETATM   10  C17 UNL     1      23.161   0.601  53.006  1.00  0.00     0.076 A 
HETATM   11  C18 UNL     1      23.218   1.467  52.115  1.00  0.00     0.168 A 
HETATM   12  N4  UNL     1      23.689   2.346  51.081  1.00  0.00    -0.406 N 
HETATM   13  C19 UNL     1      24.154   3.302  50.154  1.00  0.00     0.142 C 
HETATM   14  C20 UNL     1      23.080   4.253  49.733  1.00  0.00    -0.008 C 
HETATM   15  C21 UNL     1      21.830   4.087  50.272  1.00  0.00    -0.002 C 
HETATM   16  H16 UNL     1      23.532   1.602  50.292  1.00  0.00     0.154 HD
ENDROOT
BRANCH   9  17
HETATM   17  C7  UNL     1      25.405  -0.285  53.122  1.00  0.00     0.044 A 
HETATM   18  C8  UNL     1      26.499   0.411  52.965  1.00  0.00    -0.025 A 
HETATM   19  C9  UNL     1      26.956   1.761  53.183  1.00  0.00     0.010 C 
HETATM   20  C15 UNL     1      27.140  -0.789  52.420  1.00  0.00     0.049 A 
HETATM   21  C10 UNL     1      28.030   2.435  53.530  1.00  0.00     0.001 C 
HETATM   22  C11 UNL     1      29.381   1.916  53.885  1.00  0.00     0.000 C 
HETATM   23  C12 UNL     1      29.918   0.674  53.995  1.00  0.00    -0.000 C 
HETATM   24  C13 UNL     1      29.340  -0.643  53.802  1.00  0.00    -0.003 C 
HETATM   25  C14 UNL     1      28.304  -1.276  53.226  1.00  0.00    -0.017 C 
HETATM   26  C16 UNL     1      25.923  -1.615  52.592  1.00  0.00     0.073 A 
ENDBRANCH   9  17
TORSDOF 1
ENDMDL
MODEL 5
REMARK VINA RESULT:      -9.0      2.687      5.906
REMARK  1 active torsions:
REMARK  status: ('A' for Active; 'I' for Inactive)
REMARK    1  A    between atoms: N3_9  and  C7_10 
ROOT
HETATM    1  C1  UNL     1      22.830  -0.785  54.052  1.00  0.00    -0.000 C 
HETATM    2  C2  UNL     1      21.473  -0.739  53.907  1.00  0.00    -0.000 C 
HETATM    3  C3  UNL     1      21.045   0.467  53.257  1.00  0.00    -0.001 C 
HETATM    4  C4  UNL     1      20.488   1.530  52.666  1.00  0.00     0.015 C 
HETATM    5  C5  UNL     1      21.405   2.551  52.217  1.00  0.00     0.140 A 
HETATM    6  N1  UNL     1      20.442   3.184  51.745  1.00  0.00    -0.257 NA
HETATM    7  C6  UNL     1      20.083   4.346  51.058  1.00  0.00     0.251 A 
HETATM    8  N2  UNL     1      21.059   5.106  50.762  1.00  0.00    -0.161 NA
HETATM    9  N3  UNL     1      22.380   4.738  51.133  1.00  0.00    -0.239 N 
HETATM   10  C17 UNL     1      22.320   3.540  51.787  1.00  0.00     0.076 A 
HETATM   11  C18 UNL     1      23.172   2.805  52.317  1.00  0.00     0.168 A 
HETATM   12  N4  UNL     1      24.416   2.259  52.786  1.00  0.00    -0.406 N 
HETATM   13  C19 UNL     1      25.632   1.644  53.146  1.00  0.00     0.142 C 
HETATM   14  C20 UNL     1      25.428   0.288  53.742  1.00  0.00    -0.008 C 
HETATM   15  C21 UNL     1      24.141  -0.172  53.862  1.00  0.00    -0.002 C 
HETATM   16  H16 UNL     1      24.382   2.828  53.722  1.00  0.00     0.154 HD
ENDROOT
BRANCH   9  17
HETATM   17  C7  UNL     1      23.591   5.406  50.929  1.00  0.00     0.044 A 
HETATM   18  C8  UNL     1      24.852   5.275  50.616  1.00  0.00    -0.025 A 
HETATM   19  C9  UNL     1      25.772   4.218  50.276  1.00  0.00     0.010 C 
HETATM   20  C15 UNL     1      25.003   6.725  50.773  1.00  0.00     0.049 A 
HETATM   21  C10 UNL     1      26.820   3.978  49.520  1.00  0.00     0.001 C 
HETATM   22  C11 UNL     1      27.525   4.900  48.585  1.00  0.00     0.000 C 
HETATM   23  C12 UNL     1      27.329   6.187  48.198  1.00  0.00    -0.000 C 
HETATM   24  C13 UNL     1      26.319   7.159  48.571  1.00  0.00    -0.003 C 
HETATM   25  C14 UNL     1      25.405   7.433  49.517  1.00  0.00    -0.017 C 
HETATM   26  C16 UNL     1      23.576   6.916  51.121  1.00  0.00     0.073 A 
ENDBRANCH   9  17
TORSDOF 1
ENDMDL
MODEL 6
REMARK VINA RESULT:      -8.8      2.682      5.492
REMARK  1 active torsions:
REMARK  status: ('A' for Active; 'I' for Inactive)
REMARK    1  A    between atoms: N3_9  and  C7_10 
ROOT
HETATM    1  C1  UNL     1      26.179   7.927  48.045  1.00  0.00    -0.000 C 
HETATM    2  C2  UNL     1      25.001   8.543  48.355  1.00  0.00    -0.000 C 
HETATM    3  C3  UNL     1      24.199   7.749  49.242  1.00  0.00    -0.001 C 
HETATM    4  C4  UNL     1      23.338   7.136  50.063  1.00  0.00     0.015 C 
HETATM    5  C5  UNL     1      23.758   5.847  50.562  1.00  0.00     0.140 A 
HETATM    6  N1  UNL     1      22.716   5.792  51.244  1.00  0.00    -0.257 NA
HETATM    7  C6  UNL     1      22.001   5.007  52.151  1.00  0.00     0.251 A 
HETATM    8  N2  UNL     1      22.562   3.906  52.451  1.00  0.00    -0.161 NA
HETATM    9  N3  UNL     1      23.814   3.568  51.870  1.00  0.00    -0.239 N 
HETATM   10  C17 UNL     1      24.185   4.587  51.039  1.00  0.00     0.076 A 
HETATM   11  C18 UNL     1      25.165   4.778  50.297  1.00  0.00     0.168 A 
HETATM   12  N4  UNL     1      26.413   4.624  49.600  1.00  0.00    -0.406 N 
HETATM   13  C19 UNL     1      27.688   4.554  49.002  1.00  0.00     0.142 C 
HETATM   14  C20 UNL     1      28.015   5.784  48.218  1.00  0.00    -0.008 C 
HETATM   15  C21 UNL     1      27.079   6.786  48.177  1.00  0.00    -0.002 C 
HETATM   16  H16 UNL     1      25.955   4.057  48.782  1.00  0.00     0.154 HD
ENDROOT
BRANCH   9  17
HETATM   17  C7  UNL     1      24.605   2.428  52.037  1.00  0.00     0.044 A 
HETATM   18  C8  UNL     1      25.812   1.978  52.254  1.00  0.00    -0.025 A 
HETATM   19  C9  UNL     1      27.137   2.508  52.458  1.00  0.00     0.010 C 
HETATM   20  C15 UNL     1      25.275   0.615  52.187  1.00  0.00     0.049 A 
HETATM   21  C10 UNL     1      28.245   2.266  53.123  1.00  0.00     0.001 C 
HETATM   22  C11 UNL     1      28.539   1.153  54.069  1.00  0.00     0.000 C 
HETATM   23  C12 UNL     1      27.819   0.110  54.556  1.00  0.00    -0.000 C 
HETATM   24  C13 UNL     1      26.449  -0.304  54.320  1.00  0.00    -0.003 C 
HETATM   25  C14 UNL     1      25.427  -0.160  53.459  1.00  0.00    -0.017 C 
HETATM   26  C16 UNL     1      23.891   1.086  51.951  1.00  0.00     0.073 A 
ENDBRANCH   9  17
TORSDOF 1
ENDMDL
MODEL 7
REMARK VINA RESULT:      -8.8      2.155      6.143
REMARK  1 active torsions:
REMARK  status: ('A' for Active; 'I' for Inactive)
REMARK    1  A    between atoms: N3_9  and  C7_10 
ROOT
HETATM    1  C1  UNL     1      21.548  -0.979  54.514  1.00  0.00    -0.000 C 
HETATM    2  C2  UNL     1      22.732  -1.397  55.049  1.00  0.00    -0.000 C 
HETATM    3  C3  UNL     1      23.856  -0.757  54.426  1.00  0.00    -0.001 C 
HETATM    4  C4  UNL     1      25.001  -0.252  53.951  1.00  0.00     0.015 C 
HETATM    5  C5  UNL     1      24.866   0.723  52.893  1.00  0.00     0.140 A 
HETATM    6  N1  UNL     1      26.102   0.873  52.898  1.00  0.00    -0.257 NA
HETATM    7  C6  UNL     1      27.157   1.564  52.298  1.00  0.00     0.251 A 
HETATM    8  N2  UNL     1      26.803   2.376  51.385  1.00  0.00    -0.161 NA
HETATM    9  N3  UNL     1      25.429   2.513  51.054  1.00  0.00    -0.239 N 
HETATM   10  C17 UNL     1      24.712   1.673  51.858  1.00  0.00     0.076 A 
HETATM   11  C18 UNL     1      23.502   1.406  51.962  1.00  0.00     0.168 A 
HETATM   12  N4  UNL     1      22.076   1.391  51.777  1.00  0.00    -0.406 N 
HETATM   13  C19 UNL     1      20.670   1.448  51.701  1.00  0.00     0.142 C 
HETATM   14  C20 UNL     1      20.010   0.569  52.716  1.00  0.00    -0.008 C 
HETATM   15  C21 UNL     1      20.816  -0.154  53.558  1.00  0.00    -0.002 C 
HETATM   16  H16 UNL     1      22.128   0.653  50.969  1.00  0.00     0.154 HD
ENDROOT
BRANCH   9  17
HETATM   17  C7  UNL     1      24.811   3.321  50.095  1.00  0.00     0.044 A 
HETATM   18  C8  UNL     1      23.929   3.366  49.133  1.00  0.00    -0.025 A 
HETATM   19  C9  UNL     1      23.010   2.472  48.473  1.00  0.00     0.010 C 
HETATM   20  C15 UNL     1      24.262   4.781  48.944  1.00  0.00     0.049 A 
HETATM   21  C10 UNL     1      21.823   2.458  47.909  1.00  0.00     0.001 C 
HETATM   22  C11 UNL     1      20.856   3.580  47.746  1.00  0.00     0.000 C 
HETATM   23  C12 UNL     1      20.850   4.885  48.118  1.00  0.00    -0.000 C 
HETATM   24  C13 UNL     1      21.823   5.682  48.841  1.00  0.00    -0.003 C 
HETATM   25  C14 UNL     1      23.118   5.713  49.198  1.00  0.00    -0.017 C 
HETATM   26  C16 UNL     1      25.263   4.774  50.036  1.00  0.00     0.073 A 
ENDBRANCH   9  17
TORSDOF 1
ENDMDL
MODEL 8
REMARK VINA RESULT:      -8.5      3.034      6.704
REMARK  1 active torsions:
REMARK  status: ('A' for Active; 'I' for Inactive)
REMARK    1  A    between atoms: N3_9  and  C7_10 
ROOT
HETATM    1  C1  UNL     1      27.456   7.919  48.509  1.00  0.00    -0.000 C 
HETATM    2  C2  UNL     1      26.625   8.980  48.724  1.00  0.00    -0.000 C 
HETATM    3  C3  UNL     1      25.346   8.565  49.228  1.00  0.00    -0.001 C 
HETATM    4  C4  UNL     1      24.115   8.343  49.701  1.00  0.00     0.015 C 
HETATM    5  C5  UNL     1      23.778   6.960  49.952  1.00  0.00     0.140 A 
HETATM    6  N1  UNL     1      22.671   7.328  50.390  1.00  0.00    -0.257 NA
HETATM    7  C6  UNL     1      21.466   6.876  50.932  1.00  0.00     0.251 A 
HETATM    8  N2  UNL     1      21.388   5.614  51.065  1.00  0.00    -0.161 NA
HETATM    9  N3  UNL     1      22.478   4.792  50.670  1.00  0.00    -0.239 N 
HETATM   10  C17 UNL     1      23.468   5.602  50.190  1.00  0.00     0.076 A 
HETATM   11  C18 UNL     1      24.599   5.390  49.716  1.00  0.00     0.168 A 
HETATM   12  N4  UNL     1      25.797   4.745  49.254  1.00  0.00    -0.406 N 
HETATM   13  C19 UNL     1      27.026   4.147  48.911  1.00  0.00     0.142 C 
HETATM   14  C20 UNL     1      28.058   5.156  48.517  1.00  0.00    -0.008 C 
HETATM   15  C21 UNL     1      27.699   6.480  48.536  1.00  0.00    -0.002 C 
HETATM   16  H16 UNL     1      25.388   4.568  48.253  1.00  0.00     0.154 HD
ENDROOT
BRANCH   9  17
HETATM   17  C7  UNL     1      22.617   3.402  50.711  1.00  0.00     0.044 A 
HETATM   18  C8  UNL     1      23.304   2.404  51.198  1.00  0.00    -0.025 A 
HETATM   19  C9  UNL     1      24.436   2.199  52.068  1.00  0.00     0.010 C 
HETATM   20  C15 UNL     1      22.434   1.490  50.452  1.00  0.00     0.049 A 
HETATM   21  C10 UNL     1      24.892   1.363  52.974  1.00  0.00     0.001 C 
HETATM   22  C11 UNL     1      24.258   0.121  53.498  1.00  0.00     0.000 C 
HETATM   23  C12 UNL     1      23.077  -0.509  53.267  1.00  0.00    -0.000 C 
HETATM   24  C13 UNL     1      21.967  -0.178  52.394  1.00  0.00    -0.003 C 
HETATM   25  C14 UNL     1      21.643   0.561  51.320  1.00  0.00    -0.017 C 
HETATM   26  C16 UNL     1      21.624   2.594  49.887  1.00  0.00     0.073 A 
ENDBRANCH   9  17
TORSDOF 1
ENDMDL
MODEL 9
REMARK VINA RESULT:      -8.4      2.820      4.831
REMARK  1 active torsions:
REMARK  status: ('A' for Active; 'I' for Inactive)
REMARK    1  A    between atoms: N3_9  and  C7_10 
ROOT
HETATM    1  C1  UNL     1      19.116  -1.788  53.811  1.00  0.00    -0.000 C 
HETATM    2  C2  UNL     1      18.013  -1.546  53.043  1.00  0.00    -0.000 C 
HETATM    3  C3  UNL     1      18.261  -0.537  52.052  1.00  0.00    -0.001 C 
HETATM    4  C4  UNL     1      18.332   0.379  51.080  1.00  0.00     0.015 C 
HETATM    5  C5  UNL     1      19.609   1.037  50.929  1.00  0.00     0.140 A 
HETATM    6  N1  UNL     1      19.153   1.659  49.950  1.00  0.00    -0.257 NA
HETATM    7  C6  UNL     1      19.462   2.603  48.969  1.00  0.00     0.251 A 
HETATM    8  N2  UNL     1      20.651   3.052  49.026  1.00  0.00    -0.161 NA
HETATM    9  N3  UNL     1      21.536   2.584  50.035  1.00  0.00    -0.239 N 
HETATM   10  C17 UNL     1      20.866   1.670  50.798  1.00  0.00     0.076 A 
HETATM   11  C18 UNL     1      21.172   0.990  51.793  1.00  0.00     0.168 A 
HETATM   12  N4  UNL     1      21.899   0.399  52.884  1.00  0.00    -0.406 N 
HETATM   13  C19 UNL     1      22.625  -0.285  53.880  1.00  0.00     0.142 C 
HETATM   14  C20 UNL     1      21.806  -1.339  54.556  1.00  0.00    -0.008 C 
HETATM   15  C21 UNL     1      20.508  -1.504  54.145  1.00  0.00    -0.002 C 
HETATM   16  H16 UNL     1      21.659   1.220  53.568  1.00  0.00     0.154 HD
ENDROOT
BRANCH   9  17
HETATM   17  C7  UNL     1      22.864   2.932  50.298  1.00  0.00     0.044 A 
HETATM   18  C8  UNL     1      23.755   3.150  51.228  1.00  0.00    -0.025 A 
HETATM   19  C9  UNL     1      23.832   3.142  52.668  1.00  0.00     0.010 C 
HETATM   20  C15 UNL     1      24.727   3.450  50.173  1.00  0.00     0.049 A 
HETATM   21  C10 UNL     1      24.662   2.861  53.647  1.00  0.00     0.001 C 
HETATM   22  C11 UNL     1      26.062   2.355  53.565  1.00  0.00     0.000 C 
HETATM   23  C12 UNL     1      26.884   2.008  52.541  1.00  0.00    -0.000 C 
HETATM   24  C13 UNL     1      26.680   2.003  51.105  1.00  0.00    -0.003 C 
HETATM   25  C14 UNL     1      25.896   2.514  50.141  1.00  0.00    -0.017 C 
HETATM   26  C16 UNL     1      23.749   3.201  49.089  1.00  0.00     0.073 A 
ENDBRANCH   9  17
TORSDOF 1
ENDMDL
