MODEL 1
REMARK VINA RESULT:      -7.7      0.000      0.000
REMARK  5 active torsions:
REMARK  status: ('A' for Active; 'I' for Inactive)
REMARK    1  A    between atoms: O1_2  and  C2_3 
REMARK    2  A    between atoms: C5_6  and  C6_7 
REMARK    3  A    between atoms: C6_7  and  C7_8 
REMARK       I    between atoms: C7_8  and  N1_10 
REMARK    4  A    between atoms: N1_10  and  S1_11 
REMARK    5  A    between atoms: S1_11  and  C8_13 
ROOT
HETATM    1  C7  UNL     1      24.279   2.457  51.677  1.00  0.00     0.233 C 
HETATM    2  O2  UNL     1      24.391   3.285  52.617  1.00  0.00    -0.272 OA
HETATM    3  N1  UNL     1      24.451   1.057  51.861  1.00  0.00    -0.272 N 
HETATM    4  H8  UNL     1      24.370   0.330  51.116  1.00  0.00     0.179 HD
ENDROOT
BRANCH   1   5
HETATM    5  C6  UNL     1      23.960   2.809  50.262  1.00  0.00     0.142 C 
BRANCH   5   6
HETATM    6  C5  UNL     1      24.954   3.766  49.708  1.00  0.00    -0.049 A 
HETATM    7  C4  UNL     1      26.272   3.352  49.593  1.00  0.00     0.010 A 
HETATM    8  C3  UNL     1      27.227   4.207  49.085  1.00  0.00     0.037 A 
HETATM    9  C2  UNL     1      26.892   5.498  48.679  1.00  0.00     0.068 A 
HETATM   10  C15 UNL     1      25.578   5.898  48.799  1.00  0.00     0.037 A 
HETATM   11  C14 UNL     1      24.623   5.046  49.306  1.00  0.00     0.010 A 
BRANCH   9  12
HETATM   12  O1  UNL     1      27.968   6.226  48.192  1.00  0.00    -0.356 OA
HETATM   13  C1  UNL     1      29.295   5.772  48.178  1.00  0.00     0.210 C 
ENDBRANCH   9  12
ENDBRANCH   5   6
ENDBRANCH   1   5
BRANCH   3  14
HETATM   14  S1  UNL     1      24.832   0.351  53.412  1.00  0.00     0.153 S 
HETATM   15  O3  UNL     1      23.847  -0.729  53.805  1.00  0.00    -0.230 OA
BRANCH  14  16
HETATM   16  C8  UNL     1      26.508  -0.126  53.567  1.00  0.00     0.052 A 
HETATM   17  C9  UNL     1      27.304   0.554  54.497  1.00  0.00     0.026 A 
HETATM   18  C10 UNL     1      28.640   0.183  54.629  1.00  0.00     0.044 A 
HETATM   19  C11 UNL     1      29.151  -0.835  53.854  1.00  0.00     0.116 A 
HETATM   20  F1  UNL     1      30.457  -1.195  53.985  1.00  0.00    -0.206 F 
HETATM   21  C12 UNL     1      28.354  -1.497  52.942  1.00  0.00     0.044 A 
HETATM   22  C13 UNL     1      27.025  -1.160  52.780  1.00  0.00     0.026 A 
ENDBRANCH  14  16
ENDBRANCH   3  14
TORSDOF 5
ENDMDL
MODEL 2
REMARK VINA RESULT:      -7.5      2.987      6.517
REMARK  5 active torsions:
REMARK  status: ('A' for Active; 'I' for Inactive)
REMARK    1  A    between atoms: O1_2  and  C2_3 
REMARK    2  A    between atoms: C5_6  and  C6_7 
REMARK    3  A    between atoms: C6_7  and  C7_8 
REMARK       I    between atoms: C7_8  and  N1_10 
REMARK    4  A    between atoms: N1_10  and  S1_11 
REMARK    5  A    between atoms: S1_11  and  C8_13 
ROOT
HETATM    1  C7  UNL     1      23.305   1.195  52.351  1.00  0.00     0.233 C 
HETATM    2  O2  UNL     1      22.695   0.942  51.280  1.00  0.00    -0.272 OA
HETATM    3  N1  UNL     1      23.724   2.507  52.704  1.00  0.00    -0.272 N 
HETATM    4  H8  UNL     1      24.232   2.769  53.578  1.00  0.00     0.179 HD
ENDROOT
BRANCH   1   5
HETATM    5  C6  UNL     1      23.673   0.183  53.384  1.00  0.00     0.142 C 
BRANCH   5   6
HETATM    6  C5  UNL     1      25.149   0.045  53.501  1.00  0.00    -0.049 A 
HETATM    7  C4  UNL     1      25.725   0.185  54.753  1.00  0.00     0.010 A 
HETATM    8  C3  UNL     1      27.091   0.066  54.908  1.00  0.00     0.037 A 
HETATM    9  C2  UNL     1      27.916  -0.197  53.816  1.00  0.00     0.068 A 
HETATM   10  C15 UNL     1      27.331  -0.334  52.575  1.00  0.00     0.037 A 
HETATM   11  C14 UNL     1      25.968  -0.215  52.419  1.00  0.00     0.010 A 
BRANCH   9  12
HETATM   12  O1  UNL     1      29.262  -0.287  54.142  1.00  0.00    -0.356 OA
HETATM   13  C1  UNL     1      30.104  -1.341  53.759  1.00  0.00     0.210 C 
ENDBRANCH   9  12
ENDBRANCH   5   6
ENDBRANCH   1   5
BRANCH   3  14
HETATM   14  S1  UNL     1      23.431   3.896  51.688  1.00  0.00     0.153 S 
HETATM   15  O3  UNL     1      22.915   5.081  52.475  1.00  0.00    -0.230 OA
BRANCH  14  16
HETATM   16  C8  UNL     1      24.769   4.276  50.627  1.00  0.00     0.052 A 
HETATM   17  C9  UNL     1      25.615   3.233  50.233  1.00  0.00     0.026 A 
HETATM   18  C10 UNL     1      26.685   3.524  49.388  1.00  0.00     0.044 A 
HETATM   19  C11 UNL     1      26.890   4.816  48.959  1.00  0.00     0.116 A 
HETATM   20  F1  UNL     1      27.935   5.098  48.134  1.00  0.00    -0.206 F 
HETATM   21  C12 UNL     1      26.047   5.835  49.356  1.00  0.00     0.044 A 
HETATM   22  C13 UNL     1      24.977   5.590  50.191  1.00  0.00     0.026 A 
ENDBRANCH  14  16
ENDBRANCH   3  14
TORSDOF 5
ENDMDL
MODEL 3
REMARK VINA RESULT:      -7.4      3.243      6.804
REMARK  5 active torsions:
REMARK  status: ('A' for Active; 'I' for Inactive)
REMARK    1  A    between atoms: O1_2  and  C2_3 
REMARK    2  A    between atoms: C5_6  and  C6_7 
REMARK    3  A    between atoms: C6_7  and  C7_8 
REMARK       I    between atoms: C7_8  and  N1_10 
REMARK    4  A    between atoms: N1_10  and  S1_11 
REMARK    5  A    between atoms: S1_11  and  C8_13 
ROOT
HETATM    1  C7  UNL     1      24.092   3.218  51.771  1.00  0.00     0.233 C 
HETATM    2  O2  UNL     1      23.839   2.700  50.653  1.00  0.00    -0.272 OA
HETATM    3  N1  UNL     1      24.328   4.611  51.936  1.00  0.00    -0.272 N 
HETATM    4  H8  UNL     1      24.542   5.090  52.839  1.00  0.00     0.179 HD
ENDROOT
BRANCH   1   5
HETATM    5  C6  UNL     1      24.183   2.470  53.059  1.00  0.00     0.142 C 
BRANCH   5   6
HETATM    6  C5  UNL     1      25.386   1.596  53.090  1.00  0.00    -0.049 A 
HETATM    7  C4  UNL     1      25.219   0.240  52.859  1.00  0.00     0.010 A 
HETATM    8  C3  UNL     1      26.307  -0.608  52.878  1.00  0.00     0.037 A 
HETATM    9  C2  UNL     1      27.589  -0.123  53.129  1.00  0.00     0.068 A 
HETATM   10  C15 UNL     1      27.742   1.228  53.358  1.00  0.00     0.037 A 
HETATM   11  C14 UNL     1      26.657   2.075  53.340  1.00  0.00     0.010 A 
BRANCH   9  12
HETATM   12  O1  UNL     1      28.570  -1.105  53.112  1.00  0.00    -0.356 OA
HETATM   13  C1  UNL     1      29.864  -0.946  53.628  1.00  0.00     0.210 C 
ENDBRANCH   9  12
ENDBRANCH   5   6
ENDBRANCH   1   5
BRANCH   3  14
HETATM   14  S1  UNL     1      24.287   5.738  50.603  1.00  0.00     0.153 S 
HETATM   15  O3  UNL     1      23.771   7.098  51.021  1.00  0.00    -0.230 OA
BRANCH  14  16
HETATM   16  C8  UNL     1      25.781   5.794  49.694  1.00  0.00     0.052 A 
HETATM   17  C9  UNL     1      26.273   7.047  49.310  1.00  0.00     0.026 A 
HETATM   18  C10 UNL     1      27.462   7.104  48.585  1.00  0.00     0.044 A 
HETATM   19  C11 UNL     1      28.126   5.942  48.263  1.00  0.00     0.116 A 
HETATM   20  F1  UNL     1      29.288   6.001  47.555  1.00  0.00    -0.206 F 
HETATM   21  C12 UNL     1      27.629   4.713  48.649  1.00  0.00     0.044 A 
HETATM   22  C13 UNL     1      26.456   4.612  49.367  1.00  0.00     0.026 A 
ENDBRANCH  14  16
ENDBRANCH   3  14
TORSDOF 5
ENDMDL
MODEL 4
REMARK VINA RESULT:      -7.0      2.647      3.364
REMARK  5 active torsions:
REMARK  status: ('A' for Active; 'I' for Inactive)
REMARK    1  A    between atoms: O1_2  and  C2_3 
REMARK    2  A    between atoms: C5_6  and  C6_7 
REMARK    3  A    between atoms: C6_7  and  C7_8 
REMARK       I    between atoms: C7_8  and  N1_10 
REMARK    4  A    between atoms: N1_10  and  S1_11 
REMARK    5  A    between atoms: S1_11  and  C8_13 
ROOT
HETATM    1  C7  UNL     1      24.032   5.243  50.032  1.00  0.00     0.233 C 
HETATM    2  O2  UNL     1      23.368   4.337  49.467  1.00  0.00    -0.272 OA
HETATM    3  N1  UNL     1      24.280   5.253  51.433  1.00  0.00    -0.272 N 
HETATM    4  H8  UNL     1      24.823   5.980  51.950  1.00  0.00     0.179 HD
ENDROOT
BRANCH   1   5
HETATM    5  C6  UNL     1      24.642   6.415  49.339  1.00  0.00     0.142 C 
BRANCH   5   6
HETATM    6  C5  UNL     1      26.053   6.140  48.958  1.00  0.00    -0.049 A 
HETATM    7  C4  UNL     1      26.519   4.839  49.057  1.00  0.00     0.010 A 
HETATM    8  C3  UNL     1      27.821   4.538  48.714  1.00  0.00     0.037 A 
HETATM    9  C2  UNL     1      28.690   5.529  48.263  1.00  0.00     0.068 A 
HETATM   10  C15 UNL     1      28.215   6.820  48.168  1.00  0.00     0.037 A 
HETATM   11  C14 UNL     1      26.917   7.121  48.510  1.00  0.00     0.010 A 
BRANCH   9  12
HETATM   12  O1  UNL     1      29.961   5.060  47.960  1.00  0.00    -0.356 OA
HETATM   13  C1  UNL     1      31.150   5.756  48.223  1.00  0.00     0.210 C 
ENDBRANCH   9  12
ENDBRANCH   5   6
ENDBRANCH   1   5
BRANCH   3  14
HETATM   14  S1  UNL     1      23.689   4.007  52.504  1.00  0.00     0.153 S 
HETATM   15  O3  UNL     1      22.191   3.823  52.394  1.00  0.00    -0.230 OA
BRANCH  14  16
HETATM   16  C8  UNL     1      24.597   2.515  52.402  1.00  0.00     0.052 A 
HETATM   17  C9  UNL     1      25.818   2.531  51.719  1.00  0.00     0.026 A 
HETATM   18  C10 UNL     1      26.551   1.348  51.632  1.00  0.00     0.044 A 
HETATM   19  C11 UNL     1      26.067   0.197  52.213  1.00  0.00     0.116 A 
HETATM   20  F1  UNL     1      26.784  -0.957  52.126  1.00  0.00    -0.206 F 
HETATM   21  C12 UNL     1      24.861   0.196  52.884  1.00  0.00     0.044 A 
HETATM   22  C13 UNL     1      24.105   1.345  52.993  1.00  0.00     0.026 A 
ENDBRANCH  14  16
ENDBRANCH   3  14
TORSDOF 5
ENDMDL
MODEL 5
REMARK VINA RESULT:      -6.7      3.548      7.316
REMARK  5 active torsions:
REMARK  status: ('A' for Active; 'I' for Inactive)
REMARK    1  A    between atoms: O1_2  and  C2_3 
REMARK    2  A    between atoms: C5_6  and  C6_7 
REMARK    3  A    between atoms: C6_7  and  C7_8 
REMARK       I    between atoms: C7_8  and  N1_10 
REMARK    4  A    between atoms: N1_10  and  S1_11 
REMARK    5  A    between atoms: S1_11  and  C8_13 
ROOT
HETATM    1  C7  UNL     1      23.443   2.871  51.049  1.00  0.00     0.233 C 
HETATM    2  O2  UNL     1      23.143   2.091  50.109  1.00  0.00    -0.272 OA
HETATM    3  N1  UNL     1      24.069   4.129  50.832  1.00  0.00    -0.272 N 
HETATM    4  H8  UNL     1      24.339   4.812  51.575  1.00  0.00     0.179 HD
ENDROOT
BRANCH   1   5
HETATM    5  C6  UNL     1      23.195   2.602  52.496  1.00  0.00     0.142 C 
BRANCH   5   6
HETATM    6  C5  UNL     1      24.242   1.713  53.065  1.00  0.00    -0.049 A 
HETATM    7  C4  UNL     1      25.413   2.290  53.529  1.00  0.00     0.010 A 
HETATM    8  C3  UNL     1      26.412   1.503  54.064  1.00  0.00     0.037 A 
HETATM    9  C2  UNL     1      26.266   0.120  54.151  1.00  0.00     0.068 A 
HETATM   10  C15 UNL     1      25.097  -0.443  53.685  1.00  0.00     0.037 A 
HETATM   11  C14 UNL     1      24.100   0.341  53.150  1.00  0.00     0.010 A 
BRANCH   9  12
HETATM   12  O1  UNL     1      27.360  -0.522  54.714  1.00  0.00    -0.356 OA
HETATM   13  C1  UNL     1      28.650   0.025  54.792  1.00  0.00     0.210 C 
ENDBRANCH   9  12
ENDBRANCH   5   6
ENDBRANCH   1   5
BRANCH   3  14
HETATM   14  S1  UNL     1      24.482   4.714  49.239  1.00  0.00     0.153 S 
HETATM   15  O3  UNL     1      23.255   5.019  48.407  1.00  0.00    -0.230 OA
BRANCH  14  16
HETATM   16  C8  UNL     1      25.667   6.002  49.257  1.00  0.00     0.052 A 
HETATM   17  C9  UNL     1      25.412   7.122  50.056  1.00  0.00     0.026 A 
HETATM   18  C10 UNL     1      26.348   8.154  50.078  1.00  0.00     0.044 A 
HETATM   19  C11 UNL     1      27.495   8.056  49.324  1.00  0.00     0.116 A 
HETATM   20  F1  UNL     1      28.409   9.066  49.346  1.00  0.00    -0.206 F 
HETATM   21  C12 UNL     1      27.734   6.945  48.540  1.00  0.00     0.044 A 
HETATM   22  C13 UNL     1      26.833   5.901  48.490  1.00  0.00     0.026 A 
ENDBRANCH  14  16
ENDBRANCH   3  14
TORSDOF 5
ENDMDL
MODEL 6
REMARK VINA RESULT:      -6.6      4.511      7.091
REMARK  5 active torsions:
REMARK  status: ('A' for Active; 'I' for Inactive)
REMARK    1  A    between atoms: O1_2  and  C2_3 
REMARK    2  A    between atoms: C5_6  and  C6_7 
REMARK    3  A    between atoms: C6_7  and  C7_8 
REMARK       I    between atoms: C7_8  and  N1_10 
REMARK    4  A    between atoms: N1_10  and  S1_11 
REMARK    5  A    between atoms: S1_11  and  C8_13 
ROOT
HETATM    1  C7  UNL     1      22.183   0.963  51.966  1.00  0.00     0.233 C 
HETATM    2  O2  UNL     1      22.452   1.000  50.738  1.00  0.00    -0.272 OA
HETATM    3  N1  UNL     1      21.332   1.913  52.595  1.00  0.00    -0.272 N 
HETATM    4  H8  UNL     1      21.078   1.927  53.608  1.00  0.00     0.179 HD
ENDROOT
BRANCH   1   5
HETATM    5  C6  UNL     1      22.705  -0.055  52.925  1.00  0.00     0.142 C 
BRANCH   5   6
HETATM    6  C5  UNL     1      24.096   0.263  53.344  1.00  0.00    -0.049 A 
HETATM    7  C4  UNL     1      24.713   1.371  52.786  1.00  0.00     0.010 A 
HETATM    8  C3  UNL     1      26.002   1.704  53.145  1.00  0.00     0.037 A 
HETATM    9  C2  UNL     1      26.709   0.939  54.072  1.00  0.00     0.068 A 
HETATM   10  C15 UNL     1      26.084  -0.161  54.621  1.00  0.00     0.037 A 
HETATM   11  C14 UNL     1      24.797  -0.494  54.262  1.00  0.00     0.010 A 
BRANCH   9  12
HETATM   12  O1  UNL     1      27.990   1.409  54.323  1.00  0.00    -0.356 OA
HETATM   13  C1  UNL     1      28.590   2.482  53.646  1.00  0.00     0.210 C 
ENDBRANCH   9  12
ENDBRANCH   5   6
ENDBRANCH   1   5
BRANCH   3  14
HETATM   14  S1  UNL     1      20.575   3.223  51.723  1.00  0.00     0.153 S 
HETATM   15  O3  UNL     1      19.220   3.581  52.295  1.00  0.00    -0.230 OA
BRANCH  14  16
HETATM   16  C8  UNL     1      21.629   4.597  51.478  1.00  0.00     0.052 A 
HETATM   17  C9  UNL     1      21.129   5.694  50.768  1.00  0.00     0.026 A 
HETATM   18  C10 UNL     1      21.959   6.795  50.567  1.00  0.00     0.044 A 
HETATM   19  C11 UNL     1      23.243   6.787  51.065  1.00  0.00     0.116 A 
HETATM   20  F1  UNL     1      24.052   7.863  50.867  1.00  0.00    -0.206 F 
HETATM   21  C12 UNL     1      23.723   5.697  51.764  1.00  0.00     0.044 A 
HETATM   22  C13 UNL     1      22.934   4.588  51.985  1.00  0.00     0.026 A 
ENDBRANCH  14  16
ENDBRANCH   3  14
TORSDOF 5
ENDMDL
MODEL 7
REMARK VINA RESULT:      -6.6      3.542      4.181
REMARK  5 active torsions:
REMARK  status: ('A' for Active; 'I' for Inactive)
REMARK    1  A    between atoms: O1_2  and  C2_3 
REMARK    2  A    between atoms: C5_6  and  C6_7 
REMARK    3  A    between atoms: C6_7  and  C7_8 
REMARK       I    between atoms: C7_8  and  N1_10 
REMARK    4  A    between atoms: N1_10  and  S1_11 
REMARK    5  A    between atoms: S1_11  and  C8_13 
ROOT
HETATM    1  C7  UNL     1      24.295   3.758  50.900  1.00  0.00     0.233 C 
HETATM    2  O2  UNL     1      24.015   4.510  51.869  1.00  0.00    -0.272 OA
HETATM    3  N1  UNL     1      24.689   2.402  51.069  1.00  0.00    -0.272 N 
HETATM    4  H8  UNL     1      24.931   1.737  50.301  1.00  0.00     0.179 HD
ENDROOT
BRANCH   1   5
HETATM    5  C6  UNL     1      24.260   4.164  49.464  1.00  0.00     0.142 C 
BRANCH   5   6
HETATM    6  C5  UNL     1      25.473   4.940  49.095  1.00  0.00    -0.049 A 
HETATM    7  C4  UNL     1      26.683   4.270  49.014  1.00  0.00     0.010 A 
HETATM    8  C3  UNL     1      27.834   4.949  48.675  1.00  0.00     0.037 A 
HETATM    9  C2  UNL     1      27.807   6.317  48.407  1.00  0.00     0.068 A 
HETATM   10  C15 UNL     1      26.597   6.973  48.491  1.00  0.00     0.037 A 
HETATM   11  C14 UNL     1      25.448   6.296  48.830  1.00  0.00     0.010 A 
BRANCH   9  12
HETATM   12  O1  UNL     1      29.048   6.846  48.081  1.00  0.00    -0.356 OA
HETATM   13  C1  UNL     1      29.544   8.066  48.564  1.00  0.00     0.210 C 
ENDBRANCH   9  12
ENDBRANCH   5   6
ENDBRANCH   1   5
BRANCH   3  14
HETATM   14  S1  UNL     1      24.819   1.647  52.638  1.00  0.00     0.153 S 
HETATM   15  O3  UNL     1      25.281   2.619  53.703  1.00  0.00    -0.230 OA
BRANCH  14  16
HETATM   16  C8  UNL     1      23.403   0.723  53.086  1.00  0.00     0.052 A 
HETATM   17  C9  UNL     1      22.145   1.276  52.823  1.00  0.00     0.026 A 
HETATM   18  C10 UNL     1      21.009   0.549  53.175  1.00  0.00     0.044 A 
HETATM   19  C11 UNL     1      21.141  -0.686  53.768  1.00  0.00     0.116 A 
HETATM   20  F1  UNL     1      20.030  -1.395  54.111  1.00  0.00    -0.206 F 
HETATM   21  C12 UNL     1      22.389  -1.220  54.021  1.00  0.00     0.044 A 
HETATM   22  C13 UNL     1      23.538  -0.533  53.689  1.00  0.00     0.026 A 
ENDBRANCH  14  16
ENDBRANCH   3  14
TORSDOF 5
ENDMDL
MODEL 8
REMARK VINA RESULT:      -6.6      3.498      7.022
REMARK  5 active torsions:
REMARK  status: ('A' for Active; 'I' for Inactive)
REMARK    1  A    between atoms: O1_2  and  C2_3 
REMARK    2  A    between atoms: C5_6  and  C6_7 
REMARK    3  A    between atoms: C6_7  and  C7_8 
REMARK       I    between atoms: C7_8  and  N1_10 
REMARK    4  A    between atoms: N1_10  and  S1_11 
REMARK    5  A    between atoms: S1_11  and  C8_13 
ROOT
HETATM    1  C7  UNL     1      23.673   3.872  50.146  1.00  0.00     0.233 C 
HETATM    2  O2  UNL     1      23.558   3.416  48.979  1.00  0.00    -0.272 OA
HETATM    3  N1  UNL     1      24.102   5.201  50.412  1.00  0.00    -0.272 N 
HETATM    4  H8  UNL     1      24.214   5.627  51.360  1.00  0.00     0.179 HD
ENDROOT
BRANCH   1   5
HETATM    5  C6  UNL     1      23.386   3.106  51.394  1.00  0.00     0.142 C 
BRANCH   5   6
HETATM    6  C5  UNL     1      24.477   2.142  51.697  1.00  0.00    -0.049 A 
HETATM    7  C4  UNL     1      24.161   0.991  52.400  1.00  0.00     0.010 A 
HETATM    8  C3  UNL     1      25.142   0.069  52.703  1.00  0.00     0.037 A 
HETATM    9  C2  UNL     1      26.464   0.274  52.311  1.00  0.00     0.068 A 
HETATM   10  C15 UNL     1      26.766   1.424  51.613  1.00  0.00     0.037 A 
HETATM   11  C14 UNL     1      25.788   2.344  51.310  1.00  0.00     0.010 A 
BRANCH   9  12
HETATM   12  O1  UNL     1      27.323  -0.746  52.694  1.00  0.00    -0.356 OA
HETATM   13  C1  UNL     1      27.016  -2.113  52.622  1.00  0.00     0.210 C 
ENDBRANCH   9  12
ENDBRANCH   5   6
ENDBRANCH   1   5
BRANCH   3  14
HETATM   14  S1  UNL     1      24.509   6.332  49.146  1.00  0.00     0.153 S 
HETATM   15  O3  UNL     1      24.025   7.732  49.453  1.00  0.00    -0.230 OA
BRANCH  14  16
HETATM   16  C8  UNL     1      26.186   6.252  48.655  1.00  0.00     0.052 A 
HETATM   17  C9  UNL     1      26.744   7.371  48.026  1.00  0.00     0.026 A 
HETATM   18  C10 UNL     1      28.079   7.320  47.631  1.00  0.00     0.044 A 
HETATM   19  C11 UNL     1      28.820   6.183  47.863  1.00  0.00     0.116 A 
HETATM   20  F1  UNL     1      30.125   6.135  47.475  1.00  0.00    -0.206 F 
HETATM   21  C12 UNL     1      28.257   5.086  48.484  1.00  0.00     0.044 A 
HETATM   22  C13 UNL     1      26.939   5.096  48.891  1.00  0.00     0.026 A 
ENDBRANCH  14  16
ENDBRANCH   3  14
TORSDOF 5
ENDMDL
MODEL 9
REMARK VINA RESULT:      -6.4      3.590      5.679
REMARK  5 active torsions:
REMARK  status: ('A' for Active; 'I' for Inactive)
REMARK    1  A    between atoms: O1_2  and  C2_3 
REMARK    2  A    between atoms: C5_6  and  C6_7 
REMARK    3  A    between atoms: C6_7  and  C7_8 
REMARK       I    between atoms: C7_8  and  N1_10 
REMARK    4  A    between atoms: N1_10  and  S1_11 
REMARK    5  A    between atoms: S1_11  and  C8_13 
ROOT
HETATM    1  C7  UNL     1      23.738   4.001  50.998  1.00  0.00     0.233 C 
HETATM    2  O2  UNL     1      23.638   3.835  49.755  1.00  0.00    -0.272 OA
HETATM    3  N1  UNL     1      24.849   3.528  51.749  1.00  0.00    -0.272 N 
HETATM    4  H8  UNL     1      24.980   3.639  52.779  1.00  0.00     0.179 HD
ENDROOT
BRANCH   1   5
HETATM    5  C6  UNL     1      22.732   4.701  51.850  1.00  0.00     0.142 C 
BRANCH   5   6
HETATM    6  C5  UNL     1      21.395   4.060  51.739  1.00  0.00    -0.049 A 
HETATM    7  C4  UNL     1      21.197   2.838  52.362  1.00  0.00     0.010 A 
HETATM    8  C3  UNL     1      19.973   2.208  52.285  1.00  0.00     0.037 A 
HETATM    9  C2  UNL     1      18.914   2.783  51.584  1.00  0.00     0.068 A 
HETATM   10  C15 UNL     1      19.122   3.998  50.968  1.00  0.00     0.037 A 
HETATM   11  C14 UNL     1      20.344   4.628  51.044  1.00  0.00     0.010 A 
BRANCH   9  12
HETATM   12  O1  UNL     1      17.753   2.021  51.605  1.00  0.00    -0.356 OA
HETATM   13  C1  UNL     1      17.722   0.619  51.635  1.00  0.00     0.210 C 
ENDBRANCH   9  12
ENDBRANCH   5   6
ENDBRANCH   1   5
BRANCH   3  14
HETATM   14  S1  UNL     1      26.184   2.671  51.019  1.00  0.00     0.153 S 
HETATM   15  O3  UNL     1      27.059   3.582  50.185  1.00  0.00    -0.230 OA
BRANCH  14  16
HETATM   16  C8  UNL     1      27.071   1.673  52.149  1.00  0.00     0.052 A 
HETATM   17  C9  UNL     1      27.978   2.299  53.011  1.00  0.00     0.026 A 
HETATM   18  C10 UNL     1      28.691   1.515  53.916  1.00  0.00     0.044 A 
HETATM   19  C11 UNL     1      28.493   0.153  53.948  1.00  0.00     0.116 A 
HETATM   20  F1  UNL     1      29.190  -0.612  54.832  1.00  0.00    -0.206 F 
HETATM   21  C12 UNL     1      27.595  -0.452  53.091  1.00  0.00     0.044 A 
HETATM   22  C13 UNL     1      26.870   0.289  52.180  1.00  0.00     0.026 A 
ENDBRANCH  14  16
ENDBRANCH   3  14
TORSDOF 5
ENDMDL
