MODEL 1
REMARK VINA RESULT:      -8.3      0.000      0.000
REMARK  3 active torsions:
REMARK  status: ('A' for Active; 'I' for Inactive)
REMARK    1  A    between atoms: O1_2  and  C2_3 
REMARK    2  A    between atoms: C6_7  and  N1_8 
REMARK    3  A    between atoms: N1_8  and  C7_9 
ROOT
HETATM    1  C2  UNL     1      20.055  -0.173  52.565  1.00  0.00     0.070 A 
HETATM    2  C3  UNL     1      21.042   0.356  51.753  1.00  0.00     0.038 A 
HETATM    3  C4  UNL     1      22.362   0.267  52.163  1.00  0.00     0.020 A 
HETATM    4  C5  UNL     1      22.777  -0.326  53.348  1.00  0.00     0.039 A 
HETATM    5  C6  UNL     1      24.104  -0.400  53.715  1.00  0.00     0.142 A 
HETATM    6  N2  UNL     1      24.363  -1.013  54.898  1.00  0.00    -0.224 NA
HETATM    7  C13 UNL     1      23.335  -1.511  55.643  1.00  0.00     0.236 A 
HETATM    8  N3  UNL     1      22.037  -1.427  55.260  1.00  0.00    -0.241 NA
HETATM    9  C14 UNL     1      21.716  -0.819  54.079  1.00  0.00     0.074 A 
HETATM   10  C15 UNL     1      20.381  -0.786  53.773  1.00  0.00     0.069 A 
ENDROOT
BRANCH   5  11
HETATM   11  N1  UNL     1      24.991   0.207  52.771  1.00  0.00    -0.340 N 
HETATM   12  H6  UNL     1      24.653   0.776  51.971  1.00  0.00     0.167 HD
BRANCH  11  13
HETATM   13  C7  UNL     1      26.380  -0.039  53.051  1.00  0.00     0.035 A 
HETATM   14  C8  UNL     1      26.940  -1.255  52.746  1.00  0.00     0.032 A 
HETATM   15  C9  UNL     1      28.299  -1.481  52.974  1.00  0.00     0.046 A 
HETATM   16  C10 UNL     1      28.998  -0.420  53.510  1.00  0.00     0.138 A 
HETATM   17  F1  UNL     1      30.332  -0.654  53.726  1.00  0.00    -0.204 F 
HETATM   18  C11 UNL     1      28.472   0.813  53.830  1.00  0.00     0.074 A 
HETATM   19 CL1  UNL     1      29.439   2.093  54.499  1.00  0.00    -0.081 Cl
HETATM   20  C12 UNL     1      27.124   1.006  53.593  1.00  0.00     0.056 A 
ENDBRANCH  11  13
ENDBRANCH   5  11
BRANCH   1  21
HETATM   21  O1  UNL     1      18.758  -0.071  52.140  1.00  0.00    -0.356 OA
HETATM   22  C1  UNL     1      17.687  -0.812  52.647  1.00  0.00     0.210 C 
ENDBRANCH   1  21
TORSDOF 3
ENDMDL
MODEL 2
REMARK VINA RESULT:      -8.0      1.211      2.196
REMARK  3 active torsions:
REMARK  status: ('A' for Active; 'I' for Inactive)
REMARK    1  A    between atoms: O1_2  and  C2_3 
REMARK    2  A    between atoms: C6_7  and  N1_8 
REMARK    3  A    between atoms: N1_8  and  C7_9 
ROOT
HETATM    1  C2  UNL     1      19.718  -0.550  53.048  1.00  0.00     0.070 A 
HETATM    2  C3  UNL     1      20.543  -1.127  53.996  1.00  0.00     0.038 A 
HETATM    3  C4  UNL     1      21.898  -0.841  53.964  1.00  0.00     0.020 A 
HETATM    4  C5  UNL     1      22.500  -0.000  53.036  1.00  0.00     0.039 A 
HETATM    5  C6  UNL     1      23.853   0.264  53.044  1.00  0.00     0.142 A 
HETATM    6  N2  UNL     1      24.302   1.109  52.081  1.00  0.00    -0.224 NA
HETATM    7  C13 UNL     1      23.424   1.639  51.182  1.00  0.00     0.236 A 
HETATM    8  N3  UNL     1      22.098   1.364  51.195  1.00  0.00    -0.241 NA
HETATM    9  C14 UNL     1      21.588   0.519  52.140  1.00  0.00     0.074 A 
HETATM   10  C15 UNL     1      20.237   0.305  52.079  1.00  0.00     0.069 A 
ENDROOT
BRANCH   5  11
HETATM   11  N1  UNL     1      24.562  -0.423  54.079  1.00  0.00    -0.340 N 
HETATM   12  H6  UNL     1      24.094  -0.789  54.931  1.00  0.00     0.167 HD
BRANCH  11  13
HETATM   13  C7  UNL     1      25.969  -0.564  53.813  1.00  0.00     0.035 A 
HETATM   14  C8  UNL     1      26.422  -1.594  53.028  1.00  0.00     0.032 A 
HETATM   15  C9  UNL     1      27.783  -1.706  52.731  1.00  0.00     0.046 A 
HETATM   16  C10 UNL     1      28.593  -0.731  53.273  1.00  0.00     0.138 A 
HETATM   17  F1  UNL     1      29.926  -0.850  52.970  1.00  0.00    -0.204 F 
HETATM   18  C11 UNL     1      28.175   0.317  54.064  1.00  0.00     0.074 A 
HETATM   19 CL1  UNL     1      29.277   1.502  54.698  1.00  0.00    -0.081 Cl
HETATM   20  C12 UNL     1      26.824   0.400  54.341  1.00  0.00     0.056 A 
ENDBRANCH  11  13
ENDBRANCH   5  11
BRANCH   1  21
HETATM   21  O1  UNL     1      18.383  -0.850  53.098  1.00  0.00    -0.356 OA
HETATM   22  C1  UNL     1      17.848  -2.056  53.558  1.00  0.00     0.210 C 
ENDBRANCH   1  21
TORSDOF 3
ENDMDL
MODEL 3
REMARK VINA RESULT:      -7.6      2.323      3.589
REMARK  3 active torsions:
REMARK  status: ('A' for Active; 'I' for Inactive)
REMARK    1  A    between atoms: O1_2  and  C2_3 
REMARK    2  A    between atoms: C6_7  and  N1_8 
REMARK    3  A    between atoms: N1_8  and  C7_9 
ROOT
HETATM    1  C2  UNL     1      21.244   0.683  51.724  1.00  0.00     0.070 A 
HETATM    2  C3  UNL     1      21.941   0.612  52.917  1.00  0.00     0.038 A 
HETATM    3  C4  UNL     1      23.173   1.239  53.007  1.00  0.00     0.020 A 
HETATM    4  C5  UNL     1      23.770   1.948  51.972  1.00  0.00     0.039 A 
HETATM    5  C6  UNL     1      24.996   2.564  52.106  1.00  0.00     0.142 A 
HETATM    6  N2  UNL     1      25.454   3.226  51.014  1.00  0.00    -0.224 NA
HETATM    7  C13 UNL     1      24.706   3.252  49.874  1.00  0.00     0.236 A 
HETATM    8  N3  UNL     1      23.503   2.638  49.766  1.00  0.00    -0.241 NA
HETATM    9  C14 UNL     1      22.991   1.955  50.833  1.00  0.00     0.074 A 
HETATM   10  C15 UNL     1      21.768   1.372  50.634  1.00  0.00     0.069 A 
ENDROOT
BRANCH   5  11
HETATM   11  N1  UNL     1      25.587   2.382  53.396  1.00  0.00    -0.340 N 
HETATM   12  H6  UNL     1      25.183   2.792  54.261  1.00  0.00     0.167 HD
BRANCH  11  13
HETATM   13  C7  UNL     1      26.776   1.572  53.372  1.00  0.00     0.035 A 
HETATM   14  C8  UNL     1      27.994   2.127  53.676  1.00  0.00     0.032 A 
HETATM   15  C9  UNL     1      29.142   1.332  53.697  1.00  0.00     0.046 A 
HETATM   16  C10 UNL     1      28.951   0.000  53.399  1.00  0.00     0.138 A 
HETATM   17  F1  UNL     1      30.086  -0.769  53.427  1.00  0.00    -0.204 F 
HETATM   18  C11 UNL     1      27.747  -0.592  53.090  1.00  0.00     0.074 A 
HETATM   19 CL1  UNL     1      27.607  -2.288  52.733  1.00  0.00    -0.081 Cl
HETATM   20  C12 UNL     1      26.628   0.220  53.076  1.00  0.00     0.056 A 
ENDBRANCH  11  13
ENDBRANCH   5  11
BRANCH   1  21
HETATM   21  O1  UNL     1      20.030   0.053  51.658  1.00  0.00    -0.356 OA
HETATM   22  C1  UNL     1      19.198  -0.203  52.751  1.00  0.00     0.210 C 
ENDBRANCH   1  21
TORSDOF 3
ENDMDL
MODEL 4
REMARK VINA RESULT:      -7.4      5.502      7.325
REMARK  3 active torsions:
REMARK  status: ('A' for Active; 'I' for Inactive)
REMARK    1  A    between atoms: O1_2  and  C2_3 
REMARK    2  A    between atoms: C6_7  and  N1_8 
REMARK    3  A    between atoms: N1_8  and  C7_9 
ROOT
HETATM    1  C2  UNL     1      27.215   6.440  48.585  1.00  0.00     0.070 A 
HETATM    2  C3  UNL     1      27.495   5.086  48.553  1.00  0.00     0.038 A 
HETATM    3  C4  UNL     1      26.710   4.225  49.303  1.00  0.00     0.020 A 
HETATM    4  C5  UNL     1      25.643   4.627  50.097  1.00  0.00     0.039 A 
HETATM    5  C6  UNL     1      24.882   3.736  50.823  1.00  0.00     0.142 A 
HETATM    6  N2  UNL     1      23.868   4.271  51.550  1.00  0.00    -0.224 NA
HETATM    7  C13 UNL     1      23.655   5.618  51.528  1.00  0.00     0.236 A 
HETATM    8  N3  UNL     1      24.417   6.474  50.806  1.00  0.00    -0.241 NA
HETATM    9  C14 UNL     1      25.454   5.994  50.056  1.00  0.00     0.074 A 
HETATM   10  C15 UNL     1      26.164   6.931  49.355  1.00  0.00     0.069 A 
ENDROOT
BRANCH   5  11
HETATM   11  N1  UNL     1      25.313   2.378  50.691  1.00  0.00    -0.340 N 
HETATM   12  H6  UNL     1      25.311   1.877  49.781  1.00  0.00     0.167 HD
BRANCH  11  13
HETATM   13  C7  UNL     1      25.755   1.795  51.929  1.00  0.00     0.035 A 
HETATM   14  C8  UNL     1      24.941   0.926  52.611  1.00  0.00     0.032 A 
HETATM   15  C9  UNL     1      25.386   0.323  53.789  1.00  0.00     0.046 A 
HETATM   16  C10 UNL     1      26.662   0.663  54.188  1.00  0.00     0.138 A 
HETATM   17  F1  UNL     1      27.088   0.061  55.344  1.00  0.00    -0.204 F 
HETATM   18  C11 UNL     1      27.508   1.529  53.531  1.00  0.00     0.074 A 
HETATM   19 CL1  UNL     1      29.105   1.891  54.112  1.00  0.00    -0.081 Cl
HETATM   20  C12 UNL     1      27.038   2.111  52.368  1.00  0.00     0.056 A 
ENDBRANCH  11  13
ENDBRANCH   5  11
BRANCH   1  21
HETATM   21  O1  UNL     1      28.006   7.271  47.838  1.00  0.00    -0.356 OA
HETATM   22  C1  UNL     1      29.155   7.916  48.301  1.00  0.00     0.210 C 
ENDBRANCH   1  21
TORSDOF 3
ENDMDL
MODEL 5
REMARK VINA RESULT:      -7.4      5.038      6.958
REMARK  3 active torsions:
REMARK  status: ('A' for Active; 'I' for Inactive)
REMARK    1  A    between atoms: O1_2  and  C2_3 
REMARK    2  A    between atoms: C6_7  and  N1_8 
REMARK    3  A    between atoms: N1_8  and  C7_9 
ROOT
HETATM    1  C2  UNL     1      27.407  -0.089  53.948  1.00  0.00     0.070 A 
HETATM    2  C3  UNL     1      27.544   1.283  53.835  1.00  0.00     0.038 A 
HETATM    3  C4  UNL     1      26.429   2.040  53.514  1.00  0.00     0.020 A 
HETATM    4  C5  UNL     1      25.161   1.516  53.295  1.00  0.00     0.039 A 
HETATM    5  C6  UNL     1      24.076   2.307  52.984  1.00  0.00     0.142 A 
HETATM    6  N2  UNL     1      22.897   1.659  52.803  1.00  0.00    -0.224 NA
HETATM    7  C13 UNL     1      22.843   0.303  52.932  1.00  0.00     0.236 A 
HETATM    8  N3  UNL     1      23.924  -0.453  53.239  1.00  0.00    -0.241 NA
HETATM    9  C14 UNL     1      25.138   0.143  53.432  1.00  0.00     0.074 A 
HETATM   10  C15 UNL     1      26.172  -0.699  53.743  1.00  0.00     0.069 A 
ENDROOT
BRANCH   5  11
HETATM   11  N1  UNL     1      24.393   3.700  52.893  1.00  0.00    -0.340 N 
HETATM   12  H6  UNL     1      24.773   4.241  53.694  1.00  0.00     0.167 HD
BRANCH  11  13
HETATM   13  C7  UNL     1      24.145   4.259  51.591  1.00  0.00     0.035 A 
HETATM   14  C8  UNL     1      24.745   3.717  50.483  1.00  0.00     0.032 A 
HETATM   15  C9  UNL     1      24.470   4.229  49.213  1.00  0.00     0.046 A 
HETATM   16  C10 UNL     1      23.581   5.281  49.175  1.00  0.00     0.138 A 
HETATM   17  F1  UNL     1      23.317   5.773  47.921  1.00  0.00    -0.204 F 
HETATM   18  C11 UNL     1      22.959   5.852  50.264  1.00  0.00     0.074 A 
HETATM   19 CL1  UNL     1      21.845   7.177  50.112  1.00  0.00    -0.081 Cl
HETATM   20  C12 UNL     1      23.252   5.324  51.507  1.00  0.00     0.056 A 
ENDBRANCH  11  13
ENDBRANCH   5  11
BRANCH   1  21
HETATM   21  O1  UNL     1      28.523  -0.817  54.263  1.00  0.00    -0.356 OA
HETATM   22  C1  UNL     1      29.748  -0.736  53.597  1.00  0.00     0.210 C 
ENDBRANCH   1  21
TORSDOF 3
ENDMDL
MODEL 6
REMARK VINA RESULT:      -7.2      4.554      6.660
REMARK  3 active torsions:
REMARK  status: ('A' for Active; 'I' for Inactive)
REMARK    1  A    between atoms: O1_2  and  C2_3 
REMARK    2  A    between atoms: C6_7  and  N1_8 
REMARK    3  A    between atoms: N1_8  and  C7_9 
ROOT
HETATM    1  C2  UNL     1      26.498  -0.124  54.071  1.00  0.00     0.070 A 
HETATM    2  C3  UNL     1      26.611   0.696  52.963  1.00  0.00     0.038 A 
HETATM    3  C4  UNL     1      25.463   1.040  52.269  1.00  0.00     0.020 A 
HETATM    4  C5  UNL     1      24.184   0.618  52.609  1.00  0.00     0.039 A 
HETATM    5  C6  UNL     1      23.065   0.990  51.895  1.00  0.00     0.142 A 
HETATM    6  N2  UNL     1      21.880   0.507  52.346  1.00  0.00    -0.224 NA
HETATM    7  C13 UNL     1      21.851  -0.296  53.448  1.00  0.00     0.236 A 
HETATM    8  N3  UNL     1      22.965  -0.648  54.134  1.00  0.00    -0.241 NA
HETATM    9  C14 UNL     1      24.187  -0.193  53.726  1.00  0.00     0.074 A 
HETATM   10  C15 UNL     1      25.254  -0.596  54.483  1.00  0.00     0.069 A 
ENDROOT
BRANCH   5  11
HETATM   11  N1  UNL     1      23.359   1.827  50.772  1.00  0.00    -0.340 N 
HETATM   12  H6  UNL     1      23.887   1.489  49.944  1.00  0.00     0.167 HD
BRANCH  11  13
HETATM   13  C7  UNL     1      22.840   3.163  50.903  1.00  0.00     0.035 A 
HETATM   14  C8  UNL     1      21.486   3.373  50.964  1.00  0.00     0.032 A 
HETATM   15  C9  UNL     1      20.982   4.664  51.137  1.00  0.00     0.046 A 
HETATM   16  C10 UNL     1      21.925   5.664  51.236  1.00  0.00     0.138 A 
HETATM   17  F1  UNL     1      21.417   6.926  51.410  1.00  0.00    -0.204 F 
HETATM   18  C11 UNL     1      23.291   5.492  51.179  1.00  0.00     0.074 A 
HETATM   19 CL1  UNL     1      24.403   6.820  51.320  1.00  0.00    -0.081 Cl
HETATM   20  C12 UNL     1      23.759   4.203  51.007  1.00  0.00     0.056 A 
ENDBRANCH  11  13
ENDBRANCH   5  11
BRANCH   1  21
HETATM   21  O1  UNL     1      27.647  -0.454  54.739  1.00  0.00    -0.356 OA
HETATM   22  C1  UNL     1      28.875   0.197  54.593  1.00  0.00     0.210 C 
ENDBRANCH   1  21
TORSDOF 3
ENDMDL
MODEL 7
REMARK VINA RESULT:      -7.0      5.448      7.403
REMARK  3 active torsions:
REMARK  status: ('A' for Active; 'I' for Inactive)
REMARK    1  A    between atoms: O1_2  and  C2_3 
REMARK    2  A    between atoms: C6_7  and  N1_8 
REMARK    3  A    between atoms: N1_8  and  C7_9 
ROOT
HETATM    1  C2  UNL     1      26.790   5.705  48.898  1.00  0.00     0.070 A 
HETATM    2  C3  UNL     1      27.083   4.357  49.006  1.00  0.00     0.038 A 
HETATM    3  C4  UNL     1      26.308   3.571  49.843  1.00  0.00     0.020 A 
HETATM    4  C5  UNL     1      25.239   4.042  50.594  1.00  0.00     0.039 A 
HETATM    5  C6  UNL     1      24.488   3.223  51.410  1.00  0.00     0.142 A 
HETATM    6  N2  UNL     1      23.469   3.819  52.080  1.00  0.00    -0.224 NA
HETATM    7  C13 UNL     1      23.243   5.155  51.920  1.00  0.00     0.236 A 
HETATM    8  N3  UNL     1      23.995   5.939  51.111  1.00  0.00    -0.241 NA
HETATM    9  C14 UNL     1      25.035   5.395  50.412  1.00  0.00     0.074 A 
HETATM   10  C15 UNL     1      25.735   6.262  49.616  1.00  0.00     0.069 A 
ENDROOT
BRANCH   5  11
HETATM   11  N1  UNL     1      24.933   1.863  51.417  1.00  0.00    -0.340 N 
HETATM   12  H6  UNL     1      25.786   1.551  50.915  1.00  0.00     0.167 HD
BRANCH  11  13
HETATM   13  C7  UNL     1      24.092   0.990  52.192  1.00  0.00     0.035 A 
HETATM   14  C8  UNL     1      22.804   0.741  51.793  1.00  0.00     0.032 A 
HETATM   15  C9  UNL     1      22.001  -0.142  52.519  1.00  0.00     0.046 A 
HETATM   16  C10 UNL     1      22.594  -0.715  53.624  1.00  0.00     0.138 A 
HETATM   17  F1  UNL     1      21.796  -1.583  54.325  1.00  0.00    -0.204 F 
HETATM   18  C11 UNL     1      23.882  -0.490  54.056  1.00  0.00     0.074 A 
HETATM   19 CL1  UNL     1      24.542  -1.268  55.463  1.00  0.00    -0.081 Cl
HETATM   20  C12 UNL     1      24.652   0.389  53.317  1.00  0.00     0.056 A 
ENDBRANCH  11  13
ENDBRANCH   5  11
BRANCH   1  21
HETATM   21  O1  UNL     1      27.571   6.462  48.067  1.00  0.00    -0.356 OA
HETATM   22  C1  UNL     1      27.835   7.824  48.235  1.00  0.00     0.210 C 
ENDBRANCH   1  21
TORSDOF 3
ENDMDL
MODEL 8
REMARK VINA RESULT:      -7.0      4.798      7.370
REMARK  3 active torsions:
REMARK  status: ('A' for Active; 'I' for Inactive)
REMARK    1  A    between atoms: O1_2  and  C2_3 
REMARK    2  A    between atoms: C6_7  and  N1_8 
REMARK    3  A    between atoms: N1_8  and  C7_9 
ROOT
HETATM    1  C2  UNL     1      26.555   0.319  54.549  1.00  0.00     0.070 A 
HETATM    2  C3  UNL     1      26.157   0.887  53.352  1.00  0.00     0.038 A 
HETATM    3  C4  UNL     1      24.873   0.643  52.893  1.00  0.00     0.020 A 
HETATM    4  C5  UNL     1      23.938  -0.142  53.557  1.00  0.00     0.039 A 
HETATM    5  C6  UNL     1      22.667  -0.353  53.068  1.00  0.00     0.142 A 
HETATM    6  N2  UNL     1      21.858  -1.137  53.826  1.00  0.00    -0.224 NA
HETATM    7  C13 UNL     1      22.324  -1.660  54.996  1.00  0.00     0.236 A 
HETATM    8  N3  UNL     1      23.579  -1.436  55.457  1.00  0.00    -0.241 NA
HETATM    9  C14 UNL     1      24.438  -0.657  54.735  1.00  0.00     0.074 A 
HETATM   10  C15 UNL     1      25.682  -0.482  55.281  1.00  0.00     0.069 A 
ENDROOT
BRANCH   5  11
HETATM   11  N1  UNL     1      22.423   0.293  51.815  1.00  0.00    -0.340 N 
HETATM   12  H6  UNL     1      23.076   0.218  51.010  1.00  0.00     0.167 HD
BRANCH  11  13
HETATM   13  C7  UNL     1      21.191   1.034  51.783  1.00  0.00     0.035 A 
HETATM   14  C8  UNL     1      21.128   2.289  52.334  1.00  0.00     0.032 A 
HETATM   15  C9  UNL     1      19.945   3.029  52.264  1.00  0.00     0.046 A 
HETATM   16  C10 UNL     1      18.894   2.413  51.619  1.00  0.00     0.138 A 
HETATM   17  F1  UNL     1      17.740   3.151  51.553  1.00  0.00    -0.204 F 
HETATM   18  C11 UNL     1      18.919   1.156  51.054  1.00  0.00     0.074 A 
HETATM   19 CL1  UNL     1      17.538   0.466  50.255  1.00  0.00    -0.081 Cl
HETATM   20  C12 UNL     1      20.103   0.448  51.141  1.00  0.00     0.056 A 
ENDBRANCH  11  13
ENDBRANCH   5  11
BRANCH   1  21
HETATM   21  O1  UNL     1      27.829   0.572  54.982  1.00  0.00    -0.356 OA
HETATM   22  C1  UNL     1      28.931   0.784  54.150  1.00  0.00     0.210 C 
ENDBRANCH   1  21
TORSDOF 3
ENDMDL
MODEL 9
REMARK VINA RESULT:      -6.9      4.957      7.700
REMARK  3 active torsions:
REMARK  status: ('A' for Active; 'I' for Inactive)
REMARK    1  A    between atoms: O1_2  and  C2_3 
REMARK    2  A    between atoms: C6_7  and  N1_8 
REMARK    3  A    between atoms: N1_8  and  C7_9 
ROOT
HETATM    1  C2  UNL     1      27.238  -0.381  53.346  1.00  0.00     0.070 A 
HETATM    2  C3  UNL     1      25.958  -0.529  53.848  1.00  0.00     0.038 A 
HETATM    3  C4  UNL     1      24.974   0.354  53.435  1.00  0.00     0.020 A 
HETATM    4  C5  UNL     1      25.179   1.394  52.538  1.00  0.00     0.039 A 
HETATM    5  C6  UNL     1      24.169   2.246  52.147  1.00  0.00     0.142 A 
HETATM    6  N2  UNL     1      24.513   3.214  51.260  1.00  0.00    -0.224 NA
HETATM    7  C13 UNL     1      25.798   3.294  50.809  1.00  0.00     0.236 A 
HETATM    8  N3  UNL     1      26.774   2.443  51.208  1.00  0.00    -0.241 NA
HETATM    9  C14 UNL     1      26.487   1.450  52.101  1.00  0.00     0.074 A 
HETATM   10  C15 UNL     1      27.534   0.635  52.441  1.00  0.00     0.069 A 
ENDROOT
BRANCH   5  11
HETATM   11  N1  UNL     1      22.912   1.964  52.770  1.00  0.00    -0.340 N 
HETATM   12  H6  UNL     1      22.814   1.824  53.795  1.00  0.00     0.167 HD
BRANCH  11  13
HETATM   13  C7  UNL     1      21.813   1.909  51.843  1.00  0.00     0.035 A 
HETATM   14  C8  UNL     1      21.870   1.072  50.757  1.00  0.00     0.032 A 
HETATM   15  C9  UNL     1      20.786   0.983  49.881  1.00  0.00     0.046 A 
HETATM   16  C10 UNL     1      19.701   1.775  50.192  1.00  0.00     0.138 A 
HETATM   17  F1  UNL     1      18.642   1.675  49.326  1.00  0.00    -0.204 F 
HETATM   18  C11 UNL     1      19.608   2.626  51.271  1.00  0.00     0.074 A 
HETATM   19 CL1  UNL     1      18.191   3.583  51.582  1.00  0.00    -0.081 Cl
HETATM   20  C12 UNL     1      20.697   2.693  52.120  1.00  0.00     0.056 A 
ENDBRANCH  11  13
ENDBRANCH   5  11
BRANCH   1  21
HETATM   21  O1  UNL     1      28.195  -1.264  53.770  1.00  0.00    -0.356 OA
HETATM   22  C1  UNL     1      29.572  -1.024  53.755  1.00  0.00     0.210 C 
ENDBRANCH   1  21
TORSDOF 3
ENDMDL
