MODEL 1
REMARK VINA RESULT:      -7.6      0.000      0.000
REMARK  6 active torsions:
REMARK  status: ('A' for Active; 'I' for Inactive)
REMARK    1  A    between atoms: C4_4  and  C5_5 
REMARK    2  A    between atoms: C6_6  and  C7_7 
REMARK    3  A    between atoms: C7_7  and  N1_8 
REMARK    4  A    between atoms: N1_8  and  C8_9 
REMARK    5  A    between atoms: C11_14  and  N4_15 
REMARK    6  A    between atoms: N4_15  and  C12_16 
ROOT
HETATM    1  C1  UNL     1      22.091   6.433  49.739  1.00  0.00     0.013 C 
HETATM    2  C2  UNL     1      22.652   5.204  49.662  1.00  0.00    -0.009 C 
HETATM    3  C3  UNL     1      23.148   3.798  49.592  1.00  0.00    -0.004 C 
HETATM    4  C4  UNL     1      24.406   3.280  49.427  1.00  0.00    -0.001 C 
ENDROOT
BRANCH   4   5
HETATM    5  C5  UNL     1      25.367   4.361  49.307  1.00  0.00    -0.002 C 
HETATM    6  C6  UNL     1      26.503   4.016  49.928  1.00  0.00    -0.007 C 
BRANCH   6   7
HETATM    7  C7  UNL     1      26.616   2.691  50.598  1.00  0.00     0.147 C 
BRANCH   7   8
HETATM    8  N1  UNL     1      26.668   2.815  52.022  1.00  0.00    -0.382 N 
HETATM    9  H10 UNL     1      26.201   3.664  52.356  1.00  0.00     0.160 HD
BRANCH   8  10
HETATM   10  C8  UNL     1      27.283   1.900  52.918  1.00  0.00     0.092 A 
HETATM   11  C9  UNL     1      28.396   2.337  53.606  1.00  0.00     0.151 A 
HETATM   12  N2  UNL     1      29.087   1.581  54.513  1.00  0.00    -0.252 NA
HETATM   13  C10 UNL     1      28.622   0.325  54.728  1.00  0.00     0.235 A 
HETATM   14  N3  UNL     1      27.544  -0.089  54.059  1.00  0.00    -0.222 NA
HETATM   15  C11 UNL     1      26.833   0.598  53.168  1.00  0.00     0.157 A 
BRANCH  15  16
HETATM   16  N4  UNL     1      25.699   0.122  52.478  1.00  0.00    -0.339 N 
HETATM   17  H13 UNL     1      25.829  -0.446  51.629  1.00  0.00     0.167 HD
BRANCH  16  18
HETATM   18  C12 UNL     1      24.335   0.326  52.801  1.00  0.00     0.035 A 
HETATM   19  C13 UNL     1      23.618   1.462  52.506  1.00  0.00     0.032 A 
HETATM   20  C14 UNL     1      22.293   1.663  52.820  1.00  0.00     0.046 A 
HETATM   21  C15 UNL     1      21.611   0.668  53.482  1.00  0.00     0.138 A 
HETATM   22  F1  UNL     1      20.317   0.771  53.832  1.00  0.00    -0.204 F 
HETATM   23  C16 UNL     1      22.268  -0.495  53.807  1.00  0.00     0.074 A 
HETATM   24 CL1  UNL     1      21.446  -1.792  54.648  1.00  0.00    -0.081 Cl
HETATM   25  C17 UNL     1      23.591  -0.626  53.461  1.00  0.00     0.056 A 
ENDBRANCH  16  18
ENDBRANCH  15  16
ENDBRANCH   8  10
ENDBRANCH   7   8
ENDBRANCH   6   7
ENDBRANCH   4   5
TORSDOF 6
ENDMDL
MODEL 2
REMARK VINA RESULT:      -7.3      2.446      4.433
REMARK  6 active torsions:
REMARK  status: ('A' for Active; 'I' for Inactive)
REMARK    1  A    between atoms: C4_4  and  C5_5 
REMARK    2  A    between atoms: C6_6  and  C7_7 
REMARK    3  A    between atoms: C7_7  and  N1_8 
REMARK    4  A    between atoms: N1_8  and  C8_9 
REMARK    5  A    between atoms: C11_14  and  N4_15 
REMARK    6  A    between atoms: N4_15  and  C12_16 
ROOT
HETATM    1  C1  UNL     1      21.430   2.103  49.637  1.00  0.00     0.013 C 
HETATM    2  C2  UNL     1      21.541   1.077  50.512  1.00  0.00    -0.009 C 
HETATM    3  C3  UNL     1      21.614  -0.135  51.380  1.00  0.00    -0.004 C 
HETATM    4  C4  UNL     1      22.040  -0.309  52.671  1.00  0.00    -0.001 C 
ENDROOT
BRANCH   4   5
HETATM    5  C5  UNL     1      22.481   0.962  53.216  1.00  0.00    -0.002 C 
HETATM    6  C6  UNL     1      23.754   0.855  53.618  1.00  0.00    -0.007 C 
BRANCH   6   7
HETATM    7  C7  UNL     1      24.480  -0.437  53.467  1.00  0.00     0.147 C 
BRANCH   7   8
HETATM    8  N1  UNL     1      25.712  -0.278  52.757  1.00  0.00    -0.382 N 
HETATM    9  H10 UNL     1      25.743  -0.843  51.902  1.00  0.00     0.160 HD
BRANCH   8  10
HETATM   10  C8  UNL     1      26.799   0.550  53.145  1.00  0.00     0.092 A 
HETATM   11  C9  UNL     1      27.374   0.306  54.373  1.00  0.00     0.151 A 
HETATM   12  N2  UNL     1      28.436   1.005  54.879  1.00  0.00    -0.252 NA
HETATM   13  C10 UNL     1      28.931   1.996  54.097  1.00  0.00     0.235 A 
HETATM   14  N3  UNL     1      28.369   2.225  52.909  1.00  0.00    -0.222 NA
HETATM   15  C11 UNL     1      27.339   1.580  52.366  1.00  0.00     0.157 A 
BRANCH  15  16
HETATM   16  N4  UNL     1      26.770   1.855  51.105  1.00  0.00    -0.339 N 
HETATM   17  H13 UNL     1      27.047   1.284  50.293  1.00  0.00     0.167 HD
BRANCH  16  18
HETATM   18  C12 UNL     1      25.825   2.857  50.776  1.00  0.00     0.035 A 
HETATM   19  C13 UNL     1      25.764   3.516  49.570  1.00  0.00     0.032 A 
HETATM   20  C14 UNL     1      24.848   4.491  49.248  1.00  0.00     0.046 A 
HETATM   21  C15 UNL     1      23.911   4.856  50.188  1.00  0.00     0.138 A 
HETATM   22  F1  UNL     1      22.977   5.798  49.968  1.00  0.00    -0.204 F 
HETATM   23  C16 UNL     1      23.914   4.236  51.415  1.00  0.00     0.074 A 
HETATM   24 CL1  UNL     1      22.744   4.662  52.645  1.00  0.00    -0.081 Cl
HETATM   25  C17 UNL     1      24.859   3.270  51.666  1.00  0.00     0.056 A 
ENDBRANCH  16  18
ENDBRANCH  15  16
ENDBRANCH   8  10
ENDBRANCH   7   8
ENDBRANCH   6   7
ENDBRANCH   4   5
TORSDOF 6
ENDMDL
MODEL 3
REMARK VINA RESULT:      -7.3      3.435      5.532
REMARK  6 active torsions:
REMARK  status: ('A' for Active; 'I' for Inactive)
REMARK    1  A    between atoms: C4_4  and  C5_5 
REMARK    2  A    between atoms: C6_6  and  C7_7 
REMARK    3  A    between atoms: C7_7  and  N1_8 
REMARK    4  A    between atoms: N1_8  and  C8_9 
REMARK    5  A    between atoms: C11_14  and  N4_15 
REMARK    6  A    between atoms: N4_15  and  C12_16 
ROOT
HETATM    1  C1  UNL     1      30.535   5.855  48.166  1.00  0.00     0.013 C 
HETATM    2  C2  UNL     1      29.195   6.010  48.277  1.00  0.00    -0.009 C 
HETATM    3  C3  UNL     1      27.734   6.306  48.353  1.00  0.00    -0.004 C 
HETATM    4  C4  UNL     1      26.667   5.544  48.751  1.00  0.00    -0.001 C 
ENDROOT
BRANCH   4   5
HETATM    5  C5  UNL     1      27.129   4.229  49.155  1.00  0.00    -0.002 C 
HETATM    6  C6  UNL     1      26.078   3.476  49.504  1.00  0.00    -0.007 C 
BRANCH   6   7
HETATM    7  C7  UNL     1      24.701   4.038  49.437  1.00  0.00     0.147 C 
BRANCH   7   8
HETATM    8  N1  UNL     1      23.703   3.036  49.655  1.00  0.00    -0.382 N 
HETATM    9  H10 UNL     1      23.817   2.231  49.030  1.00  0.00     0.160 HD
BRANCH   8  10
HETATM   10  C8  UNL     1      22.654   3.096  50.611  1.00  0.00     0.092 A 
HETATM   11  C9  UNL     1      21.820   4.193  50.569  1.00  0.00     0.151 A 
HETATM   12  N2  UNL     1      20.759   4.387  51.409  1.00  0.00    -0.252 NA
HETATM   13  C10 UNL     1      20.538   3.418  52.333  1.00  0.00     0.235 A 
HETATM   14  N3  UNL     1      21.349   2.360  52.367  1.00  0.00    -0.222 NA
HETATM   15  C11 UNL     1      22.394   2.117  51.578  1.00  0.00     0.157 A 
BRANCH  15  16
HETATM   16  N4  UNL     1      23.231   0.984  51.647  1.00  0.00    -0.339 N 
HETATM   17  H13 UNL     1      23.096   0.218  50.972  1.00  0.00     0.167 HD
BRANCH  16  18
HETATM   18  C12 UNL     1      24.283   0.735  52.561  1.00  0.00     0.035 A 
HETATM   19  C13 UNL     1      24.259  -0.226  53.545  1.00  0.00     0.032 A 
HETATM   20  C14 UNL     1      25.279  -0.470  54.436  1.00  0.00     0.046 A 
HETATM   21  C15 UNL     1      26.422   0.292  54.359  1.00  0.00     0.138 A 
HETATM   22  F1  UNL     1      27.472   0.130  55.183  1.00  0.00    -0.204 F 
HETATM   23  C16 UNL     1      26.514   1.270  53.397  1.00  0.00     0.074 A 
HETATM   24 CL1  UNL     1      27.946   2.267  53.255  1.00  0.00    -0.081 Cl
HETATM   25  C17 UNL     1      25.455   1.457  52.541  1.00  0.00     0.056 A 
ENDBRANCH  16  18
ENDBRANCH  15  16
ENDBRANCH   8  10
ENDBRANCH   7   8
ENDBRANCH   6   7
ENDBRANCH   4   5
TORSDOF 6
ENDMDL
MODEL 4
REMARK VINA RESULT:      -7.1      2.440      3.340
REMARK  6 active torsions:
REMARK  status: ('A' for Active; 'I' for Inactive)
REMARK    1  A    between atoms: C4_4  and  C5_5 
REMARK    2  A    between atoms: C6_6  and  C7_7 
REMARK    3  A    between atoms: C7_7  and  N1_8 
REMARK    4  A    between atoms: N1_8  and  C8_9 
REMARK    5  A    between atoms: C11_14  and  N4_15 
REMARK    6  A    between atoms: N4_15  and  C12_16 
ROOT
HETATM    1  C1  UNL     1      28.641   7.180  47.592  1.00  0.00     0.013 C 
HETATM    2  C2  UNL     1      27.509   6.738  48.187  1.00  0.00    -0.009 C 
HETATM    3  C3  UNL     1      26.212   6.376  48.831  1.00  0.00    -0.004 C 
HETATM    4  C4  UNL     1      25.739   5.191  49.330  1.00  0.00    -0.001 C 
ENDROOT
BRANCH   4   5
HETATM    5  C5  UNL     1      26.742   4.155  49.161  1.00  0.00    -0.002 C 
HETATM    6  C6  UNL     1      26.508   3.163  50.029  1.00  0.00    -0.007 C 
BRANCH   6   7
HETATM    7  C7  UNL     1      25.355   3.248  50.968  1.00  0.00     0.147 C 
BRANCH   7   8
HETATM    8  N1  UNL     1      25.677   2.722  52.259  1.00  0.00    -0.382 N 
HETATM    9  H10 UNL     1      25.803   3.460  52.959  1.00  0.00     0.160 HD
BRANCH   8  10
HETATM   10  C8  UNL     1      25.819   1.348  52.589  1.00  0.00     0.092 A 
HETATM   11  C9  UNL     1      27.048   0.765  52.363  1.00  0.00     0.151 A 
HETATM   12  N2  UNL     1      27.345  -0.540  52.644  1.00  0.00    -0.252 NA
HETATM   13  C10 UNL     1      26.344  -1.283  53.178  1.00  0.00     0.235 A 
HETATM   14  N3  UNL     1      25.158  -0.712  53.395  1.00  0.00    -0.222 NA
HETATM   15  C11 UNL     1      24.812   0.549  53.143  1.00  0.00     0.157 A 
BRANCH  15  16
HETATM   16  N4  UNL     1      23.543   1.116  53.384  1.00  0.00    -0.339 N 
HETATM   17  H13 UNL     1      23.433   1.792  54.153  1.00  0.00     0.167 HD
BRANCH  16  18
HETATM   18  C12 UNL     1      22.336   0.875  52.685  1.00  0.00     0.035 A 
HETATM   19  C13 UNL     1      21.164   0.446  53.265  1.00  0.00     0.032 A 
HETATM   20  C14 UNL     1      19.989   0.209  52.588  1.00  0.00     0.046 A 
HETATM   21  C15 UNL     1      19.957   0.406  51.227  1.00  0.00     0.138 A 
HETATM   22  F1  UNL     1      18.859   0.202  50.479  1.00  0.00    -0.204 F 
HETATM   23  C16 UNL     1      21.094   0.836  50.584  1.00  0.00     0.074 A 
HETATM   24 CL1  UNL     1      21.106   1.104  48.854  1.00  0.00    -0.081 Cl
HETATM   25  C17 UNL     1      22.231   1.052  51.325  1.00  0.00     0.056 A 
ENDBRANCH  16  18
ENDBRANCH  15  16
ENDBRANCH   8  10
ENDBRANCH   7   8
ENDBRANCH   6   7
ENDBRANCH   4   5
TORSDOF 6
ENDMDL
MODEL 5
REMARK VINA RESULT:      -7.1      3.306      5.381
REMARK  6 active torsions:
REMARK  status: ('A' for Active; 'I' for Inactive)
REMARK    1  A    between atoms: C4_4  and  C5_5 
REMARK    2  A    between atoms: C6_6  and  C7_7 
REMARK    3  A    between atoms: C7_7  and  N1_8 
REMARK    4  A    between atoms: N1_8  and  C8_9 
REMARK    5  A    between atoms: C11_14  and  N4_15 
REMARK    6  A    between atoms: N4_15  and  C12_16 
ROOT
HETATM    1  C1  UNL     1      25.451   3.754  49.676  1.00  0.00     0.013 C 
HETATM    2  C2  UNL     1      24.686   3.945  50.776  1.00  0.00    -0.009 C 
HETATM    3  C3  UNL     1      23.956   4.155  52.060  1.00  0.00    -0.004 C 
HETATM    4  C4  UNL     1      22.623   4.308  52.339  1.00  0.00    -0.001 C 
ENDROOT
BRANCH   4   5
HETATM    5  C5  UNL     1      21.855   4.241  51.109  1.00  0.00    -0.002 C 
HETATM    6  C6  UNL     1      21.023   3.193  51.160  1.00  0.00    -0.007 C 
BRANCH   6   7
HETATM    7  C7  UNL     1      20.999   2.316  52.363  1.00  0.00     0.147 C 
BRANCH   7   8
HETATM    8  N1  UNL     1      21.851   1.177  52.211  1.00  0.00    -0.382 N 
HETATM    9  H10 UNL     1      22.147   1.040  51.239  1.00  0.00     0.160 HD
BRANCH   8  10
HETATM   10  C8  UNL     1      22.269   0.302  53.250  1.00  0.00     0.092 A 
HETATM   11  C9  UNL     1      21.293  -0.210  54.079  1.00  0.00     0.151 A 
HETATM   12  N2  UNL     1      21.535  -1.074  55.111  1.00  0.00    -0.252 NA
HETATM   13  C10 UNL     1      22.828  -1.433  55.304  1.00  0.00     0.235 A 
HETATM   14  N3  UNL     1      23.766  -0.935  54.497  1.00  0.00    -0.222 NA
HETATM   15  C11 UNL     1      23.592  -0.093  53.480  1.00  0.00     0.157 A 
BRANCH  15  16
HETATM   16  N4  UNL     1      24.612   0.415  52.650  1.00  0.00    -0.339 N 
HETATM   17  H13 UNL     1      24.383   0.691  51.684  1.00  0.00     0.167 HD
BRANCH  16  18
HETATM   18  C12 UNL     1      25.978   0.609  52.970  1.00  0.00     0.035 A 
HETATM   19  C13 UNL     1      26.548   1.821  53.282  1.00  0.00     0.032 A 
HETATM   20  C14 UNL     1      27.876   2.013  53.591  1.00  0.00     0.046 A 
HETATM   21  C15 UNL     1      28.719   0.926  53.595  1.00  0.00     0.138 A 
HETATM   22  F1  UNL     1      30.029   1.012  53.883  1.00  0.00    -0.204 F 
HETATM   23  C16 UNL     1      28.214  -0.317  53.293  1.00  0.00     0.074 A 
HETATM   24 CL1  UNL     1      29.243  -1.732  53.284  1.00  0.00    -0.081 Cl
HETATM   25  C17 UNL     1      26.877  -0.432  52.994  1.00  0.00     0.056 A 
ENDBRANCH  16  18
ENDBRANCH  15  16
ENDBRANCH   8  10
ENDBRANCH   7   8
ENDBRANCH   6   7
ENDBRANCH   4   5
TORSDOF 6
ENDMDL
MODEL 6
REMARK VINA RESULT:      -7.1      3.234      6.353
REMARK  6 active torsions:
REMARK  status: ('A' for Active; 'I' for Inactive)
REMARK    1  A    between atoms: C4_4  and  C5_5 
REMARK    2  A    between atoms: C6_6  and  C7_7 
REMARK    3  A    between atoms: C7_7  and  N1_8 
REMARK    4  A    between atoms: N1_8  and  C8_9 
REMARK    5  A    between atoms: C11_14  and  N4_15 
REMARK    6  A    between atoms: N4_15  and  C12_16 
ROOT
HETATM    1  C1  UNL     1      30.132  -1.154  53.722  1.00  0.00     0.013 C 
HETATM    2  C2  UNL     1      29.287  -0.138  54.010  1.00  0.00    -0.009 C 
HETATM    3  C3  UNL     1      28.403   0.980  54.453  1.00  0.00    -0.004 C 
HETATM    4  C4  UNL     1      27.469   1.726  53.784  1.00  0.00    -0.001 C 
ENDROOT
BRANCH   4   5
HETATM    5  C5  UNL     1      27.388   1.284  52.404  1.00  0.00    -0.002 C 
HETATM    6  C6  UNL     1      26.275   0.558  52.234  1.00  0.00    -0.007 C 
BRANCH   6   7
HETATM    7  C7  UNL     1      25.355   0.322  53.379  1.00  0.00     0.147 C 
BRANCH   7   8
HETATM    8  N1  UNL     1      24.371  -0.673  53.079  1.00  0.00    -0.382 N 
HETATM    9  H10 UNL     1      24.777  -1.496  52.623  1.00  0.00     0.160 HD
BRANCH   8  10
HETATM   10  C8  UNL     1      22.980  -0.582  53.356  1.00  0.00     0.092 A 
HETATM   11  C9  UNL     1      22.503  -1.287  54.440  1.00  0.00     0.151 A 
HETATM   12  N2  UNL     1      21.196  -1.288  54.844  1.00  0.00    -0.252 NA
HETATM   13  C10 UNL     1      20.339  -0.537  54.109  1.00  0.00     0.235 A 
HETATM   14  N3  UNL     1      20.809   0.142  53.061  1.00  0.00    -0.222 NA
HETATM   15  C11 UNL     1      22.065   0.182  52.622  1.00  0.00     0.157 A 
BRANCH  15  16
HETATM   16  N4  UNL     1      22.523   0.912  51.506  1.00  0.00    -0.339 N 
HETATM   17  H13 UNL     1      22.543   0.457  50.582  1.00  0.00     0.167 HD
BRANCH  16  18
HETATM   18  C12 UNL     1      22.985   2.250  51.471  1.00  0.00     0.035 A 
HETATM   19  C13 UNL     1      22.515   3.265  52.272  1.00  0.00     0.032 A 
HETATM   20  C14 UNL     1      22.961   4.567  52.239  1.00  0.00     0.046 A 
HETATM   21  C15 UNL     1      23.951   4.906  51.346  1.00  0.00     0.138 A 
HETATM   22  F1  UNL     1      24.451   6.149  51.239  1.00  0.00    -0.204 F 
HETATM   23  C16 UNL     1      24.467   3.939  50.516  1.00  0.00     0.074 A 
HETATM   24 CL1  UNL     1      25.727   4.317  49.362  1.00  0.00    -0.081 Cl
HETATM   25  C17 UNL     1      23.972   2.659  50.605  1.00  0.00     0.056 A 
ENDBRANCH  16  18
ENDBRANCH  15  16
ENDBRANCH   8  10
ENDBRANCH   7   8
ENDBRANCH   6   7
ENDBRANCH   4   5
TORSDOF 6
ENDMDL
MODEL 7
REMARK VINA RESULT:      -6.7      3.351      6.436
REMARK  6 active torsions:
REMARK  status: ('A' for Active; 'I' for Inactive)
REMARK    1  A    between atoms: C4_4  and  C5_5 
REMARK    2  A    between atoms: C6_6  and  C7_7 
REMARK    3  A    between atoms: C7_7  and  N1_8 
REMARK    4  A    between atoms: N1_8  and  C8_9 
REMARK    5  A    between atoms: C11_14  and  N4_15 
REMARK    6  A    between atoms: N4_15  and  C12_16 
ROOT
HETATM    1  C1  UNL     1      30.144  -1.154  53.745  1.00  0.00     0.013 C 
HETATM    2  C2  UNL     1      29.301  -0.120  53.974  1.00  0.00    -0.009 C 
HETATM    3  C3  UNL     1      28.422   1.025  54.351  1.00  0.00    -0.004 C 
HETATM    4  C4  UNL     1      27.479   1.725  53.644  1.00  0.00    -0.001 C 
ENDROOT
BRANCH   4   5
HETATM    5  C5  UNL     1      27.383   1.192  52.297  1.00  0.00    -0.002 C 
HETATM    6  C6  UNL     1      26.351   0.342  52.228  1.00  0.00    -0.007 C 
BRANCH   6   7
HETATM    7  C7  UNL     1      25.515   0.081  53.432  1.00  0.00     0.147 C 
BRANCH   7   8
HETATM    8  N1  UNL     1      24.351  -0.689  53.118  1.00  0.00    -0.382 N 
HETATM    9  H10 UNL     1      24.572  -1.518  52.557  1.00  0.00     0.160 HD
BRANCH   8  10
HETATM   10  C8  UNL     1      23.019  -0.388  53.512  1.00  0.00     0.092 A 
HETATM   11  C9  UNL     1      22.392  -1.278  54.358  1.00  0.00     0.151 A 
HETATM   12  N2  UNL     1      21.120  -1.119  54.837  1.00  0.00    -0.252 NA
HETATM   13  C10 UNL     1      20.461  -0.004  54.435  1.00  0.00     0.235 A 
HETATM   14  N3  UNL     1      21.076   0.852  53.617  1.00  0.00    -0.222 NA
HETATM   15  C11 UNL     1      22.307   0.751  53.121  1.00  0.00     0.157 A 
BRANCH  15  16
HETATM   16  N4  UNL     1      22.921   1.679  52.254  1.00  0.00    -0.339 N 
HETATM   17  H13 UNL     1      23.677   2.280  52.615  1.00  0.00     0.167 HD
BRANCH  16  18
HETATM   18  C12 UNL     1      22.633   1.917  50.888  1.00  0.00     0.035 A 
HETATM   19  C13 UNL     1      21.913   1.070  50.077  1.00  0.00     0.032 A 
HETATM   20  C14 UNL     1      21.633   1.298  48.749  1.00  0.00     0.046 A 
HETATM   21  C15 UNL     1      22.097   2.452  48.162  1.00  0.00     0.138 A 
HETATM   22  F1  UNL     1      21.876   2.763  46.874  1.00  0.00    -0.204 F 
HETATM   23  C16 UNL     1      22.823   3.344  48.917  1.00  0.00     0.074 A 
HETATM   24 CL1  UNL     1      23.435   4.828  48.219  1.00  0.00    -0.081 Cl
HETATM   25  C17 UNL     1      23.064   3.050  50.237  1.00  0.00     0.056 A 
ENDBRANCH  16  18
ENDBRANCH  15  16
ENDBRANCH   8  10
ENDBRANCH   7   8
ENDBRANCH   6   7
ENDBRANCH   4   5
TORSDOF 6
ENDMDL
MODEL 8
REMARK VINA RESULT:      -6.6      2.592      5.944
REMARK  6 active torsions:
REMARK  status: ('A' for Active; 'I' for Inactive)
REMARK    1  A    between atoms: C4_4  and  C5_5 
REMARK    2  A    between atoms: C6_6  and  C7_7 
REMARK    3  A    between atoms: C7_7  and  N1_8 
REMARK    4  A    between atoms: N1_8  and  C8_9 
REMARK    5  A    between atoms: C11_14  and  N4_15 
REMARK    6  A    between atoms: N4_15  and  C12_16 
ROOT
HETATM    1  C1  UNL     1      30.114  -1.064  53.746  1.00  0.00     0.013 C 
HETATM    2  C2  UNL     1      29.504   0.141  53.660  1.00  0.00    -0.009 C 
HETATM    3  C3  UNL     1      28.922   1.515  53.653  1.00  0.00    -0.004 C 
HETATM    4  C4  UNL     1      27.860   2.054  52.975  1.00  0.00    -0.001 C 
ENDROOT
BRANCH   4   5
HETATM    5  C5  UNL     1      27.251   1.039  52.135  1.00  0.00    -0.002 C 
HETATM    6  C6  UNL     1      26.441   1.626  51.245  1.00  0.00    -0.007 C 
BRANCH   6   7
HETATM    7  C7  UNL     1      26.287   3.107  51.237  1.00  0.00     0.147 C 
BRANCH   7   8
HETATM    8  N1  UNL     1      26.009   3.609  49.926  1.00  0.00    -0.382 N 
HETATM    9  H10 UNL     1      26.570   3.144  49.205  1.00  0.00     0.160 HD
BRANCH   8  10
HETATM   10  C8  UNL     1      25.078   4.632  49.604  1.00  0.00     0.092 A 
HETATM   11  C9  UNL     1      25.446   5.933  49.874  1.00  0.00     0.151 A 
HETATM   12  N2  UNL     1      24.667   7.026  49.606  1.00  0.00    -0.252 NA
HETATM   13  C10 UNL     1      23.461   6.779  49.038  1.00  0.00     0.235 A 
HETATM   14  N3  UNL     1      23.113   5.518  48.779  1.00  0.00    -0.222 NA
HETATM   15  C11 UNL     1      23.826   4.419  49.016  1.00  0.00     0.157 A 
BRANCH  15  16
HETATM   16  N4  UNL     1      23.420   3.099  48.729  1.00  0.00    -0.339 N 
HETATM   17  H13 UNL     1      23.743   2.652  47.859  1.00  0.00     0.167 HD
BRANCH  16  18
HETATM   18  C12 UNL     1      22.587   2.257  49.505  1.00  0.00     0.035 A 
HETATM   19  C13 UNL     1      21.431   1.663  49.055  1.00  0.00     0.032 A 
HETATM   20  C14 UNL     1      20.618   0.845  49.807  1.00  0.00     0.046 A 
HETATM   21  C15 UNL     1      20.965   0.587  51.113  1.00  0.00     0.138 A 
HETATM   22  F1  UNL     1      20.237  -0.197  51.926  1.00  0.00    -0.204 F 
HETATM   23  C16 UNL     1      22.111   1.148  51.627  1.00  0.00     0.074 A 
HETATM   24 CL1  UNL     1      22.598   0.850  53.282  1.00  0.00    -0.081 Cl
HETATM   25  C17 UNL     1      22.873   1.954  50.817  1.00  0.00     0.056 A 
ENDBRANCH  16  18
ENDBRANCH  15  16
ENDBRANCH   8  10
ENDBRANCH   7   8
ENDBRANCH   6   7
ENDBRANCH   4   5
TORSDOF 6
ENDMDL
MODEL 9
REMARK VINA RESULT:      -6.5      7.412      9.776
REMARK  6 active torsions:
REMARK  status: ('A' for Active; 'I' for Inactive)
REMARK    1  A    between atoms: C4_4  and  C5_5 
REMARK    2  A    between atoms: C6_6  and  C7_7 
REMARK    3  A    between atoms: C7_7  and  N1_8 
REMARK    4  A    between atoms: N1_8  and  C8_9 
REMARK    5  A    between atoms: C11_14  and  N4_15 
REMARK    6  A    between atoms: N4_15  and  C12_16 
ROOT
HETATM    1  C1  UNL     1      23.417   5.624  50.862  1.00  0.00     0.013 C 
HETATM    2  C2  UNL     1      24.407   6.230  50.166  1.00  0.00    -0.009 C 
HETATM    3  C3  UNL     1      25.437   7.014  49.424  1.00  0.00    -0.004 C 
HETATM    4  C4  UNL     1      26.575   6.632  48.762  1.00  0.00    -0.001 C 
ENDROOT
BRANCH   4   5
HETATM    5  C5  UNL     1      26.730   5.191  48.849  1.00  0.00    -0.002 C 
HETATM    6  C6  UNL     1      27.999   4.863  48.572  1.00  0.00    -0.007 C 
BRANCH   6   7
HETATM    7  C7  UNL     1      28.989   5.924  48.240  1.00  0.00     0.147 C 
BRANCH   7   8
HETATM    8  N1  UNL     1      30.173   5.817  49.037  1.00  0.00    -0.382 N 
HETATM    9  H10 UNL     1      30.042   5.204  49.848  1.00  0.00     0.160 HD
BRANCH   8  10
HETATM   10  C8  UNL     1      31.413   6.464  48.782  1.00  0.00     0.092 A 
HETATM   11  C9  UNL     1      32.366   5.754  48.084  1.00  0.00     0.151 A 
HETATM   12  N2  UNL     1      33.598   6.243  47.748  1.00  0.00    -0.252 NA
HETATM   13  C10 UNL     1      33.869   7.512  48.141  1.00  0.00     0.235 A 
HETATM   14  N3  UNL     1      32.941   8.193  48.816  1.00  0.00    -0.222 NA
HETATM   15  C11 UNL     1      31.729   7.771  49.170  1.00  0.00     0.157 A 
BRANCH  15  16
HETATM   16  N4  UNL     1      30.775   8.522  49.888  1.00  0.00    -0.339 N 
HETATM   17  H13 UNL     1      30.511   8.222  50.838  1.00  0.00     0.167 HD
BRANCH  16  18
HETATM   18  C12 UNL     1      30.090   9.687  49.467  1.00  0.00     0.035 A 
HETATM   19  C13 UNL     1      30.683  10.904  49.225  1.00  0.00     0.032 A 
HETATM   20  C14 UNL     1      30.020  12.040  48.817  1.00  0.00     0.046 A 
HETATM   21  C15 UNL     1      28.658  11.981  48.633  1.00  0.00     0.138 A 
HETATM   22  F1  UNL     1      27.922  13.034  48.238  1.00  0.00    -0.204 F 
HETATM   23  C16 UNL     1      28.001  10.794  48.856  1.00  0.00     0.074 A 
HETATM   24 CL1  UNL     1      26.269  10.664  48.635  1.00  0.00    -0.081 Cl
HETATM   25  C17 UNL     1      28.729   9.701  49.261  1.00  0.00     0.056 A 
ENDBRANCH  16  18
ENDBRANCH  15  16
ENDBRANCH   8  10
ENDBRANCH   7   8
ENDBRANCH   6   7
ENDBRANCH   4   5
TORSDOF 6
ENDMDL
