MODEL 1
REMARK VINA RESULT:      -8.2      0.000      0.000
REMARK  5 active torsions:
REMARK  status: ('A' for Active; 'I' for Inactive)
REMARK    1  A    between atoms: N1_1  and  C1_2 
REMARK    2  A    between atoms: C1_2  and  O1_3 
REMARK    3  A    between atoms: C1_2  and  S1_4 
REMARK    4  A    between atoms: S1_4  and  C2_5 
REMARK    5  A    between atoms: C2_5  and  N2_6 
ROOT
HETATM    1  N2  UNL     1      22.804   3.693  51.345  1.00  0.00    -0.202 N 
HETATM    2  N3  UNL     1      21.506   4.238  51.287  1.00  0.00    -0.168 NA
HETATM    3  C3  UNL     1      20.482   3.607  50.897  1.00  0.00     0.147 C 
HETATM    4  C4  UNL     1      20.477   2.224  50.448  1.00  0.00    -0.039 C 
HETATM    5  C5  UNL     1      21.406   1.375  50.021  1.00  0.00     0.009 C 
HETATM    6  C6  UNL     1      21.705   0.203  50.877  1.00  0.00     0.003 C 
HETATM    7  C7  UNL     1      20.839   0.453  51.870  1.00  0.00    -0.079 C 
HETATM    8  C8  UNL     1      19.408   0.244  51.414  1.00  0.00     0.039 C 
HETATM    9  C9  UNL     1      19.219   1.397  50.400  1.00  0.00     0.044 C 
HETATM   10  C10 UNL     1      21.114   0.890  53.260  1.00  0.00     0.039 C 
HETATM   11  C11 UNL     1      22.316   0.290  53.883  1.00  0.00     0.045 C 
HETATM   12  C12 UNL     1      23.598   0.558  53.199  1.00  0.00    -0.028 A 
HETATM   13  C13 UNL     1      24.498  -0.489  53.196  1.00  0.00     0.033 A 
HETATM   14  C14 UNL     1      25.758  -0.473  52.631  1.00  0.00     0.034 A 
HETATM   15 CL1  UNL     1      26.831  -1.854  52.677  1.00  0.00    -0.084 Cl
HETATM   16  C15 UNL     1      26.121   0.717  52.018  1.00  0.00     0.026 A 
HETATM   17  C16 UNL     1      25.236   1.778  52.009  1.00  0.00     0.033 A 
HETATM   18  C17 UNL     1      23.967   1.731  52.591  1.00  0.00     0.056 A 
HETATM   19  N4  UNL     1      23.279   2.936  52.436  1.00  0.00    -0.281 N 
HETATM   20  H21 UNL     1      23.023   3.462  53.300  1.00  0.00     0.189 HD
ENDROOT
BRANCH   1  21
HETATM   21  C2  UNL     1      23.331   4.155  50.066  1.00  0.00     0.249 C 
BRANCH  21  22
HETATM   22  S1  UNL     1      24.949   4.910  50.440  1.00  0.00    -0.084 SA
BRANCH  22  23
HETATM   23  C1  UNL     1      24.761   6.649  50.903  1.00  0.00     0.417 C 
BRANCH  23  24
HETATM   24  N1  UNL     1      26.000   7.386  50.723  1.00  0.00     0.117 N 
HETATM   25  H1  UNL     1      26.711   6.956  51.345  1.00  0.00     0.317 HD
HETATM   26  H2  UNL     1      25.800   8.379  50.925  1.00  0.00     0.317 HD
ENDBRANCH  23  24
BRANCH  23  27
HETATM   27  O1  UNL     1      24.287   6.697  52.208  1.00  0.00    -0.360 OA
HETATM   28  H4  UNL     1      24.737   7.405  52.766  1.00  0.00     0.213 HD
ENDBRANCH  23  27
ENDBRANCH  22  23
ENDBRANCH  21  22
ENDBRANCH   1  21
TORSDOF 5
ENDMDL
MODEL 2
REMARK VINA RESULT:      -7.5      3.086      5.161
REMARK  5 active torsions:
REMARK  status: ('A' for Active; 'I' for Inactive)
REMARK    1  A    between atoms: N1_1  and  C1_2 
REMARK    2  A    between atoms: C1_2  and  O1_3 
REMARK    3  A    between atoms: C1_2  and  S1_4 
REMARK    4  A    between atoms: S1_4  and  C2_5 
REMARK    5  A    between atoms: C2_5  and  N2_6 
ROOT
HETATM    1  N2  UNL     1      21.084   2.112  51.200  1.00  0.00    -0.202 N 
HETATM    2  N3  UNL     1      20.459   3.051  50.358  1.00  0.00    -0.168 NA
HETATM    3  C3  UNL     1      20.654   4.300  50.409  1.00  0.00     0.147 C 
HETATM    4  C4  UNL     1      21.551   4.966  51.340  1.00  0.00    -0.039 C 
HETATM    5  C5  UNL     1      22.120   4.630  52.493  1.00  0.00     0.009 C 
HETATM    6  C6  UNL     1      23.595   4.479  52.507  1.00  0.00     0.003 C 
HETATM    7  C7  UNL     1      23.838   4.767  51.220  1.00  0.00    -0.079 C 
HETATM    8  C8  UNL     1      23.603   6.238  50.935  1.00  0.00     0.039 C 
HETATM    9  C9  UNL     1      22.070   6.359  51.102  1.00  0.00     0.044 C 
HETATM   10  C10 UNL     1      24.273   3.864  50.128  1.00  0.00     0.039 C 
HETATM   11  C11 UNL     1      25.244   2.818  50.523  1.00  0.00     0.045 C 
HETATM   12  C12 UNL     1      24.788   1.874  51.563  1.00  0.00    -0.028 A 
HETATM   13  C13 UNL     1      25.751   1.478  52.469  1.00  0.00     0.033 A 
HETATM   14  C14 UNL     1      25.566   0.599  53.518  1.00  0.00     0.034 A 
HETATM   15 CL1  UNL     1      26.852   0.157  54.617  1.00  0.00    -0.084 Cl
HETATM   16  C15 UNL     1      24.283   0.086  53.645  1.00  0.00     0.026 A 
HETATM   17  C16 UNL     1      23.303   0.468  52.750  1.00  0.00     0.033 A 
HETATM   18  C17 UNL     1      23.522   1.360  51.697  1.00  0.00     0.056 A 
HETATM   19  N4  UNL     1      22.364   1.575  50.948  1.00  0.00    -0.281 N 
HETATM   20  H21 UNL     1      22.376   1.288  49.946  1.00  0.00     0.189 HD
ENDROOT
BRANCH   1  21
HETATM   21  C2  UNL     1      20.056   1.964  52.224  1.00  0.00     0.249 C 
BRANCH  21  22
HETATM   22  S1  UNL     1      19.429   0.260  52.054  1.00  0.00    -0.084 SA
BRANCH  22  23
HETATM   23  C1  UNL     1      19.830  -0.727  53.517  1.00  0.00     0.417 C 
BRANCH  23  24
HETATM   24  N1  UNL     1      18.711  -1.560  53.921  1.00  0.00     0.117 N 
HETATM   25  H1  UNL     1      17.959  -1.435  53.217  1.00  0.00     0.317 HD
HETATM   26  H2  UNL     1      18.450  -1.281  54.881  1.00  0.00     0.317 HD
ENDBRANCH  23  24
BRANCH  23  27
HETATM   27  O1  UNL     1      20.249   0.140  54.517  1.00  0.00    -0.360 OA
HETATM   28  H4  UNL     1      19.530   0.340  55.194  1.00  0.00     0.213 HD
ENDBRANCH  23  27
ENDBRANCH  22  23
ENDBRANCH  21  22
ENDBRANCH   1  21
TORSDOF 5
ENDMDL
MODEL 3
REMARK VINA RESULT:      -7.5      2.825      4.415
REMARK  5 active torsions:
REMARK  status: ('A' for Active; 'I' for Inactive)
REMARK    1  A    between atoms: N1_1  and  C1_2 
REMARK    2  A    between atoms: C1_2  and  O1_3 
REMARK    3  A    between atoms: C1_2  and  S1_4 
REMARK    4  A    between atoms: S1_4  and  C2_5 
REMARK    5  A    between atoms: C2_5  and  N2_6 
ROOT
HETATM    1  N2  UNL     1      23.618   2.297  51.964  1.00  0.00    -0.202 N 
HETATM    2  N3  UNL     1      24.128   3.369  51.208  1.00  0.00    -0.168 NA
HETATM    3  C3  UNL     1      23.838   3.594  49.997  1.00  0.00     0.147 C 
HETATM    4  C4  UNL     1      22.935   2.786  49.194  1.00  0.00    -0.039 C 
HETATM    5  C5  UNL     1      22.447   1.553  49.289  1.00  0.00     0.009 C 
HETATM    6  C6  UNL     1      20.991   1.412  49.529  1.00  0.00     0.003 C 
HETATM    7  C7  UNL     1      20.667   2.713  49.566  1.00  0.00    -0.079 C 
HETATM    8  C8  UNL     1      20.771   3.343  48.190  1.00  0.00     0.039 C 
HETATM    9  C9  UNL     1      22.296   3.304  47.932  1.00  0.00     0.044 C 
HETATM   10  C10 UNL     1      20.256   3.540  50.726  1.00  0.00     0.039 C 
HETATM   11  C11 UNL     1      19.389   2.856  51.713  1.00  0.00     0.045 C 
HETATM   12  C12 UNL     1      19.966   1.657  52.356  1.00  0.00    -0.028 A 
HETATM   13  C13 UNL     1      19.079   0.626  52.593  1.00  0.00     0.033 A 
HETATM   14  C14 UNL     1      19.381  -0.582  53.188  1.00  0.00     0.034 A 
HETATM   15 CL1  UNL     1      18.185  -1.833  53.446  1.00  0.00    -0.084 Cl
HETATM   16  C15 UNL     1      20.704  -0.744  53.571  1.00  0.00     0.026 A 
HETATM   17  C16 UNL     1      21.610   0.275  53.344  1.00  0.00     0.033 A 
HETATM   18  C17 UNL     1      21.273   1.488  52.739  1.00  0.00     0.056 A 
HETATM   19  N4  UNL     1      22.375   2.338  52.629  1.00  0.00    -0.281 N 
HETATM   20  H21 UNL     1      22.340   3.245  53.142  1.00  0.00     0.189 HD
ENDROOT
BRANCH   1  21
HETATM   21  C2  UNL     1      24.700   1.332  51.801  1.00  0.00     0.249 C 
BRANCH  21  22
HETATM   22  S1  UNL     1      25.792   1.562  53.244  1.00  0.00    -0.084 SA
BRANCH  22  23
HETATM   23  C1  UNL     1      27.446   2.083  52.728  1.00  0.00     0.417 C 
BRANCH  23  24
HETATM   24  N1  UNL     1      28.190   2.664  53.832  1.00  0.00     0.117 N 
HETATM   25  H1  UNL     1      29.129   2.221  53.844  1.00  0.00     0.317 HD
HETATM   26  H2  UNL     1      27.635   2.514  54.691  1.00  0.00     0.317 HD
ENDBRANCH  23  24
BRANCH  23  27
HETATM   27  O1  UNL     1      27.306   2.951  51.653  1.00  0.00    -0.360 OA
HETATM   28  H4  UNL     1      28.149   3.043  51.108  1.00  0.00     0.213 HD
ENDBRANCH  23  27
ENDBRANCH  22  23
ENDBRANCH  21  22
ENDBRANCH   1  21
TORSDOF 5
ENDMDL
MODEL 4
REMARK VINA RESULT:      -7.4      3.810      5.981
REMARK  5 active torsions:
REMARK  status: ('A' for Active; 'I' for Inactive)
REMARK    1  A    between atoms: N1_1  and  C1_2 
REMARK    2  A    between atoms: C1_2  and  O1_3 
REMARK    3  A    between atoms: C1_2  and  S1_4 
REMARK    4  A    between atoms: S1_4  and  C2_5 
REMARK    5  A    between atoms: C2_5  and  N2_6 
ROOT
HETATM    1  N2  UNL     1      25.782   1.332  52.349  1.00  0.00    -0.202 N 
HETATM    2  N3  UNL     1      26.887   2.195  52.217  1.00  0.00    -0.168 NA
HETATM    3  C3  UNL     1      27.043   3.018  51.270  1.00  0.00     0.147 C 
HETATM    4  C4  UNL     1      26.112   3.207  50.169  1.00  0.00    -0.039 C 
HETATM    5  C5  UNL     1      25.123   2.490  49.646  1.00  0.00     0.009 C 
HETATM    6  C6  UNL     1      23.748   3.026  49.779  1.00  0.00     0.003 C 
HETATM    7  C7  UNL     1      24.035   4.154  50.446  1.00  0.00    -0.079 C 
HETATM    8  C8  UNL     1      24.752   5.149  49.554  1.00  0.00     0.039 C 
HETATM    9  C9  UNL     1      26.112   4.451  49.318  1.00  0.00     0.044 C 
HETATM   10  C10 UNL     1      23.753   4.499  51.860  1.00  0.00     0.039 C 
HETATM   11  C11 UNL     1      22.455   4.014  52.381  1.00  0.00     0.045 C 
HETATM   12  C12 UNL     1      22.258   2.550  52.359  1.00  0.00    -0.028 A 
HETATM   13  C13 UNL     1      20.978   2.128  52.056  1.00  0.00     0.033 A 
HETATM   14  C14 UNL     1      20.553   0.817  51.986  1.00  0.00     0.034 A 
HETATM   15 CL1  UNL     1      18.906   0.379  51.593  1.00  0.00    -0.084 Cl
HETATM   16  C15 UNL     1      21.522  -0.140  52.248  1.00  0.00     0.026 A 
HETATM   17  C16 UNL     1      22.810   0.260  52.554  1.00  0.00     0.033 A 
HETATM   18  C17 UNL     1      23.210   1.596  52.618  1.00  0.00     0.056 A 
HETATM   19  N4  UNL     1      24.562   1.719  52.943  1.00  0.00    -0.281 N 
HETATM   20  H21 UNL     1      24.803   2.204  53.834  1.00  0.00     0.189 HD
ENDROOT
BRANCH   1  21
HETATM   21  C2  UNL     1      26.327   0.124  51.741  1.00  0.00     0.249 C 
BRANCH  21  22
HETATM   22  S1  UNL     1      26.625  -1.034  53.118  1.00  0.00    -0.084 SA
BRANCH  22  23
HETATM   23  C1  UNL     1      28.334  -1.628  53.108  1.00  0.00     0.417 C 
BRANCH  23  24
HETATM   24  N1  UNL     1      28.395  -3.078  53.103  1.00  0.00     0.117 N 
HETATM   25  H1  UNL     1      27.429  -3.431  52.956  1.00  0.00     0.317 HD
HETATM   26  H2  UNL     1      28.825  -3.372  53.995  1.00  0.00     0.317 HD
ENDBRANCH  23  24
BRANCH  23  27
HETATM   27  O1  UNL     1      28.991  -1.061  54.193  1.00  0.00    -0.360 OA
HETATM   28  H4  UNL     1      28.782  -1.521  55.065  1.00  0.00     0.213 HD
ENDBRANCH  23  27
ENDBRANCH  22  23
ENDBRANCH  21  22
ENDBRANCH   1  21
TORSDOF 5
ENDMDL
MODEL 5
REMARK VINA RESULT:      -7.4      3.485      5.210
REMARK  5 active torsions:
REMARK  status: ('A' for Active; 'I' for Inactive)
REMARK    1  A    between atoms: N1_1  and  C1_2 
REMARK    2  A    between atoms: C1_2  and  O1_3 
REMARK    3  A    between atoms: C1_2  and  S1_4 
REMARK    4  A    between atoms: S1_4  and  C2_5 
REMARK    5  A    between atoms: C2_5  and  N2_6 
ROOT
HETATM    1  N2  UNL     1      24.290   1.393  52.186  1.00  0.00    -0.202 N 
HETATM    2  N3  UNL     1      23.781   0.204  52.742  1.00  0.00    -0.168 NA
HETATM    3  C3  UNL     1      22.561   0.004  53.010  1.00  0.00     0.147 C 
HETATM    4  C4  UNL     1      21.492   0.964  52.788  1.00  0.00    -0.039 C 
HETATM    5  C5  UNL     1      21.439   2.278  52.595  1.00  0.00     0.009 C 
HETATM    6  C6  UNL     1      20.987   2.755  51.267  1.00  0.00     0.003 C 
HETATM    7  C7  UNL     1      20.775   1.564  50.687  1.00  0.00    -0.079 C 
HETATM    8  C8  UNL     1      19.563   0.875  51.282  1.00  0.00     0.039 C 
HETATM    9  C9  UNL     1      20.044   0.556  52.718  1.00  0.00     0.044 C 
HETATM   10  C10 UNL     1      21.549   0.898  49.613  1.00  0.00     0.039 C 
HETATM   11  C11 UNL     1      22.069   1.799  48.558  1.00  0.00     0.045 C 
HETATM   12  C12 UNL     1      22.992   2.860  49.014  1.00  0.00    -0.028 A 
HETATM   13  C13 UNL     1      22.865   4.074  48.369  1.00  0.00     0.033 A 
HETATM   14  C14 UNL     1      23.618   5.204  48.613  1.00  0.00     0.034 A 
HETATM   15 CL1  UNL     1      23.383   6.702  47.742  1.00  0.00    -0.084 Cl
HETATM   16  C15 UNL     1      24.581   5.076  49.603  1.00  0.00     0.026 A 
HETATM   17  C16 UNL     1      24.726   3.869  50.262  1.00  0.00     0.033 A 
HETATM   18  C17 UNL     1      23.948   2.742  49.991  1.00  0.00     0.056 A 
HETATM   19  N4  UNL     1      24.299   1.661  50.801  1.00  0.00    -0.281 N 
HETATM   20  H21 UNL     1      24.669   0.806  50.333  1.00  0.00     0.189 HD
ENDROOT
BRANCH   1  21
HETATM   21  C2  UNL     1      24.718   2.079  53.400  1.00  0.00     0.249 C 
BRANCH  21  22
HETATM   22  S1  UNL     1      26.471   1.631  53.632  1.00  0.00    -0.084 SA
BRANCH  22  23
HETATM   23  C1  UNL     1      26.648   0.336  54.884  1.00  0.00     0.417 C 
BRANCH  23  24
HETATM   24  N1  UNL     1      28.024  -0.115  54.992  1.00  0.00     0.117 N 
HETATM   25  H1  UNL     1      28.015  -1.029  55.484  1.00  0.00     0.317 HD
HETATM   26  H2  UNL     1      28.555   0.627  55.477  1.00  0.00     0.317 HD
ENDBRANCH  23  24
BRANCH  23  27
HETATM   27  O1  UNL     1      25.765  -0.688  54.568  1.00  0.00    -0.360 OA
HETATM   28  H4  UNL     1      26.178  -1.604  54.648  1.00  0.00     0.213 HD
ENDBRANCH  23  27
ENDBRANCH  22  23
ENDBRANCH  21  22
ENDBRANCH   1  21
TORSDOF 5
ENDMDL
MODEL 6
REMARK VINA RESULT:      -7.1      2.130      2.424
REMARK  5 active torsions:
REMARK  status: ('A' for Active; 'I' for Inactive)
REMARK    1  A    between atoms: N1_1  and  C1_2 
REMARK    2  A    between atoms: C1_2  and  O1_3 
REMARK    3  A    between atoms: C1_2  and  S1_4 
REMARK    4  A    between atoms: S1_4  and  C2_5 
REMARK    5  A    between atoms: C2_5  and  N2_6 
ROOT
HETATM    1  N2  UNL     1      21.669   3.884  51.141  1.00  0.00    -0.202 N 
HETATM    2  N3  UNL     1      20.298   4.201  51.096  1.00  0.00    -0.168 NA
HETATM    3  C3  UNL     1      19.387   3.394  50.755  1.00  0.00     0.147 C 
HETATM    4  C4  UNL     1      19.604   2.013  50.355  1.00  0.00    -0.039 C 
HETATM    5  C5  UNL     1      20.654   1.315  49.934  1.00  0.00     0.009 C 
HETATM    6  C6  UNL     1      21.161   0.243  50.823  1.00  0.00     0.003 C 
HETATM    7  C7  UNL     1      20.285   0.384  51.828  1.00  0.00    -0.079 C 
HETATM    8  C8  UNL     1      18.901  -0.078  51.417  1.00  0.00     0.039 C 
HETATM    9  C9  UNL     1      18.502   0.987  50.368  1.00  0.00     0.044 C 
HETATM   10  C10 UNL     1      20.509   0.914  53.195  1.00  0.00     0.039 C 
HETATM   11  C11 UNL     1      21.807   0.548  53.808  1.00  0.00     0.045 C 
HETATM   12  C12 UNL     1      23.013   0.998  53.083  1.00  0.00    -0.028 A 
HETATM   13  C13 UNL     1      24.075   0.117  53.093  1.00  0.00     0.033 A 
HETATM   14  C14 UNL     1      25.303   0.320  52.496  1.00  0.00     0.034 A 
HETATM   15 CL1  UNL     1      26.593  -0.859  52.563  1.00  0.00    -0.084 Cl
HETATM   16  C15 UNL     1      25.450   1.530  51.833  1.00  0.00     0.026 A 
HETATM   17  C16 UNL     1      24.400   2.428  51.809  1.00  0.00     0.033 A 
HETATM   18  C17 UNL     1      23.168   2.193  52.424  1.00  0.00     0.056 A 
HETATM   19  N4  UNL     1      22.285   3.259  52.245  1.00  0.00    -0.281 N 
HETATM   20  H21 UNL     1      21.962   3.768  53.096  1.00  0.00     0.189 HD
ENDROOT
BRANCH   1  21
HETATM   21  C2  UNL     1      22.087   4.377  49.833  1.00  0.00     0.249 C 
BRANCH  21  22
HETATM   22  S1  UNL     1      21.695   6.158  49.826  1.00  0.00    -0.084 SA
BRANCH  22  23
HETATM   23  C1  UNL     1      20.287   6.507  48.744  1.00  0.00     0.417 C 
BRANCH  23  24
HETATM   24  N1  UNL     1      19.106   6.871  49.507  1.00  0.00     0.117 N 
HETATM   25  H1  UNL     1      18.276   6.598  48.946  1.00  0.00     0.317 HD
HETATM   26  H2  UNL     1      19.170   7.881  49.711  1.00  0.00     0.317 HD
ENDBRANCH  23  24
BRANCH  23  27
HETATM   27  O1  UNL     1      20.087   5.399  47.931  1.00  0.00    -0.360 OA
HETATM   28  H4  UNL     1      20.802   5.289  47.230  1.00  0.00     0.213 HD
ENDBRANCH  23  27
ENDBRANCH  22  23
ENDBRANCH  21  22
ENDBRANCH   1  21
TORSDOF 5
ENDMDL
MODEL 7
REMARK VINA RESULT:      -7.1      3.202      5.083
REMARK  5 active torsions:
REMARK  status: ('A' for Active; 'I' for Inactive)
REMARK    1  A    between atoms: N1_1  and  C1_2 
REMARK    2  A    between atoms: C1_2  and  O1_3 
REMARK    3  A    between atoms: C1_2  and  S1_4 
REMARK    4  A    between atoms: S1_4  and  C2_5 
REMARK    5  A    between atoms: C2_5  and  N2_6 
ROOT
HETATM    1  N2  UNL     1      21.180   2.041  51.109  1.00  0.00    -0.202 N 
HETATM    2  N3  UNL     1      20.543   2.958  50.252  1.00  0.00    -0.168 NA
HETATM    3  C3  UNL     1      20.689   4.213  50.312  1.00  0.00     0.147 C 
HETATM    4  C4  UNL     1      21.534   4.909  51.269  1.00  0.00    -0.039 C 
HETATM    5  C5  UNL     1      22.083   4.591  52.437  1.00  0.00     0.009 C 
HETATM    6  C6  UNL     1      23.561   4.496  52.492  1.00  0.00     0.003 C 
HETATM    7  C7  UNL     1      23.830   4.798  51.213  1.00  0.00    -0.079 C 
HETATM    8  C8  UNL     1      23.548   6.259  50.925  1.00  0.00     0.039 C 
HETATM    9  C9  UNL     1      22.007   6.322  51.049  1.00  0.00     0.044 C 
HETATM   10  C10 UNL     1      24.328   3.915  50.132  1.00  0.00     0.039 C 
HETATM   11  C11 UNL     1      25.327   2.905  50.551  1.00  0.00     0.045 C 
HETATM   12  C12 UNL     1      24.878   1.940  51.576  1.00  0.00    -0.028 A 
HETATM   13  C13 UNL     1      25.830   1.578  52.508  1.00  0.00     0.033 A 
HETATM   14  C14 UNL     1      25.648   0.690  53.549  1.00  0.00     0.034 A 
HETATM   15 CL1  UNL     1      26.918   0.292  54.683  1.00  0.00    -0.084 Cl
HETATM   16  C15 UNL     1      24.383   0.128  53.639  1.00  0.00     0.026 A 
HETATM   17  C16 UNL     1      23.414   0.476  52.717  1.00  0.00     0.033 A 
HETATM   18  C17 UNL     1      23.629   1.379  51.674  1.00  0.00     0.056 A 
HETATM   19  N4  UNL     1      22.485   1.553  50.892  1.00  0.00    -0.281 N 
HETATM   20  H21 UNL     1      22.536   1.270  49.890  1.00  0.00     0.189 HD
ENDROOT
BRANCH   1  21
HETATM   21  C2  UNL     1      20.130   1.850  52.104  1.00  0.00     0.249 C 
BRANCH  21  22
HETATM   22  S1  UNL     1      19.387   0.225  51.737  1.00  0.00    -0.084 SA
BRANCH  22  23
HETATM   23  C1  UNL     1      17.900   0.407  50.722  1.00  0.00     0.417 C 
BRANCH  23  24
HETATM   24  N1  UNL     1      18.202   1.010  49.437  1.00  0.00     0.117 N 
HETATM   25  H1  UNL     1      17.313   1.381  49.049  1.00  0.00     0.317 HD
HETATM   26  H2  UNL     1      18.654   0.286  48.855  1.00  0.00     0.317 HD
ENDBRANCH  23  24
BRANCH  23  27
HETATM   27  O1  UNL     1      16.967   1.130  51.455  1.00  0.00    -0.360 OA
HETATM   28  H4  UNL     1      16.042   0.734  51.416  1.00  0.00     0.213 HD
ENDBRANCH  23  27
ENDBRANCH  22  23
ENDBRANCH  21  22
ENDBRANCH   1  21
TORSDOF 5
ENDMDL
MODEL 8
REMARK VINA RESULT:      -7.0      8.848     12.087
REMARK  5 active torsions:
REMARK  status: ('A' for Active; 'I' for Inactive)
REMARK    1  A    between atoms: N1_1  and  C1_2 
REMARK    2  A    between atoms: C1_2  and  O1_3 
REMARK    3  A    between atoms: C1_2  and  S1_4 
REMARK    4  A    between atoms: S1_4  and  C2_5 
REMARK    5  A    between atoms: C2_5  and  N2_6 
ROOT
HETATM    1  N2  UNL     1      32.691   6.193  47.534  1.00  0.00    -0.202 N 
HETATM    2  N3  UNL     1      33.925   6.836  47.317  1.00  0.00    -0.168 NA
HETATM    3  C3  UNL     1      34.089   7.833  46.557  1.00  0.00     0.147 C 
HETATM    4  C4  UNL     1      33.035   8.476  45.788  1.00  0.00    -0.039 C 
HETATM    5  C5  UNL     1      31.819   8.120  45.388  1.00  0.00     0.009 C 
HETATM    6  C6  UNL     1      30.668   8.853  45.969  1.00  0.00     0.003 C 
HETATM    7  C7  UNL     1      31.346   9.691  46.766  1.00  0.00    -0.079 C 
HETATM    8  C8  UNL     1      32.095  10.731  45.956  1.00  0.00     0.039 C 
HETATM    9  C9  UNL     1      33.172   9.875  45.247  1.00  0.00     0.044 C 
HETATM   10  C10 UNL     1      31.439   9.702  48.246  1.00  0.00     0.039 C 
HETATM   11  C11 UNL     1      30.190   9.351  48.959  1.00  0.00     0.045 C 
HETATM   12  C12 UNL     1      29.642   8.008  48.678  1.00  0.00    -0.028 A 
HETATM   13  C13 UNL     1      28.264   7.929  48.621  1.00  0.00     0.033 A 
HETATM   14  C14 UNL     1      27.527   6.787  48.383  1.00  0.00     0.034 A 
HETATM   15 CL1  UNL     1      25.779   6.786  48.328  1.00  0.00    -0.084 Cl
HETATM   16  C15 UNL     1      28.267   5.630  48.187  1.00  0.00     0.026 A 
HETATM   17  C16 UNL     1      29.647   5.685  48.240  1.00  0.00     0.033 A 
HETATM   18  C17 UNL     1      30.365   6.858  48.484  1.00  0.00     0.056 A 
HETATM   19  N4  UNL     1      31.743   6.635  48.481  1.00  0.00    -0.281 N 
HETATM   20  H21 UNL     1      32.264   6.816  49.365  1.00  0.00     0.189 HD
ENDROOT
BRANCH   1  21
HETATM   21  C2  UNL     1      32.797   5.106  46.568  1.00  0.00     0.249 C 
BRANCH  21  22
HETATM   22  S1  UNL     1      32.959   3.580  47.554  1.00  0.00    -0.084 SA
BRANCH  22  23
HETATM   23  C1  UNL     1      34.687   3.270  47.989  1.00  0.00     0.417 C 
BRANCH  23  24
HETATM   24  N1  UNL     1      35.198   4.281  48.898  1.00  0.00     0.117 N 
HETATM   25  H1  UNL     1      34.407   4.593  49.494  1.00  0.00     0.317 HD
HETATM   26  H2  UNL     1      35.620   5.028  48.322  1.00  0.00     0.317 HD
ENDBRANCH  23  24
BRANCH  23  27
HETATM   27  O1  UNL     1      35.417   3.183  46.810  1.00  0.00    -0.360 OA
HETATM   28  H4  UNL     1      35.227   2.342  46.289  1.00  0.00     0.213 HD
ENDBRANCH  23  27
ENDBRANCH  22  23
ENDBRANCH  21  22
ENDBRANCH   1  21
TORSDOF 5
ENDMDL
MODEL 9
REMARK VINA RESULT:      -7.0      3.543      5.525
REMARK  5 active torsions:
REMARK  status: ('A' for Active; 'I' for Inactive)
REMARK    1  A    between atoms: N1_1  and  C1_2 
REMARK    2  A    between atoms: C1_2  and  O1_3 
REMARK    3  A    between atoms: C1_2  and  S1_4 
REMARK    4  A    between atoms: S1_4  and  C2_5 
REMARK    5  A    between atoms: C2_5  and  N2_6 
ROOT
HETATM    1  N2  UNL     1      24.409   2.333  51.163  1.00  0.00    -0.202 N 
HETATM    2  N3  UNL     1      23.457   1.386  51.588  1.00  0.00    -0.168 NA
HETATM    3  C3  UNL     1      22.311   1.674  52.037  1.00  0.00     0.147 C 
HETATM    4  C4  UNL     1      21.791   3.024  52.188  1.00  0.00    -0.039 C 
HETATM    5  C5  UNL     1      22.335   4.236  52.241  1.00  0.00     0.009 C 
HETATM    6  C6  UNL     1      22.043   5.164  51.122  1.00  0.00     0.003 C 
HETATM    7  C7  UNL     1      21.256   4.358  50.393  1.00  0.00    -0.079 C 
HETATM    8  C8  UNL     1      19.918   4.139  51.072  1.00  0.00     0.039 C 
HETATM    9  C9  UNL     1      20.318   3.311  52.316  1.00  0.00     0.044 C 
HETATM   10  C10 UNL     1      21.541   3.703  49.095  1.00  0.00     0.039 C 
HETATM   11  C11 UNL     1      22.326   4.514  48.136  1.00  0.00     0.045 C 
HETATM   12  C12 UNL     1      23.669   4.929  48.591  1.00  0.00    -0.028 A 
HETATM   13  C13 UNL     1      24.063   6.194  48.203  1.00  0.00     0.033 A 
HETATM   14  C14 UNL     1      25.271   6.793  48.498  1.00  0.00     0.034 A 
HETATM   15 CL1  UNL     1      25.681   8.406  47.960  1.00  0.00    -0.084 Cl
HETATM   16  C15 UNL     1      26.146   6.029  49.255  1.00  0.00     0.026 A 
HETATM   17  C16 UNL     1      25.773   4.759  49.655  1.00  0.00     0.033 A 
HETATM   18  C17 UNL     1      24.542   4.180  49.340  1.00  0.00     0.056 A 
HETATM   19  N4  UNL     1      24.422   2.894  49.869  1.00  0.00    -0.281 N 
HETATM   20  H21 UNL     1      24.315   2.103  49.199  1.00  0.00     0.189 HD
ENDROOT
BRANCH   1  21
HETATM   21  C2  UNL     1      25.206   2.455  52.378  1.00  0.00     0.249 C 
BRANCH  21  22
HETATM   22  S1  UNL     1      26.870   1.843  51.944  1.00  0.00    -0.084 SA
BRANCH  22  23
HETATM   23  C1  UNL     1      27.892   1.640  53.423  1.00  0.00     0.417 C 
BRANCH  23  24
HETATM   24  N1  UNL     1      27.422   0.543  54.249  1.00  0.00     0.117 N 
HETATM   25  H1  UNL     1      26.581   0.875  54.760  1.00  0.00     0.317 HD
HETATM   26  H2  UNL     1      28.206   0.257  54.857  1.00  0.00     0.317 HD
ENDBRANCH  23  24
BRANCH  23  27
HETATM   27  O1  UNL     1      27.916   2.854  54.097  1.00  0.00    -0.360 OA
HETATM   28  H4  UNL     1      27.418   3.584  53.614  1.00  0.00     0.213 HD
ENDBRANCH  23  27
ENDBRANCH  22  23
ENDBRANCH  21  22
ENDBRANCH   1  21
TORSDOF 5
ENDMDL
