MODEL 1
REMARK VINA RESULT:      -6.9      0.000      0.000
REMARK  7 active torsions:
REMARK  status: ('A' for Active; 'I' for Inactive)
REMARK    1  A    between atoms: C2_2  and  C3_3 
REMARK    2  A    between atoms: C2_2  and  C6_7 
REMARK    3  A    between atoms: C3_3  and  N1_4 
REMARK    4  A    between atoms: C6_7  and  C7_9 
REMARK    5  A    between atoms: C8_10  and  O2_11 
REMARK    6  A    between atoms: O2_11  and  C9_12 
REMARK    7  A    between atoms: C9_12  and  C10_13 
ROOT
HETATM    1  C7  UNL     1      27.167   1.737  52.875  1.00  0.00     0.050 A 
HETATM    2  C8  UNL     1      26.849   0.534  53.268  1.00  0.00     0.083 A 
HETATM    3  C16 UNL     1      27.602  -0.190  54.311  1.00  0.00     0.061 A 
HETATM    4  C17 UNL     1      28.636   0.427  54.856  1.00  0.00     0.138 A 
HETATM    5  O3  UNL     1      28.975   1.689  54.449  1.00  0.00    -0.358 OA
HETATM    6  C18 UNL     1      28.321   2.445  53.466  1.00  0.00     0.220 A 
ENDROOT
BRANCH   1   7
HETATM    7  C6  UNL     1      26.369   2.380  51.839  1.00  0.00     0.190 C 
HETATM    8  O1  UNL     1      26.871   2.394  50.687  1.00  0.00    -0.287 OA
BRANCH   7   9
HETATM    9  C2  UNL     1      25.063   2.982  52.071  1.00  0.00     0.011 C 
HETATM   10  C1  UNL     1      24.593   3.158  53.296  1.00  0.00     0.025 C 
BRANCH   9  11
HETATM   11  C3  UNL     1      24.239   3.408  50.934  1.00  0.00     0.313 C 
BRANCH  11  12
HETATM   12  N1  UNL     1      24.399   4.784  50.580  1.00  0.00     0.084 N 
HETATM   13  C4  UNL     1      23.061   5.393  50.661  1.00  0.00     0.309 C 
HETATM   14  C5  UNL     1      24.899   5.034  49.265  1.00  0.00     0.309 C 
ENDBRANCH  11  12
ENDBRANCH   9  11
ENDBRANCH   7   9
ENDBRANCH   1   7
BRANCH   2  15
HETATM   15  O2  UNL     1      25.773  -0.166  52.735  1.00  0.00    -0.346 OA
BRANCH  15  16
HETATM   16  C9  UNL     1      25.024  -0.992  53.603  1.00  0.00     0.214 C 
BRANCH  16  17
HETATM   17  C10 UNL     1      23.588  -0.581  53.624  1.00  0.00    -0.034 A 
HETATM   18  C11 UNL     1      22.953   0.133  52.645  1.00  0.00     0.009 A 
HETATM   19  C12 UNL     1      21.621   0.458  52.769  1.00  0.00     0.001 A 
HETATM   20  C13 UNL     1      20.872   0.075  53.887  1.00  0.00     0.000 A 
HETATM   21  C14 UNL     1      21.563  -0.646  54.847  1.00  0.00     0.001 A 
HETATM   22  C15 UNL     1      22.896  -0.991  54.761  1.00  0.00     0.009 A 
ENDBRANCH  16  17
ENDBRANCH  15  16
ENDBRANCH   2  15
TORSDOF 7
ENDMDL
MODEL 2
REMARK VINA RESULT:      -6.9      2.761      5.660
REMARK  7 active torsions:
REMARK  status: ('A' for Active; 'I' for Inactive)
REMARK    1  A    between atoms: C2_2  and  C3_3 
REMARK    2  A    between atoms: C2_2  and  C6_7 
REMARK    3  A    between atoms: C3_3  and  N1_4 
REMARK    4  A    between atoms: C6_7  and  C7_9 
REMARK    5  A    between atoms: C8_10  and  O2_11 
REMARK    6  A    between atoms: O2_11  and  C9_12 
REMARK    7  A    between atoms: C9_12  and  C10_13 
ROOT
HETATM    1  C7  UNL     1      24.355  -0.510  54.246  1.00  0.00     0.050 A 
HETATM    2  C8  UNL     1      23.386  -0.292  53.401  1.00  0.00     0.083 A 
HETATM    3  C16 UNL     1      22.021  -0.818  53.598  1.00  0.00     0.061 A 
HETATM    4  C17 UNL     1      21.796  -1.537  54.684  1.00  0.00     0.138 A 
HETATM    5  O3  UNL     1      22.808  -1.770  55.575  1.00  0.00    -0.358 OA
HETATM    6  C18 UNL     1      24.129  -1.314  55.465  1.00  0.00     0.220 A 
ENDROOT
BRANCH   1   7
HETATM    7  C6  UNL     1      25.674   0.048  53.975  1.00  0.00     0.190 C 
HETATM    8  O1  UNL     1      25.902   1.185  54.460  1.00  0.00    -0.287 OA
BRANCH   7   9
HETATM    9  C2  UNL     1      26.701  -0.629  53.194  1.00  0.00     0.011 C 
HETATM   10  C1  UNL     1      26.494  -1.829  52.677  1.00  0.00     0.025 C 
BRANCH   9  11
HETATM   11  C3  UNL     1      27.998   0.019  52.970  1.00  0.00     0.313 C 
BRANCH  11  12
HETATM   12  N1  UNL     1      28.925  -0.142  54.046  1.00  0.00     0.084 N 
HETATM   13  C4  UNL     1      29.375   1.211  54.415  1.00  0.00     0.309 C 
HETATM   14  C5  UNL     1      30.094  -0.910  53.751  1.00  0.00     0.309 C 
ENDBRANCH  11  12
ENDBRANCH   9  11
ENDBRANCH   7   9
ENDBRANCH   1   7
BRANCH   2  15
HETATM   15  O2  UNL     1      23.560   0.456  52.242  1.00  0.00    -0.346 OA
BRANCH  15  16
HETATM   16  C9  UNL     1      22.667   1.525  52.003  1.00  0.00     0.214 C 
BRANCH  16  17
HETATM   17  C10 UNL     1      22.562   1.816  50.541  1.00  0.00    -0.034 A 
HETATM   18  C11 UNL     1      23.275   2.771  49.869  1.00  0.00     0.009 A 
HETATM   19  C12 UNL     1      23.097   2.953  48.517  1.00  0.00     0.001 A 
HETATM   20  C13 UNL     1      22.190   2.181  47.784  1.00  0.00     0.000 A 
HETATM   21  C14 UNL     1      21.494   1.229  48.513  1.00  0.00     0.001 A 
HETATM   22  C15 UNL     1      21.644   1.015  49.867  1.00  0.00     0.009 A 
ENDBRANCH  16  17
ENDBRANCH  15  16
ENDBRANCH   2  15
TORSDOF 7
ENDMDL
MODEL 3
REMARK VINA RESULT:      -6.8      2.216      5.815
REMARK  7 active torsions:
REMARK  status: ('A' for Active; 'I' for Inactive)
REMARK    1  A    between atoms: C2_2  and  C3_3 
REMARK    2  A    between atoms: C2_2  and  C6_7 
REMARK    3  A    between atoms: C3_3  and  N1_4 
REMARK    4  A    between atoms: C6_7  and  C7_9 
REMARK    5  A    between atoms: C8_10  and  O2_11 
REMARK    6  A    between atoms: O2_11  and  C9_12 
REMARK    7  A    between atoms: C9_12  and  C10_13 
ROOT
HETATM    1  C7  UNL     1      24.046  -0.488  53.947  1.00  0.00     0.050 A 
HETATM    2  C8  UNL     1      23.203   0.039  53.101  1.00  0.00     0.083 A 
HETATM    3  C16 UNL     1      21.742   0.006  53.305  1.00  0.00     0.061 A 
HETATM    4  C17 UNL     1      21.292  -0.587  54.397  1.00  0.00     0.138 A 
HETATM    5  O3  UNL     1      22.170  -1.142  55.288  1.00  0.00    -0.358 OA
HETATM    6  C18 UNL     1      23.567  -1.160  55.172  1.00  0.00     0.220 A 
ENDROOT
BRANCH   1   7
HETATM    7  C6  UNL     1      25.474  -0.410  53.668  1.00  0.00     0.190 C 
HETATM    8  O1  UNL     1      25.937  -1.298  52.908  1.00  0.00    -0.287 OA
BRANCH   7   9
HETATM    9  C2  UNL     1      26.357   0.615  54.210  1.00  0.00     0.011 C 
HETATM   10  C1  UNL     1      25.990   1.885  54.256  1.00  0.00     0.025 C 
BRANCH   9  11
HETATM   11  C3  UNL     1      27.682   0.246  54.720  1.00  0.00     0.313 C 
BRANCH  11  12
HETATM   12  N1  UNL     1      28.766   0.685  53.899  1.00  0.00     0.084 N 
HETATM   13  C4  UNL     1      29.654  -0.477  53.725  1.00  0.00     0.309 C 
HETATM   14  C5  UNL     1      29.560   1.748  54.431  1.00  0.00     0.309 C 
ENDBRANCH  11  12
ENDBRANCH   9  11
ENDBRANCH   7   9
ENDBRANCH   1   7
BRANCH   2  15
HETATM   15  O2  UNL     1      23.615   0.677  51.937  1.00  0.00    -0.346 OA
BRANCH  15  16
HETATM   16  C9  UNL     1      23.174   2.001  51.715  1.00  0.00     0.214 C 
BRANCH  16  17
HETATM   17  C10 UNL     1      24.163   2.762  50.893  1.00  0.00    -0.034 A 
HETATM   18  C11 UNL     1      23.872   3.838  50.099  1.00  0.00     0.009 A 
HETATM   19  C12 UNL     1      24.865   4.465  49.382  1.00  0.00     0.001 A 
HETATM   20  C13 UNL     1      26.196   4.034  49.435  1.00  0.00     0.000 A 
HETATM   21  C14 UNL     1      26.434   2.942  50.254  1.00  0.00     0.001 A 
HETATM   22  C15 UNL     1      25.468   2.286  50.988  1.00  0.00     0.009 A 
ENDBRANCH  16  17
ENDBRANCH  15  16
ENDBRANCH   2  15
TORSDOF 7
ENDMDL
MODEL 4
REMARK VINA RESULT:      -6.7      2.051      5.154
REMARK  7 active torsions:
REMARK  status: ('A' for Active; 'I' for Inactive)
REMARK    1  A    between atoms: C2_2  and  C3_3 
REMARK    2  A    between atoms: C2_2  and  C6_7 
REMARK    3  A    between atoms: C3_3  and  N1_4 
REMARK    4  A    between atoms: C6_7  and  C7_9 
REMARK    5  A    between atoms: C8_10  and  O2_11 
REMARK    6  A    between atoms: O2_11  and  C9_12 
REMARK    7  A    between atoms: C9_12  and  C10_13 
ROOT
HETATM    1  C7  UNL     1      21.944   0.575  52.501  1.00  0.00     0.050 A 
HETATM    2  C8  UNL     1      22.659  -0.291  53.166  1.00  0.00     0.083 A 
HETATM    3  C16 UNL     1      22.060  -1.310  54.050  1.00  0.00     0.061 A 
HETATM    4  C17 UNL     1      20.742  -1.326  54.156  1.00  0.00     0.138 A 
HETATM    5  O3  UNL     1      19.986  -0.420  53.462  1.00  0.00    -0.358 OA
HETATM    6  C18 UNL     1      20.471   0.580  52.607  1.00  0.00     0.220 A 
ENDROOT
BRANCH   1   7
HETATM    7  C6  UNL     1      22.618   1.547  51.650  1.00  0.00     0.190 C 
HETATM    8  O1  UNL     1      22.691   1.253  50.430  1.00  0.00    -0.287 OA
BRANCH   7   9
HETATM    9  C2  UNL     1      23.188   2.798  52.132  1.00  0.00     0.011 C 
HETATM   10  C1  UNL     1      22.434   3.866  52.332  1.00  0.00     0.025 C 
BRANCH   9  11
HETATM   11  C3  UNL     1      24.627   2.890  52.407  1.00  0.00     0.313 C 
BRANCH  11  12
HETATM   12  N1  UNL     1      25.456   2.645  51.269  1.00  0.00     0.084 N 
HETATM   13  C4  UNL     1      26.785   2.287  51.791  1.00  0.00     0.309 C 
HETATM   14  C5  UNL     1      25.634   3.750  50.380  1.00  0.00     0.309 C 
ENDBRANCH  11  12
ENDBRANCH   9  11
ENDBRANCH   7   9
ENDBRANCH   1   7
BRANCH   2  15
HETATM   15  O2  UNL     1      24.046  -0.326  53.095  1.00  0.00    -0.346 OA
BRANCH  15  16
HETATM   16  C9  UNL     1      24.769  -0.463  54.301  1.00  0.00     0.214 C 
BRANCH  16  17
HETATM   17  C10 UNL     1      26.238  -0.549  54.037  1.00  0.00    -0.034 A 
HETATM   18  C11 UNL     1      26.823  -1.287  53.045  1.00  0.00     0.009 A 
HETATM   19  C12 UNL     1      28.191  -1.293  52.893  1.00  0.00     0.001 A 
HETATM   20  C13 UNL     1      29.028  -0.554  53.737  1.00  0.00     0.000 A 
HETATM   21  C14 UNL     1      28.383   0.174  54.724  1.00  0.00     0.001 A 
HETATM   22  C15 UNL     1      27.017   0.207  54.909  1.00  0.00     0.009 A 
ENDBRANCH  16  17
ENDBRANCH  15  16
ENDBRANCH   2  15
TORSDOF 7
ENDMDL
MODEL 5
REMARK VINA RESULT:      -6.6      1.901      4.959
REMARK  7 active torsions:
REMARK  status: ('A' for Active; 'I' for Inactive)
REMARK    1  A    between atoms: C2_2  and  C3_3 
REMARK    2  A    between atoms: C2_2  and  C6_7 
REMARK    3  A    between atoms: C3_3  and  N1_4 
REMARK    4  A    between atoms: C6_7  and  C7_9 
REMARK    5  A    between atoms: C8_10  and  O2_11 
REMARK    6  A    between atoms: O2_11  and  C9_12 
REMARK    7  A    between atoms: C9_12  and  C10_13 
ROOT
HETATM    1  C7  UNL     1      22.784   0.568  53.248  1.00  0.00     0.050 A 
HETATM    2  C8  UNL     1      23.838  -0.092  53.643  1.00  0.00     0.083 A 
HETATM    3  C16 UNL     1      23.791  -1.106  54.714  1.00  0.00     0.061 A 
HETATM    4  C17 UNL     1      22.620  -1.338  55.281  1.00  0.00     0.138 A 
HETATM    5  O3  UNL     1      21.510  -0.649  54.873  1.00  0.00    -0.358 OA
HETATM    6  C18 UNL     1      21.466   0.330  53.871  1.00  0.00     0.220 A 
ENDROOT
BRANCH   1   7
HETATM    7  C6  UNL     1      22.921   1.553  52.182  1.00  0.00     0.190 C 
HETATM    8  O1  UNL     1      22.861   1.106  51.009  1.00  0.00    -0.287 OA
BRANCH   7   9
HETATM    9  C2  UNL     1      23.115   2.979  52.409  1.00  0.00     0.011 C 
HETATM   10  C1  UNL     1      24.236   3.446  52.933  1.00  0.00     0.025 C 
BRANCH   9  11
HETATM   11  C3  UNL     1      22.054   3.929  52.054  1.00  0.00     0.313 C 
BRANCH  11  12
HETATM   12  N1  UNL     1      22.373   4.773  50.947  1.00  0.00     0.084 N 
HETATM   13  C4  UNL     1      21.673   6.048  51.180  1.00  0.00     0.309 C 
HETATM   14  C5  UNL     1      21.967   4.296  49.662  1.00  0.00     0.309 C 
ENDBRANCH  11  12
ENDBRANCH   9  11
ENDBRANCH   7   9
ENDBRANCH   1   7
BRANCH   2  15
HETATM   15  O2  UNL     1      25.096   0.106  53.084  1.00  0.00    -0.346 OA
BRANCH  15  16
HETATM   16  C9  UNL     1      25.909  -1.027  52.862  1.00  0.00     0.214 C 
BRANCH  16  17
HETATM   17  C10 UNL     1      27.348  -0.710  53.108  1.00  0.00    -0.034 A 
HETATM   18  C11 UNL     1      28.365  -1.624  53.153  1.00  0.00     0.009 A 
HETATM   19  C12 UNL     1      29.659  -1.219  53.388  1.00  0.00     0.001 A 
HETATM   20  C13 UNL     1      29.983   0.128  53.589  1.00  0.00     0.000 A 
HETATM   21  C14 UNL     1      28.916   1.010  53.533  1.00  0.00     0.001 A 
HETATM   22  C15 UNL     1      27.606   0.645  53.300  1.00  0.00     0.009 A 
ENDBRANCH  16  17
ENDBRANCH  15  16
ENDBRANCH   2  15
TORSDOF 7
ENDMDL
MODEL 6
REMARK VINA RESULT:      -6.6      1.853      4.981
REMARK  7 active torsions:
REMARK  status: ('A' for Active; 'I' for Inactive)
REMARK    1  A    between atoms: C2_2  and  C3_3 
REMARK    2  A    between atoms: C2_2  and  C6_7 
REMARK    3  A    between atoms: C3_3  and  N1_4 
REMARK    4  A    between atoms: C6_7  and  C7_9 
REMARK    5  A    between atoms: C8_10  and  O2_11 
REMARK    6  A    between atoms: O2_11  and  C9_12 
REMARK    7  A    between atoms: C9_12  and  C10_13 
ROOT
HETATM    1  C7  UNL     1      22.520   0.803  52.820  1.00  0.00     0.050 A 
HETATM    2  C8  UNL     1      23.503   0.131  53.353  1.00  0.00     0.083 A 
HETATM    3  C16 UNL     1      23.304  -0.844  54.443  1.00  0.00     0.061 A 
HETATM    4  C17 UNL     1      22.070  -1.027  54.880  1.00  0.00     0.138 A 
HETATM    5  O3  UNL     1      21.034  -0.325  54.326  1.00  0.00    -0.358 OA
HETATM    6  C18 UNL     1      21.133   0.620  53.295  1.00  0.00     0.220 A 
ENDROOT
BRANCH   1   7
HETATM    7  C6  UNL     1      22.805   1.746  51.746  1.00  0.00     0.190 C 
HETATM    8  O1  UNL     1      22.751   1.285  50.579  1.00  0.00    -0.287 OA
BRANCH   7   9
HETATM    9  C2  UNL     1      23.137   3.149  51.960  1.00  0.00     0.011 C 
HETATM   10  C1  UNL     1      22.196   4.053  52.180  1.00  0.00     0.025 C 
BRANCH   9  11
HETATM   11  C3  UNL     1      24.538   3.584  51.932  1.00  0.00     0.313 C 
BRANCH  11  12
HETATM   12  N1  UNL     1      25.116   3.608  50.625  1.00  0.00     0.084 N 
HETATM   13  C4  UNL     1      26.414   2.922  50.730  1.00  0.00     0.309 C 
HETATM   14  C5  UNL     1      25.366   4.906  50.079  1.00  0.00     0.309 C 
ENDBRANCH  11  12
ENDBRANCH   9  11
ENDBRANCH   7   9
ENDBRANCH   1   7
BRANCH   2  15
HETATM   15  O2  UNL     1      24.821   0.277  52.937  1.00  0.00    -0.346 OA
BRANCH  15  16
HETATM   16  C9  UNL     1      25.660  -0.858  52.979  1.00  0.00     0.214 C 
BRANCH  16  17
HETATM   17  C10 UNL     1      27.080  -0.465  53.229  1.00  0.00    -0.034 A 
HETATM   18  C11 UNL     1      27.507   0.792  53.561  1.00  0.00     0.009 A 
HETATM   19  C12 UNL     1      28.844   1.043  53.769  1.00  0.00     0.001 A 
HETATM   20  C13 UNL     1      29.808   0.036  53.652  1.00  0.00     0.000 A 
HETATM   21  C14 UNL     1      29.321  -1.217  53.314  1.00  0.00     0.001 A 
HETATM   22  C15 UNL     1      27.991  -1.509  53.097  1.00  0.00     0.009 A 
ENDBRANCH  16  17
ENDBRANCH  15  16
ENDBRANCH   2  15
TORSDOF 7
ENDMDL
MODEL 7
REMARK VINA RESULT:      -6.6      2.403      6.598
REMARK  7 active torsions:
REMARK  status: ('A' for Active; 'I' for Inactive)
REMARK    1  A    between atoms: C2_2  and  C3_3 
REMARK    2  A    between atoms: C2_2  and  C6_7 
REMARK    3  A    between atoms: C3_3  and  N1_4 
REMARK    4  A    between atoms: C6_7  and  C7_9 
REMARK    5  A    between atoms: C8_10  and  O2_11 
REMARK    6  A    between atoms: O2_11  and  C9_12 
REMARK    7  A    between atoms: C9_12  and  C10_13 
ROOT
HETATM    1  C7  UNL     1      24.278   1.030  52.838  1.00  0.00     0.050 A 
HETATM    2  C8  UNL     1      23.939   1.755  51.808  1.00  0.00     0.083 A 
HETATM    3  C16 UNL     1      22.580   1.740  51.233  1.00  0.00     0.061 A 
HETATM    4  C17 UNL     1      21.686   0.951  51.803  1.00  0.00     0.138 A 
HETATM    5  O3  UNL     1      22.034   0.187  52.883  1.00  0.00    -0.358 OA
HETATM    6  C18 UNL     1      23.298   0.137  53.489  1.00  0.00     0.220 A 
ENDROOT
BRANCH   1   7
HETATM    7  C6  UNL     1      25.643   1.106  53.343  1.00  0.00     0.190 C 
HETATM    8  O1  UNL     1      25.850   1.956  54.245  1.00  0.00    -0.287 OA
BRANCH   7   9
HETATM    9  C2  UNL     1      26.737   0.271  52.865  1.00  0.00     0.011 C 
HETATM   10  C1  UNL     1      26.526  -0.964  52.440  1.00  0.00     0.025 C 
BRANCH   9  11
HETATM   11  C3  UNL     1      28.107   0.796  52.848  1.00  0.00     0.313 C 
BRANCH  11  12
HETATM   12  N1  UNL     1      28.911   0.366  53.949  1.00  0.00     0.084 N 
HETATM   13  C4  UNL     1      29.401   1.587  54.610  1.00  0.00     0.309 C 
HETATM   14  C5  UNL     1      30.055  -0.422  53.614  1.00  0.00     0.309 C 
ENDBRANCH  11  12
ENDBRANCH   9  11
ENDBRANCH   7   9
ENDBRANCH   1   7
BRANCH   2  15
HETATM   15  O2  UNL     1      24.833   2.605  51.167  1.00  0.00    -0.346 OA
BRANCH  15  16
HETATM   16  C9  UNL     1      24.465   3.127  49.907  1.00  0.00     0.214 C 
BRANCH  16  17
HETATM   17  C10 UNL     1      25.479   4.109  49.418  1.00  0.00    -0.034 A 
HETATM   18  C11 UNL     1      26.813   3.853  49.248  1.00  0.00     0.009 A 
HETATM   19  C12 UNL     1      27.660   4.836  48.790  1.00  0.00     0.001 A 
HETATM   20  C13 UNL     1      27.198   6.121  48.483  1.00  0.00     0.000 A 
HETATM   21  C14 UNL     1      25.841   6.326  48.673  1.00  0.00     0.001 A 
HETATM   22  C15 UNL     1      24.959   5.368  49.130  1.00  0.00     0.009 A 
ENDBRANCH  16  17
ENDBRANCH  15  16
ENDBRANCH   2  15
TORSDOF 7
ENDMDL
MODEL 8
REMARK VINA RESULT:      -6.5      2.328      5.150
REMARK  7 active torsions:
REMARK  status: ('A' for Active; 'I' for Inactive)
REMARK    1  A    between atoms: C2_2  and  C3_3 
REMARK    2  A    between atoms: C2_2  and  C6_7 
REMARK    3  A    between atoms: C3_3  and  N1_4 
REMARK    4  A    between atoms: C6_7  and  C7_9 
REMARK    5  A    between atoms: C8_10  and  O2_11 
REMARK    6  A    between atoms: O2_11  and  C9_12 
REMARK    7  A    between atoms: C9_12  and  C10_13 
ROOT
HETATM    1  C7  UNL     1      23.080   1.679  52.278  1.00  0.00     0.050 A 
HETATM    2  C8  UNL     1      24.015   0.875  52.706  1.00  0.00     0.083 A 
HETATM    3  C16 UNL     1      23.723  -0.439  53.310  1.00  0.00     0.061 A 
HETATM    4  C17 UNL     1      22.455  -0.795  53.412  1.00  0.00     0.138 A 
HETATM    5  O3  UNL     1      21.469   0.043  52.967  1.00  0.00    -0.358 OA
HETATM    6  C18 UNL     1      21.655   1.305  52.386  1.00  0.00     0.220 A 
ENDROOT
BRANCH   1   7
HETATM    7  C6  UNL     1      23.457   2.959  51.693  1.00  0.00     0.190 C 
HETATM    8  O1  UNL     1      23.566   3.920  52.495  1.00  0.00    -0.287 OA
BRANCH   7   9
HETATM    9  C2  UNL     1      23.704   3.165  50.272  1.00  0.00     0.011 C 
HETATM   10  C1  UNL     1      24.933   3.197  49.784  1.00  0.00     0.025 C 
BRANCH   9  11
HETATM   11  C3  UNL     1      22.576   3.343  49.350  1.00  0.00     0.313 C 
BRANCH  11  12
HETATM   12  N1  UNL     1      22.488   2.341  48.335  1.00  0.00     0.084 N 
HETATM   13  C4  UNL     1      22.047   3.028  47.109  1.00  0.00     0.309 C 
HETATM   14  C5  UNL     1      21.561   1.282  48.584  1.00  0.00     0.309 C 
ENDBRANCH  11  12
ENDBRANCH   9  11
ENDBRANCH   7   9
ENDBRANCH   1   7
BRANCH   2  15
HETATM   15  O2  UNL     1      25.366   1.192  52.625  1.00  0.00    -0.346 OA
BRANCH  15  16
HETATM   16  C9  UNL     1      26.129   1.150  53.813  1.00  0.00     0.214 C 
BRANCH  16  17
HETATM   17  C10 UNL     1      27.362   0.327  53.628  1.00  0.00    -0.034 A 
HETATM   18  C11 UNL     1      27.389  -0.983  53.233  1.00  0.00     0.009 A 
HETATM   19  C12 UNL     1      28.587  -1.646  53.095  1.00  0.00     0.001 A 
HETATM   20  C13 UNL     1      29.810  -1.017  53.349  1.00  0.00     0.000 A 
HETATM   21  C14 UNL     1      29.725   0.309  53.746  1.00  0.00     0.001 A 
HETATM   22  C15 UNL     1      28.546   1.009  53.896  1.00  0.00     0.009 A 
ENDBRANCH  16  17
ENDBRANCH  15  16
ENDBRANCH   2  15
TORSDOF 7
ENDMDL
MODEL 9
REMARK VINA RESULT:      -6.3      2.204      5.147
REMARK  7 active torsions:
REMARK  status: ('A' for Active; 'I' for Inactive)
REMARK    1  A    between atoms: C2_2  and  C3_3 
REMARK    2  A    between atoms: C2_2  and  C6_7 
REMARK    3  A    between atoms: C3_3  and  N1_4 
REMARK    4  A    between atoms: C6_7  and  C7_9 
REMARK    5  A    between atoms: C8_10  and  O2_11 
REMARK    6  A    between atoms: O2_11  and  C9_12 
REMARK    7  A    between atoms: C9_12  and  C10_13 
ROOT
HETATM    1  C7  UNL     1      24.511   3.855  49.669  1.00  0.00     0.050 A 
HETATM    2  C8  UNL     1      25.797   3.641  49.703  1.00  0.00     0.083 A 
HETATM    3  C16 UNL     1      26.783   4.617  49.200  1.00  0.00     0.061 A 
HETATM    4  C17 UNL     1      26.319   5.749  48.700  1.00  0.00     0.138 A 
HETATM    5  O3  UNL     1      24.971   5.981  48.661  1.00  0.00    -0.358 OA
HETATM    6  C18 UNL     1      23.968   5.110  49.111  1.00  0.00     0.220 A 
ENDROOT
BRANCH   1   7
HETATM    7  C6  UNL     1      23.607   2.836  50.188  1.00  0.00     0.190 C 
HETATM    8  O1  UNL     1      23.013   2.138  49.328  1.00  0.00    -0.287 OA
BRANCH   7   9
HETATM    9  C2  UNL     1      23.372   2.600  51.606  1.00  0.00     0.011 C 
HETATM   10  C1  UNL     1      23.474   3.577  52.493  1.00  0.00     0.025 C 
BRANCH   9  11
HETATM   11  C3  UNL     1      23.013   1.257  52.076  1.00  0.00     0.313 C 
BRANCH  11  12
HETATM   12  N1  UNL     1      21.635   1.109  52.424  1.00  0.00     0.084 N 
HETATM   13  C4  UNL     1      21.604   0.360  53.692  1.00  0.00     0.309 C 
HETATM   14  C5  UNL     1      20.830   0.389  51.487  1.00  0.00     0.309 C 
ENDBRANCH  11  12
ENDBRANCH   9  11
ENDBRANCH   7   9
ENDBRANCH   1   7
BRANCH   2  15
HETATM   15  O2  UNL     1      26.346   2.472  50.217  1.00  0.00    -0.346 OA
BRANCH  15  16
HETATM   16  C9  UNL     1      27.044   2.550  51.443  1.00  0.00     0.214 C 
BRANCH  16  17
HETATM   17  C10 UNL     1      26.692   1.401  52.332  1.00  0.00    -0.034 A 
HETATM   18  C11 UNL     1      26.556   0.101  51.930  1.00  0.00     0.009 A 
HETATM   19  C12 UNL     1      26.228  -0.880  52.838  1.00  0.00     0.001 A 
HETATM   20  C13 UNL     1      26.024  -0.591  54.192  1.00  0.00     0.000 A 
HETATM   21  C14 UNL     1      26.174   0.741  54.544  1.00  0.00     0.001 A 
HETATM   22  C15 UNL     1      26.501   1.753  53.666  1.00  0.00     0.009 A 
ENDBRANCH  16  17
ENDBRANCH  15  16
ENDBRANCH   2  15
TORSDOF 7
ENDMDL
