MODEL 1
REMARK VINA RESULT:      -9.9      0.000      0.000
REMARK  3 active torsions:
REMARK  status: ('A' for Active; 'I' for Inactive)
REMARK    1  A    between atoms: C2_2  and  N1_3 
REMARK    2  A    between atoms: C2_2  and  C14_17 
REMARK    3  A    between atoms: N1_3  and  C3_4 
ROOT
HETATM    1  N1  UNL     1      25.318   1.862  51.604  1.00  0.00     0.104 N 
HETATM    2  H5  UNL     1      25.945   1.482  50.899  1.00  0.00     0.317 HD
ENDROOT
BRANCH   1   3
HETATM    3  C2  UNL     1      24.534   2.963  51.148  1.00  0.00     0.251 C 
HETATM    4  C1  UNL     1      23.493   2.356  50.187  1.00  0.00     0.048 C 
BRANCH   3   5
HETATM    5  C14 UNL     1      25.371   3.868  50.348  1.00  0.00    -0.015 A 
HETATM    6  C15 UNL     1      26.455   3.459  49.601  1.00  0.00     0.010 A 
HETATM    7  C16 UNL     1      27.253   4.279  48.840  1.00  0.00     0.002 A 
HETATM    8  C17 UNL     1      26.968   5.628  48.805  1.00  0.00     0.012 A 
HETATM    9  C18 UNL     1      25.902   6.124  49.521  1.00  0.00    -0.025 A 
HETATM   10  C19 UNL     1      25.614   7.471  49.487  1.00  0.00     0.012 A 
HETATM   11  C23 UNL     1      25.149   5.236  50.260  1.00  0.00    -0.018 A 
HETATM   12  C20 UNL     1      24.557   7.996  50.190  1.00  0.00     0.001 A 
HETATM   13  C21 UNL     1      23.788   7.147  50.932  1.00  0.00     0.001 A 
HETATM   14  C22 UNL     1      24.098   5.803  50.950  1.00  0.00     0.013 A 
ENDBRANCH   3   5
ENDBRANCH   1   3
BRANCH   1  15
HETATM   15  C3  UNL     1      25.876   2.018  52.793  1.00  0.00     0.309 C 
HETATM   16  C4  UNL     1      25.476   1.247  54.056  1.00  0.00     0.157 C 
HETATM   17  N2  UNL     1      26.626   1.190  54.798  1.00  0.00    -0.097 NA
HETATM   18  N3  UNL     1      27.875   1.670  54.253  1.00  0.00     0.064 N 
HETATM   19  C5  UNL     1      28.668   2.232  53.243  1.00  0.00     0.302 A 
HETATM   20  C13 UNL     1      29.023   0.764  54.598  1.00  0.00     0.308 C 
HETATM   21  C6  UNL     1      27.357   1.952  53.017  1.00  0.00     0.250 A 
HETATM   22  C12 UNL     1      28.645  -0.357  53.480  1.00  0.00    -0.021 A 
HETATM   23  C7  UNL     1      27.410   0.297  53.125  1.00  0.00    -0.007 A 
HETATM   24  C11 UNL     1      29.193  -1.557  53.381  1.00  0.00     0.009 A 
HETATM   25  C8  UNL     1      26.514  -0.698  52.484  1.00  0.00     0.010 A 
HETATM   26  C9  UNL     1      26.993  -1.972  52.340  1.00  0.00     0.001 A 
HETATM   27  C10 UNL     1      28.244  -2.334  52.767  1.00  0.00     0.001 A 
ENDBRANCH   1  15
TORSDOF 3
ENDMDL
MODEL 2
REMARK VINA RESULT:      -9.7      3.064      5.045
REMARK  3 active torsions:
REMARK  status: ('A' for Active; 'I' for Inactive)
REMARK    1  A    between atoms: C2_2  and  N1_3 
REMARK    2  A    between atoms: C2_2  and  C14_17 
REMARK    3  A    between atoms: N1_3  and  C3_4 
ROOT
HETATM    1  N1  UNL     1      24.821   0.638  52.210  1.00  0.00     0.104 N 
HETATM    2  H5  UNL     1      25.388   0.401  51.399  1.00  0.00     0.317 HD
ENDROOT
BRANCH   1   3
HETATM    3  C2  UNL     1      23.655   1.398  51.899  1.00  0.00     0.251 C 
HETATM    4  C1  UNL     1      23.797   2.713  52.691  1.00  0.00     0.048 C 
BRANCH   3   5
HETATM    5  C14 UNL     1      22.465   0.714  52.425  1.00  0.00    -0.015 A 
HETATM    6  C15 UNL     1      22.435   0.026  53.619  1.00  0.00     0.010 A 
HETATM    7  C16 UNL     1      21.339  -0.619  54.140  1.00  0.00     0.002 A 
HETATM    8  C17 UNL     1      20.159  -0.593  53.426  1.00  0.00     0.012 A 
HETATM    9  C18 UNL     1      20.099   0.072  52.222  1.00  0.00    -0.025 A 
HETATM   10  C19 UNL     1      18.920   0.101  51.508  1.00  0.00     0.012 A 
HETATM   11  C23 UNL     1      21.241   0.695  51.768  1.00  0.00    -0.018 A 
HETATM   12  C20 UNL     1      18.828   0.757  50.304  1.00  0.00     0.001 A 
HETATM   13  C21 UNL     1      19.940   1.386  49.823  1.00  0.00     0.001 A 
HETATM   14  C22 UNL     1      21.107   1.341  50.557  1.00  0.00     0.013 A 
ENDBRANCH   3   5
ENDBRANCH   1   3
BRANCH   1  15
HETATM   15  C3  UNL     1      25.520   1.070  53.246  1.00  0.00     0.309 C 
HETATM   16  C4  UNL     1      25.594   0.367  54.607  1.00  0.00     0.157 C 
HETATM   17  N2  UNL     1      26.828   0.703  55.096  1.00  0.00    -0.097 NA
HETATM   18  N3  UNL     1      27.766   1.436  54.279  1.00  0.00     0.064 N 
HETATM   19  C5  UNL     1      28.167   2.073  53.096  1.00  0.00     0.302 A 
HETATM   20  C13 UNL     1      29.168   0.915  54.428  1.00  0.00     0.308 C 
HETATM   21  C6  UNL     1      26.972   1.428  53.163  1.00  0.00     0.250 A 
HETATM   22  C12 UNL     1      28.928  -0.384  53.478  1.00  0.00    -0.021 A 
HETATM   23  C7  UNL     1      27.514  -0.128  53.350  1.00  0.00    -0.007 A 
HETATM   24  C11 UNL     1      29.766  -1.396  53.335  1.00  0.00     0.009 A 
HETATM   25  C8  UNL     1      26.837  -1.393  52.966  1.00  0.00     0.010 A 
HETATM   26  C9  UNL     1      27.624  -2.500  52.798  1.00  0.00     0.001 A 
HETATM   27  C10 UNL     1      28.983  -2.463  52.976  1.00  0.00     0.001 A 
ENDBRANCH   1  15
TORSDOF 3
ENDMDL
MODEL 3
REMARK VINA RESULT:      -9.6      2.500      3.711
REMARK  3 active torsions:
REMARK  status: ('A' for Active; 'I' for Inactive)
REMARK    1  A    between atoms: C2_2  and  N1_3 
REMARK    2  A    between atoms: C2_2  and  C14_17 
REMARK    3  A    between atoms: N1_3  and  C3_4 
ROOT
HETATM    1  N1  UNL     1      25.249   1.321  51.828  1.00  0.00     0.104 N 
HETATM    2  H5  UNL     1      25.864   0.943  51.111  1.00  0.00     0.317 HD
ENDROOT
BRANCH   1   3
HETATM    3  C2  UNL     1      24.410   2.380  51.373  1.00  0.00     0.251 C 
HETATM    4  C1  UNL     1      24.118   3.239  52.619  1.00  0.00     0.048 C 
BRANCH   3   5
HETATM    5  C14 UNL     1      23.122   1.832  50.925  1.00  0.00    -0.015 A 
HETATM    6  C15 UNL     1      22.406   0.879  51.617  1.00  0.00     0.010 A 
HETATM    7  C16 UNL     1      21.199   0.350  51.227  1.00  0.00     0.002 A 
HETATM    8  C17 UNL     1      20.636   0.793  50.049  1.00  0.00     0.012 A 
HETATM    9  C18 UNL     1      21.282   1.745  49.293  1.00  0.00    -0.025 A 
HETATM   10  C19 UNL     1      20.721   2.191  48.116  1.00  0.00     0.012 A 
HETATM   11  C23 UNL     1      22.489   2.226  49.753  1.00  0.00    -0.018 A 
HETATM   12  C20 UNL     1      21.341   3.140  47.341  1.00  0.00     0.001 A 
HETATM   13  C21 UNL     1      22.538   3.640  47.764  1.00  0.00     0.001 A 
HETATM   14  C22 UNL     1      23.079   3.178  48.946  1.00  0.00     0.013 A 
ENDBRANCH   3   5
ENDBRANCH   1   3
BRANCH   1  15
HETATM   15  C3  UNL     1      25.843   1.528  52.991  1.00  0.00     0.309 C 
HETATM   16  C4  UNL     1      25.567   0.728  54.271  1.00  0.00     0.157 C 
HETATM   17  N2  UNL     1      26.750   0.775  54.961  1.00  0.00    -0.097 NA
HETATM   18  N3  UNL     1      27.926   1.360  54.362  1.00  0.00     0.064 N 
HETATM   19  C5  UNL     1      28.622   1.987  53.318  1.00  0.00     0.302 A 
HETATM   20  C13 UNL     1      29.164   0.559  54.655  1.00  0.00     0.308 C 
HETATM   21  C6  UNL     1      27.332   1.592  53.150  1.00  0.00     0.250 A 
HETATM   22  C12 UNL     1      28.837  -0.594  53.554  1.00  0.00    -0.021 A 
HETATM   23  C7  UNL     1      27.535  -0.051  53.254  1.00  0.00    -0.007 A 
HETATM   24  C11 UNL     1      29.483  -1.741  53.429  1.00  0.00     0.009 A 
HETATM   25  C8  UNL     1      26.702  -1.123  52.652  1.00  0.00     0.010 A 
HETATM   26  C9  UNL     1      27.284  -2.350  52.486  1.00  0.00     0.001 A 
HETATM   27  C10 UNL     1      28.580  -2.600  52.856  1.00  0.00     0.001 A 
ENDBRANCH   1  15
TORSDOF 3
ENDMDL
MODEL 4
REMARK VINA RESULT:      -9.1      2.201      4.221
REMARK  3 active torsions:
REMARK  status: ('A' for Active; 'I' for Inactive)
REMARK    1  A    between atoms: C2_2  and  N1_3 
REMARK    2  A    between atoms: C2_2  and  C14_17 
REMARK    3  A    between atoms: N1_3  and  C3_4 
ROOT
HETATM    1  N1  UNL     1      25.439   3.470  51.471  1.00  0.00     0.104 N 
HETATM    2  H5  UNL     1      24.536   3.797  51.806  1.00  0.00     0.317 HD
ENDROOT
BRANCH   1   3
HETATM    3  C2  UNL     1      25.441   3.080  50.099  1.00  0.00     0.251 C 
HETATM    4  C1  UNL     1      26.753   3.638  49.514  1.00  0.00     0.048 C 
BRANCH   3   5
HETATM    5  C14 UNL     1      24.342   3.755  49.393  1.00  0.00    -0.015 A 
HETATM    6  C15 UNL     1      24.417   5.040  48.897  1.00  0.00     0.010 A 
HETATM    7  C16 UNL     1      23.411   5.696  48.229  1.00  0.00     0.002 A 
HETATM    8  C17 UNL     1      22.217   5.037  48.026  1.00  0.00     0.012 A 
HETATM    9  C18 UNL     1      22.055   3.750  48.487  1.00  0.00    -0.025 A 
HETATM   10  C19 UNL     1      20.863   3.088  48.284  1.00  0.00     0.012 A 
HETATM   11  C23 UNL     1      23.111   3.161  49.147  1.00  0.00    -0.018 A 
HETATM   12  C20 UNL     1      20.671   1.804  48.731  1.00  0.00     0.001 A 
HETATM   13  C21 UNL     1      21.696   1.188  49.389  1.00  0.00     0.001 A 
HETATM   14  C22 UNL     1      22.878   1.871  49.580  1.00  0.00     0.013 A 
ENDBRANCH   3   5
ENDBRANCH   1   3
BRANCH   1  15
HETATM   15  C3  UNL     1      26.052   2.639  52.297  1.00  0.00     0.309 C 
HETATM   16  C4  UNL     1      25.872   2.627  53.820  1.00  0.00     0.157 C 
HETATM   17  N2  UNL     1      26.094   1.323  54.177  1.00  0.00    -0.097 NA
HETATM   18  N3  UNL     1      26.281   0.307  53.167  1.00  0.00     0.064 N 
HETATM   19  C5  UNL     1      26.364  -0.142  51.842  1.00  0.00     0.302 A 
HETATM   20  C13 UNL     1      25.566  -0.968  53.515  1.00  0.00     0.308 C 
HETATM   21  C6  UNL     1      26.047   1.152  52.115  1.00  0.00     0.250 A 
HETATM   22  C12 UNL     1      24.097  -0.417  53.085  1.00  0.00    -0.021 A 
HETATM   23  C7  UNL     1      24.579   0.922  52.852  1.00  0.00    -0.007 A 
HETATM   24  C11 UNL     1      22.948  -1.026  53.324  1.00  0.00     0.009 A 
HETATM   25  C8  UNL     1      23.431   1.860  52.932  1.00  0.00     0.010 A 
HETATM   26  C9  UNL     1      22.198   1.321  53.181  1.00  0.00     0.001 A 
HETATM   27  C10 UNL     1      22.011  -0.026  53.356  1.00  0.00     0.001 A 
ENDBRANCH   1  15
TORSDOF 3
ENDMDL
MODEL 5
REMARK VINA RESULT:      -9.1      2.873      7.393
REMARK  3 active torsions:
REMARK  status: ('A' for Active; 'I' for Inactive)
REMARK    1  A    between atoms: C2_2  and  N1_3 
REMARK    2  A    between atoms: C2_2  and  C14_17 
REMARK    3  A    between atoms: N1_3  and  C3_4 
ROOT
HETATM    1  N1  UNL     1      24.506   1.299  51.826  1.00  0.00     0.104 N 
HETATM    2  H5  UNL     1      24.680   1.272  50.824  1.00  0.00     0.317 HD
ENDROOT
BRANCH   1   3
HETATM    3  C2  UNL     1      25.111   0.227  52.548  1.00  0.00     0.251 C 
HETATM    4  C1  UNL     1      24.284   0.081  53.839  1.00  0.00     0.048 C 
BRANCH   3   5
HETATM    5  C14 UNL     1      26.470   0.613  52.957  1.00  0.00    -0.015 A 
HETATM    6  C15 UNL     1      26.848   1.904  53.257  1.00  0.00     0.010 A 
HETATM    7  C16 UNL     1      28.106   2.295  53.646  1.00  0.00     0.002 A 
HETATM    8  C17 UNL     1      29.091   1.336  53.751  1.00  0.00     0.012 A 
HETATM    9  C18 UNL     1      28.802   0.020  53.471  1.00  0.00    -0.025 A 
HETATM   10  C19 UNL     1      29.783  -0.942  53.577  1.00  0.00     0.012 A 
HETATM   11  C23 UNL     1      27.515  -0.292  53.087  1.00  0.00    -0.018 A 
HETATM   12  C20 UNL     1      29.525  -2.263  53.304  1.00  0.00     0.001 A 
HETATM   13  C21 UNL     1      28.262  -2.610  52.922  1.00  0.00     0.001 A 
HETATM   14  C22 UNL     1      27.297  -1.629  52.823  1.00  0.00     0.013 A 
ENDBRANCH   3   5
ENDBRANCH   1   3
BRANCH   1  15
HETATM   15  C3  UNL     1      23.251   1.560  52.148  1.00  0.00     0.309 C 
HETATM   16  C4  UNL     1      22.654   2.967  52.276  1.00  0.00     0.157 C 
HETATM   17  N2  UNL     1      21.332   2.806  51.956  1.00  0.00    -0.097 NA
HETATM   18  N3  UNL     1      20.844   1.536  51.472  1.00  0.00     0.064 N 
HETATM   19  C5  UNL     1      21.002   0.196  51.090  1.00  0.00     0.302 A 
HETATM   20  C13 UNL     1      19.866   1.703  50.343  1.00  0.00     0.308 C 
HETATM   21  C6  UNL     1      22.080   0.945  51.444  1.00  0.00     0.250 A 
HETATM   22  C12 UNL     1      21.007   2.006  49.224  1.00  0.00    -0.021 A 
HETATM   23  C7  UNL     1      22.069   2.041  50.199  1.00  0.00    -0.007 A 
HETATM   24  C11 UNL     1      20.782   2.435  47.993  1.00  0.00     0.009 A 
HETATM   25  C8  UNL     1      23.210   2.802  49.631  1.00  0.00     0.010 A 
HETATM   26  C9  UNL     1      23.068   3.290  48.360  1.00  0.00     0.001 A 
HETATM   27  C10 UNL     1      21.925   3.097  47.628  1.00  0.00     0.001 A 
ENDBRANCH   1  15
TORSDOF 3
ENDMDL
MODEL 6
REMARK VINA RESULT:      -9.1      2.702      6.647
REMARK  3 active torsions:
REMARK  status: ('A' for Active; 'I' for Inactive)
REMARK    1  A    between atoms: C2_2  and  N1_3 
REMARK    2  A    between atoms: C2_2  and  C14_17 
REMARK    3  A    between atoms: N1_3  and  C3_4 
ROOT
HETATM    1  N1  UNL     1      25.503   2.357  51.453  1.00  0.00     0.104 N 
HETATM    2  H5  UNL     1      25.062   1.677  50.838  1.00  0.00     0.317 HD
ENDROOT
BRANCH   1   3
HETATM    3  C2  UNL     1      24.840   2.520  52.706  1.00  0.00     0.251 C 
HETATM    4  C1  UNL     1      25.876   2.121  53.775  1.00  0.00     0.048 C 
BRANCH   3   5
HETATM    5  C14 UNL     1      23.734   1.557  52.808  1.00  0.00    -0.015 A 
HETATM    6  C15 UNL     1      23.893   0.234  53.161  1.00  0.00     0.010 A 
HETATM    7  C16 UNL     1      22.881  -0.689  53.269  1.00  0.00     0.002 A 
HETATM    8  C17 UNL     1      21.589  -0.282  53.007  1.00  0.00     0.012 A 
HETATM    9  C18 UNL     1      21.338   1.023  52.648  1.00  0.00    -0.025 A 
HETATM   10  C19 UNL     1      20.048   1.432  52.387  1.00  0.00     0.012 A 
HETATM   11  C23 UNL     1      22.408   1.887  52.562  1.00  0.00    -0.018 A 
HETATM   12  C20 UNL     1      19.766   2.727  52.028  1.00  0.00     0.001 A 
HETATM   13  C21 UNL     1      20.800   3.612  51.932  1.00  0.00     0.001 A 
HETATM   14  C22 UNL     1      22.082   3.178  52.198  1.00  0.00     0.013 A 
ENDBRANCH   3   5
ENDBRANCH   1   3
BRANCH   1  15
HETATM   15  C3  UNL     1      25.859   3.478  50.850  1.00  0.00     0.309 C 
HETATM   16  C4  UNL     1      26.383   3.571  49.412  1.00  0.00     0.157 C 
HETATM   17  N2  UNL     1      26.000   4.817  48.991  1.00  0.00    -0.097 NA
HETATM   18  N3  UNL     1      25.151   5.642  49.818  1.00  0.00     0.064 N 
HETATM   19  C5  UNL     1      24.395   5.903  50.970  1.00  0.00     0.302 A 
HETATM   20  C13 UNL     1      24.100   6.352  49.013  1.00  0.00     0.308 C 
HETATM   21  C6  UNL     1      24.978   4.689  50.787  1.00  0.00     0.250 A 
HETATM   22  C12 UNL     1      23.147   5.043  48.857  1.00  0.00    -0.021 A 
HETATM   23  C7  UNL     1      24.113   4.167  49.471  1.00  0.00    -0.007 A 
HETATM   24  C11 UNL     1      22.093   4.951  48.063  1.00  0.00     0.009 A 
HETATM   25  C8  UNL     1      23.821   2.772  49.054  1.00  0.00     0.010 A 
HETATM   26  C9  UNL     1      22.748   2.577  48.228  1.00  0.00     0.001 A 
HETATM   27  C10 UNL     1      21.965   3.614  47.789  1.00  0.00     0.001 A 
ENDBRANCH   1  15
TORSDOF 3
ENDMDL
MODEL 7
REMARK VINA RESULT:      -9.0      1.789      3.007
REMARK  3 active torsions:
REMARK  status: ('A' for Active; 'I' for Inactive)
REMARK    1  A    between atoms: C2_2  and  N1_3 
REMARK    2  A    between atoms: C2_2  and  C14_17 
REMARK    3  A    between atoms: N1_3  and  C3_4 
ROOT
HETATM    1  N1  UNL     1      24.902   2.525  50.756  1.00  0.00     0.104 N 
HETATM    2  H5  UNL     1      25.328   2.158  49.908  1.00  0.00     0.317 HD
ENDROOT
BRANCH   1   3
HETATM    3  C2  UNL     1      24.506   3.892  50.660  1.00  0.00     0.251 C 
HETATM    4  C1  UNL     1      23.258   3.896  49.756  1.00  0.00     0.048 C 
BRANCH   3   5
HETATM    5  C14 UNL     1      25.543   4.658  49.953  1.00  0.00    -0.015 A 
HETATM    6  C15 UNL     1      26.604   4.086  49.284  1.00  0.00     0.010 A 
HETATM    7  C16 UNL     1      27.586   4.772  48.612  1.00  0.00     0.002 A 
HETATM    8  C17 UNL     1      27.528   6.150  48.589  1.00  0.00     0.012 A 
HETATM    9  C18 UNL     1      26.501   6.805  49.230  1.00  0.00    -0.025 A 
HETATM   10  C19 UNL     1      26.440   8.182  49.208  1.00  0.00     0.012 A 
HETATM   11  C23 UNL     1      25.555   6.045  49.883  1.00  0.00    -0.018 A 
HETATM   12  C20 UNL     1      25.428   8.865  49.838  1.00  0.00     0.001 A 
HETATM   13  C21 UNL     1      24.472   8.144  50.494  1.00  0.00     0.001 A 
HETATM   14  C22 UNL     1      24.556   6.768  50.502  1.00  0.00     0.013 A 
ENDBRANCH   3   5
ENDBRANCH   1   3
BRANCH   1  15
HETATM   15  C3  UNL     1      25.543   2.198  51.865  1.00  0.00     0.309 C 
HETATM   16  C4  UNL     1      25.259   2.792  53.250  1.00  0.00     0.157 C 
HETATM   17  N2  UNL     1      25.599   1.794  54.124  1.00  0.00    -0.097 NA
HETATM   18  N3  UNL     1      25.968   0.486  53.636  1.00  0.00     0.064 N 
HETATM   19  C5  UNL     1      26.194  -0.456  52.623  1.00  0.00     0.302 A 
HETATM   20  C13 UNL     1      25.376  -0.613  54.473  1.00  0.00     0.308 C 
HETATM   21  C6  UNL     1      25.717   0.781  52.323  1.00  0.00     0.250 A 
HETATM   22  C12 UNL     1      23.889  -0.485  53.826  1.00  0.00    -0.021 A 
HETATM   23  C7  UNL     1      24.235   0.688  53.063  1.00  0.00    -0.007 A 
HETATM   24  C11 UNL     1      22.800  -1.084  54.279  1.00  0.00     0.009 A 
HETATM   25  C8  UNL     1      22.987   1.417  52.722  1.00  0.00     0.010 A 
HETATM   26  C9  UNL     1      21.807   0.874  53.152  1.00  0.00     0.001 A 
HETATM   27  C10 UNL     1      21.758  -0.292  53.871  1.00  0.00     0.001 A 
ENDBRANCH   1  15
TORSDOF 3
ENDMDL
MODEL 8
REMARK VINA RESULT:      -8.8      2.941      7.272
REMARK  3 active torsions:
REMARK  status: ('A' for Active; 'I' for Inactive)
REMARK    1  A    between atoms: C2_2  and  N1_3 
REMARK    2  A    between atoms: C2_2  and  C14_17 
REMARK    3  A    between atoms: N1_3  and  C3_4 
ROOT
HETATM    1  N1  UNL     1      21.495   0.887  53.389  1.00  0.00     0.104 N 
HETATM    2  H5  UNL     1      22.153   1.546  53.799  1.00  0.00     0.317 HD
ENDROOT
BRANCH   1   3
HETATM    3  C2  UNL     1      22.030  -0.422  53.198  1.00  0.00     0.251 C 
HETATM    4  C1  UNL     1      20.962  -1.387  53.748  1.00  0.00     0.048 C 
BRANCH   3   5
HETATM    5  C14 UNL     1      23.226  -0.593  54.036  1.00  0.00    -0.015 A 
HETATM    6  C15 UNL     1      23.210  -1.137  55.303  1.00  0.00     0.010 A 
HETATM    7  C16 UNL     1      24.309  -1.314  56.108  1.00  0.00     0.002 A 
HETATM    8  C17 UNL     1      25.543  -0.922  55.632  1.00  0.00     0.012 A 
HETATM    9  C18 UNL     1      25.652  -0.369  54.377  1.00  0.00    -0.025 A 
HETATM   10  C19 UNL     1      26.884   0.022  53.899  1.00  0.00     0.012 A 
HETATM   11  C23 UNL     1      24.502  -0.225  53.631  1.00  0.00    -0.018 A 
HETATM   12  C20 UNL     1      27.026   0.576  52.650  1.00  0.00     0.001 A 
HETATM   13  C21 UNL     1      25.909   0.734  51.882  1.00  0.00     0.001 A 
HETATM   14  C22 UNL     1      24.687   0.335  52.383  1.00  0.00     0.013 A 
ENDBRANCH   3   5
ENDBRANCH   1   3
BRANCH   1  15
HETATM   15  C3  UNL     1      20.812   1.374  52.367  1.00  0.00     0.309 C 
HETATM   16  C4  UNL     1      20.295   2.814  52.266  1.00  0.00     0.157 C 
HETATM   17  N2  UNL     1      20.274   3.073  50.921  1.00  0.00    -0.097 NA
HETATM   18  N3  UNL     1      20.817   2.120  49.981  1.00  0.00     0.064 N 
HETATM   19  C5  UNL     1      21.446   0.913  49.642  1.00  0.00     0.302 A 
HETATM   20  C13 UNL     1      21.599   2.791  48.888  1.00  0.00     0.308 C 
HETATM   21  C6  UNL     1      21.271   1.259  50.945  1.00  0.00     0.250 A 
HETATM   22  C12 UNL     1      22.915   3.052  49.809  1.00  0.00    -0.021 A 
HETATM   23  C7  UNL     1      22.265   2.586  51.009  1.00  0.00    -0.007 A 
HETATM   24  C11 UNL     1      23.951   3.802  49.474  1.00  0.00     0.009 A 
HETATM   25  C8  UNL     1      22.981   3.145  52.184  1.00  0.00     0.010 A 
HETATM   26  C9  UNL     1      24.068   3.939  51.936  1.00  0.00     0.001 A 
HETATM   27  C10 UNL     1      24.491   4.221  50.662  1.00  0.00     0.001 A 
ENDBRANCH   1  15
TORSDOF 3
ENDMDL
MODEL 9
REMARK VINA RESULT:      -8.7      3.840      7.904
REMARK  3 active torsions:
REMARK  status: ('A' for Active; 'I' for Inactive)
REMARK    1  A    between atoms: C2_2  and  N1_3 
REMARK    2  A    between atoms: C2_2  and  C14_17 
REMARK    3  A    between atoms: N1_3  and  C3_4 
ROOT
HETATM    1  N1  UNL     1      19.567   1.977  51.878  1.00  0.00     0.104 N 
HETATM    2  H5  UNL     1      20.080   2.369  52.664  1.00  0.00     0.317 HD
ENDROOT
BRANCH   1   3
HETATM    3  C2  UNL     1      19.966   0.654  51.526  1.00  0.00     0.251 C 
HETATM    4  C1  UNL     1      18.673  -0.184  51.539  1.00  0.00     0.048 C 
BRANCH   3   5
HETATM    5  C14 UNL     1      20.836   0.106  52.577  1.00  0.00    -0.015 A 
HETATM    6  C15 UNL     1      20.388  -0.678  53.619  1.00  0.00     0.010 A 
HETATM    7  C16 UNL     1      21.175  -1.209  54.612  1.00  0.00     0.002 A 
HETATM    8  C17 UNL     1      22.530  -0.950  54.588  1.00  0.00     0.012 A 
HETATM    9  C18 UNL     1      23.064  -0.176  53.582  1.00  0.00    -0.025 A 
HETATM   10  C19 UNL     1      24.417   0.083  53.555  1.00  0.00     0.012 A 
HETATM   11  C23 UNL     1      22.208   0.319  52.623  1.00  0.00    -0.018 A 
HETATM   12  C20 UNL     1      24.980   0.851  52.564  1.00  0.00     0.001 A 
HETATM   13  C21 UNL     1      24.163   1.358  51.596  1.00  0.00     0.001 A 
HETATM   14  C22 UNL     1      22.812   1.084  51.646  1.00  0.00     0.013 A 
ENDBRANCH   3   5
ENDBRANCH   1   3
BRANCH   1  15
HETATM   15  C3  UNL     1      19.417   2.812  50.864  1.00  0.00     0.309 C 
HETATM   16  C4  UNL     1      19.085   4.304  50.998  1.00  0.00     0.157 C 
HETATM   17  N2  UNL     1      19.657   4.879  49.894  1.00  0.00    -0.097 NA
HETATM   18  N3  UNL     1      20.487   4.098  49.006  1.00  0.00     0.064 N 
HETATM   19  C5  UNL     1      21.122   2.916  48.600  1.00  0.00     0.302 A 
HETATM   20  C13 UNL     1      21.702   4.861  48.558  1.00  0.00     0.308 C 
HETATM   21  C6  UNL     1      20.431   2.963  49.770  1.00  0.00     0.250 A 
HETATM   22  C12 UNL     1      22.512   4.649  49.953  1.00  0.00    -0.021 A 
HETATM   23  C7  UNL     1      21.385   4.032  50.607  1.00  0.00    -0.007 A 
HETATM   24  C11 UNL     1      23.637   5.257  50.287  1.00  0.00     0.009 A 
HETATM   25  C8  UNL     1      21.565   4.152  52.076  1.00  0.00     0.010 A 
HETATM   26  C9  UNL     1      22.701   4.772  52.520  1.00  0.00     0.001 A 
HETATM   27  C10 UNL     1      23.644   5.271  51.658  1.00  0.00     0.001 A 
ENDBRANCH   1  15
TORSDOF 3
ENDMDL
