MODEL 1
REMARK VINA RESULT:      -8.2      0.000      0.000
REMARK  3 active torsions:
REMARK  status: ('A' for Active; 'I' for Inactive)
REMARK    1  A    between atoms: C3_3  and  C4_4 
REMARK    2  A    between atoms: C4_4  and  C5_5 
REMARK    3  A    between atoms: N2_16  and  C13_17 
ROOT
HETATM    1  C1  UNL     1      20.380   2.897  52.281  1.00  0.00     0.041 C 
HETATM    2  C2  UNL     1      20.927   1.527  52.617  1.00  0.00     0.156 A 
HETATM    3  C3  UNL     1      22.032   1.187  51.691  1.00  0.00     0.061 A 
HETATM    4  N1  UNL     1      21.335   0.231  51.215  1.00  0.00    -0.178 NA
HETATM    5  N2  UNL     1      20.208   0.423  52.018  1.00  0.00    -0.260 N 
ENDROOT
BRANCH   3   6
HETATM    6  C4  UNL     1      23.378   1.691  51.398  1.00  0.00     0.097 C 
BRANCH   6   7
HETATM    7  C5  UNL     1      24.425   1.051  52.234  1.00  0.00    -0.050 A 
HETATM    8  C6  UNL     1      24.106   0.034  53.112  1.00  0.00     0.010 A 
HETATM    9  C7  UNL     1      25.134  -0.530  53.872  1.00  0.00     0.040 A 
HETATM   10  C8  UNL     1      26.436  -0.074  53.742  1.00  0.00     0.102 A 
HETATM   11  C9  UNL     1      26.730   0.945  52.856  1.00  0.00     0.102 A 
HETATM   12  O2  UNL     1      27.480  -0.610  54.479  1.00  0.00    -0.346 OA
HETATM   13  C10 UNL     1      25.725   1.511  52.098  1.00  0.00     0.047 A 
HETATM   14  O1  UNL     1      28.068   1.298  52.830  1.00  0.00    -0.346 OA
HETATM   15  C11 UNL     1      28.924   1.266  53.949  1.00  0.00     0.202 C 
HETATM   16  C12 UNL     1      28.595   0.148  54.900  1.00  0.00     0.202 C 
ENDBRANCH   6   7
ENDBRANCH   3   6
BRANCH   5  17
HETATM   17  C13 UNL     1      18.945  -0.203  52.155  1.00  0.00     0.053 A 
HETATM   18  C14 UNL     1      18.772  -1.075  53.208  1.00  0.00     0.031 A 
HETATM   19  C15 UNL     1      17.573  -1.720  53.405  1.00  0.00     0.002 A 
HETATM   20  C16 UNL     1      16.536  -1.469  52.513  1.00  0.00     0.000 A 
HETATM   21  C17 UNL     1      16.748  -0.587  51.467  1.00  0.00     0.002 A 
HETATM   22  C18 UNL     1      17.942   0.072  51.249  1.00  0.00     0.031 A 
ENDBRANCH   5  17
TORSDOF 3
ENDMDL
MODEL 2
REMARK VINA RESULT:      -8.0      3.830      8.029
REMARK  3 active torsions:
REMARK  status: ('A' for Active; 'I' for Inactive)
REMARK    1  A    between atoms: C3_3  and  C4_4 
REMARK    2  A    between atoms: C4_4  and  C5_5 
REMARK    3  A    between atoms: N2_16  and  C13_17 
ROOT
HETATM    1  C1  UNL     1      24.509   1.887  53.124  1.00  0.00     0.041 C 
HETATM    2  C2  UNL     1      24.535   0.386  52.938  1.00  0.00     0.156 A 
HETATM    3  C3  UNL     1      23.530  -0.247  53.824  1.00  0.00     0.061 A 
HETATM    4  N1  UNL     1      24.467  -0.822  54.470  1.00  0.00    -0.178 NA
HETATM    5  N2  UNL     1      25.532  -0.306  53.727  1.00  0.00    -0.260 N 
ENDROOT
BRANCH   3   6
HETATM    6  C4  UNL     1      22.069  -0.253  53.956  1.00  0.00     0.097 C 
BRANCH   6   7
HETATM    7  C5  UNL     1      21.387   0.391  52.804  1.00  0.00    -0.050 A 
HETATM    8  C6  UNL     1      21.510  -0.127  51.530  1.00  0.00     0.010 A 
HETATM    9  C7  UNL     1      20.844   0.523  50.486  1.00  0.00     0.040 A 
HETATM   10  C8  UNL     1      20.085   1.655  50.733  1.00  0.00     0.102 A 
HETATM   11  C9  UNL     1      19.978   2.154  52.018  1.00  0.00     0.102 A 
HETATM   12  O2  UNL     1      19.412   2.323  49.722  1.00  0.00    -0.346 OA
HETATM   13  C10 UNL     1      20.630   1.523  53.058  1.00  0.00     0.047 A 
HETATM   14  O1  UNL     1      19.190   3.286  52.116  1.00  0.00    -0.346 OA
HETATM   15  C11 UNL     1      19.091   4.279  51.121  1.00  0.00     0.202 C 
HETATM   16  C12 UNL     1      19.203   3.720  49.729  1.00  0.00     0.202 C 
ENDBRANCH   6   7
ENDBRANCH   3   6
BRANCH   5  17
HETATM   17  C13 UNL     1      26.942  -0.428  53.761  1.00  0.00     0.053 A 
HETATM   18  C14 UNL     1      27.516  -1.453  53.040  1.00  0.00     0.031 A 
HETATM   19  C15 UNL     1      28.879  -1.633  53.025  1.00  0.00     0.002 A 
HETATM   20  C16 UNL     1      29.667  -0.753  53.758  1.00  0.00     0.000 A 
HETATM   21  C17 UNL     1      29.055   0.265  54.469  1.00  0.00     0.002 A 
HETATM   22  C18 UNL     1      27.689   0.466  54.499  1.00  0.00     0.031 A 
ENDBRANCH   5  17
TORSDOF 3
ENDMDL
MODEL 3
REMARK VINA RESULT:      -7.9      3.696      8.196
REMARK  3 active torsions:
REMARK  status: ('A' for Active; 'I' for Inactive)
REMARK    1  A    between atoms: C3_3  and  C4_4 
REMARK    2  A    between atoms: C4_4  and  C5_5 
REMARK    3  A    between atoms: N2_16  and  C13_17 
ROOT
HETATM    1  C1  UNL     1      26.481   2.756  50.823  1.00  0.00     0.041 C 
HETATM    2  C2  UNL     1      25.731   1.760  51.679  1.00  0.00     0.156 A 
HETATM    3  C3  UNL     1      24.881   2.478  52.658  1.00  0.00     0.061 A 
HETATM    4  N1  UNL     1      25.581   1.999  53.610  1.00  0.00    -0.178 NA
HETATM    5  N2  UNL     1      26.469   1.264  52.821  1.00  0.00    -0.260 N 
ENDROOT
BRANCH   3   6
HETATM    6  C4  UNL     1      23.719   3.371  52.616  1.00  0.00     0.097 C 
BRANCH   6   7
HETATM    7  C5  UNL     1      22.439   2.638  52.440  1.00  0.00    -0.050 A 
HETATM    8  C6  UNL     1      22.420   1.260  52.344  1.00  0.00     0.010 A 
HETATM    9  C7  UNL     1      21.185   0.627  52.179  1.00  0.00     0.040 A 
HETATM   10  C8  UNL     1      20.017   1.369  52.114  1.00  0.00     0.102 A 
HETATM   11  C9  UNL     1      20.063   2.747  52.213  1.00  0.00     0.102 A 
HETATM   12  O2  UNL     1      18.776   0.774  51.952  1.00  0.00    -0.346 OA
HETATM   13  C10 UNL     1      21.275   3.387  52.376  1.00  0.00     0.047 A 
HETATM   14  O1  UNL     1      18.824   3.357  52.132  1.00  0.00    -0.346 OA
HETATM   15  C11 UNL     1      17.753   2.889  51.345  1.00  0.00     0.202 C 
HETATM   16  C12 UNL     1      17.713   1.387  51.253  1.00  0.00     0.202 C 
ENDBRANCH   6   7
ENDBRANCH   3   6
BRANCH   5  17
HETATM   17  C13 UNL     1      27.581   0.422  53.065  1.00  0.00     0.053 A 
HETATM   18  C14 UNL     1      27.408  -0.935  52.902  1.00  0.00     0.031 A 
HETATM   19  C15 UNL     1      28.442  -1.814  53.120  1.00  0.00     0.002 A 
HETATM   20  C16 UNL     1      29.673  -1.298  53.512  1.00  0.00     0.000 A 
HETATM   21  C17 UNL     1      29.809   0.071  53.666  1.00  0.00     0.002 A 
HETATM   22  C18 UNL     1      28.785   0.973  53.452  1.00  0.00     0.031 A 
ENDBRANCH   5  17
TORSDOF 3
ENDMDL
MODEL 4
REMARK VINA RESULT:      -7.9      3.304      8.008
REMARK  3 active torsions:
REMARK  status: ('A' for Active; 'I' for Inactive)
REMARK    1  A    between atoms: C3_3  and  C4_4 
REMARK    2  A    between atoms: C4_4  and  C5_5 
REMARK    3  A    between atoms: N2_16  and  C13_17 
ROOT
HETATM    1  C1  UNL     1      26.725   2.483  51.214  1.00  0.00     0.041 C 
HETATM    2  C2  UNL     1      25.914   1.336  51.775  1.00  0.00     0.156 A 
HETATM    3  C3  UNL     1      24.952   1.846  52.780  1.00  0.00     0.061 A 
HETATM    4  N1  UNL     1      25.561   1.192  53.690  1.00  0.00    -0.178 NA
HETATM    5  N2  UNL     1      26.542   0.628  52.871  1.00  0.00    -0.260 N 
ENDROOT
BRANCH   3   6
HETATM    6  C4  UNL     1      23.779   2.727  52.791  1.00  0.00     0.097 C 
BRANCH   6   7
HETATM    7  C5  UNL     1      22.555   2.057  52.285  1.00  0.00    -0.050 A 
HETATM    8  C6  UNL     1      21.981   2.439  51.089  1.00  0.00     0.010 A 
HETATM    9  C7  UNL     1      20.829   1.771  50.665  1.00  0.00     0.040 A 
HETATM   10  C8  UNL     1      20.284   0.753  51.431  1.00  0.00     0.102 A 
HETATM   11  C9  UNL     1      20.877   0.389  52.625  1.00  0.00     0.102 A 
HETATM   12  O2  UNL     1      19.143   0.070  51.041  1.00  0.00    -0.346 OA
HETATM   13  C10 UNL     1      22.015   1.040  53.056  1.00  0.00     0.047 A 
HETATM   14  O1  UNL     1      20.226  -0.639  53.284  1.00  0.00    -0.346 OA
HETATM   15  C11 UNL     1      18.832  -0.842  53.267  1.00  0.00     0.202 C 
HETATM   16  C12 UNL     1      18.202  -0.447  51.959  1.00  0.00     0.202 C 
ENDBRANCH   6   7
ENDBRANCH   3   6
BRANCH   5  17
HETATM   17  C13 UNL     1      27.643  -0.242  53.062  1.00  0.00     0.053 A 
HETATM   18  C14 UNL     1      27.448  -1.586  52.825  1.00  0.00     0.031 A 
HETATM   19  C15 UNL     1      28.470  -2.490  52.990  1.00  0.00     0.002 A 
HETATM   20  C16 UNL     1      29.710  -2.015  53.403  1.00  0.00     0.000 A 
HETATM   21  C17 UNL     1      29.867  -0.658  53.632  1.00  0.00     0.002 A 
HETATM   22  C18 UNL     1      28.856   0.269  53.473  1.00  0.00     0.031 A 
ENDBRANCH   5  17
TORSDOF 3
ENDMDL
MODEL 5
REMARK VINA RESULT:      -7.8      3.777      6.637
REMARK  3 active torsions:
REMARK  status: ('A' for Active; 'I' for Inactive)
REMARK    1  A    between atoms: C3_3  and  C4_4 
REMARK    2  A    between atoms: C4_4  and  C5_5 
REMARK    3  A    between atoms: N2_16  and  C13_17 
ROOT
HETATM    1  C1  UNL     1      22.860   3.103  48.463  1.00  0.00     0.041 C 
HETATM    2  C2  UNL     1      24.171   3.059  49.215  1.00  0.00     0.156 A 
HETATM    3  C3  UNL     1      23.915   2.859  50.660  1.00  0.00     0.061 A 
HETATM    4  N1  UNL     1      24.400   4.013  50.902  1.00  0.00    -0.178 NA
HETATM    5  N2  UNL     1      24.703   4.354  49.583  1.00  0.00    -0.260 N 
ENDROOT
BRANCH   3   6
HETATM    6  C4  UNL     1      23.351   1.808  51.513  1.00  0.00     0.097 C 
BRANCH   6   7
HETATM    7  C5  UNL     1      24.375   1.143  52.358  1.00  0.00    -0.050 A 
HETATM    8  C6  UNL     1      24.011   0.224  53.322  1.00  0.00     0.010 A 
HETATM    9  C7  UNL     1      25.020  -0.368  54.085  1.00  0.00     0.040 A 
HETATM   10  C8  UNL     1      26.349  -0.037  53.874  1.00  0.00     0.102 A 
HETATM   11  C9  UNL     1      26.688   0.886  52.902  1.00  0.00     0.102 A 
HETATM   12  O2  UNL     1      27.375  -0.605  54.612  1.00  0.00    -0.346 OA
HETATM   13  C10 UNL     1      25.702   1.479  52.140  1.00  0.00     0.047 A 
HETATM   14  O1  UNL     1      28.048   1.119  52.801  1.00  0.00    -0.346 OA
HETATM   15  C11 UNL     1      28.945   1.096  53.887  1.00  0.00     0.202 C 
HETATM   16  C12 UNL     1      28.566   0.083  54.933  1.00  0.00     0.202 C 
ENDBRANCH   6   7
ENDBRANCH   3   6
BRANCH   5  17
HETATM   17  C13 UNL     1      25.276   5.475  48.933  1.00  0.00     0.053 A 
HETATM   18  C14 UNL     1      24.420   6.421  48.411  1.00  0.00     0.031 A 
HETATM   19  C15 UNL     1      24.904   7.535  47.766  1.00  0.00     0.002 A 
HETATM   20  C16 UNL     1      26.282   7.685  47.653  1.00  0.00     0.000 A 
HETATM   21  C17 UNL     1      27.109   6.713  48.190  1.00  0.00     0.002 A 
HETATM   22  C18 UNL     1      26.647   5.586  48.841  1.00  0.00     0.031 A 
ENDBRANCH   5  17
TORSDOF 3
ENDMDL
MODEL 6
REMARK VINA RESULT:      -7.8      3.773      5.445
REMARK  3 active torsions:
REMARK  status: ('A' for Active; 'I' for Inactive)
REMARK    1  A    between atoms: C3_3  and  C4_4 
REMARK    2  A    between atoms: C4_4  and  C5_5 
REMARK    3  A    between atoms: N2_16  and  C13_17 
ROOT
HETATM    1  C1  UNL     1      22.754   2.279  49.808  1.00  0.00     0.041 C 
HETATM    2  C2  UNL     1      23.683   2.963  50.786  1.00  0.00     0.156 A 
HETATM    3  C3  UNL     1      23.554   2.337  52.122  1.00  0.00     0.061 A 
HETATM    4  N1  UNL     1      23.088   3.430  52.585  1.00  0.00    -0.178 NA
HETATM    5  N2  UNL     1      23.147   4.161  51.396  1.00  0.00    -0.260 N 
ENDROOT
BRANCH   3   6
HETATM    6  C4  UNL     1      23.827   1.027  52.723  1.00  0.00     0.097 C 
BRANCH   6   7
HETATM    7  C5  UNL     1      25.248   0.865  53.123  1.00  0.00    -0.050 A 
HETATM    8  C6  UNL     1      26.001   1.954  53.516  1.00  0.00     0.010 A 
HETATM    9  C7  UNL     1      27.333   1.738  53.881  1.00  0.00     0.040 A 
HETATM   10  C8  UNL     1      27.874   0.463  53.847  1.00  0.00     0.102 A 
HETATM   11  C9  UNL     1      27.099  -0.611  53.450  1.00  0.00     0.102 A 
HETATM   12  O2  UNL     1      29.190   0.213  54.203  1.00  0.00    -0.346 OA
HETATM   13  C10 UNL     1      25.782  -0.413  53.087  1.00  0.00     0.047 A 
HETATM   14  O1  UNL     1      27.768  -1.821  53.464  1.00  0.00    -0.346 OA
HETATM   15  C11 UNL     1      29.137  -1.981  53.169  1.00  0.00     0.202 C 
HETATM   16  C12 UNL     1      29.968  -0.807  53.612  1.00  0.00     0.202 C 
ENDBRANCH   6   7
ENDBRANCH   3   6
BRANCH   5  17
HETATM   17  C13 UNL     1      22.820   5.482  51.003  1.00  0.00     0.053 A 
HETATM   18  C14 UNL     1      23.819   6.430  51.043  1.00  0.00     0.031 A 
HETATM   19  C15 UNL     1      23.576   7.732  50.675  1.00  0.00     0.002 A 
HETATM   20  C16 UNL     1      22.292   8.070  50.261  1.00  0.00     0.000 A 
HETATM   21  C17 UNL     1      21.315   7.090  50.233  1.00  0.00     0.002 A 
HETATM   22  C18 UNL     1      21.535   5.776  50.598  1.00  0.00     0.031 A 
ENDBRANCH   5  17
TORSDOF 3
ENDMDL
MODEL 7
REMARK VINA RESULT:      -7.6      4.275      6.509
REMARK  3 active torsions:
REMARK  status: ('A' for Active; 'I' for Inactive)
REMARK    1  A    between atoms: C3_3  and  C4_4 
REMARK    2  A    between atoms: C4_4  and  C5_5 
REMARK    3  A    between atoms: N2_16  and  C13_17 
ROOT
HETATM    1  C1  UNL     1      23.437   4.534  52.172  1.00  0.00     0.041 C 
HETATM    2  C2  UNL     1      23.620   3.733  50.902  1.00  0.00     0.156 A 
HETATM    3  C3  UNL     1      24.406   2.510  51.189  1.00  0.00     0.061 A 
HETATM    4  N1  UNL     1      25.347   2.944  50.447  1.00  0.00    -0.178 NA
HETATM    5  N2  UNL     1      24.738   4.146  50.080  1.00  0.00    -0.260 N 
ENDROOT
BRANCH   3   6
HETATM    6  C4  UNL     1      24.232   1.286  51.978  1.00  0.00     0.097 C 
BRANCH   6   7
HETATM    7  C5  UNL     1      25.474   0.878  52.684  1.00  0.00    -0.050 A 
HETATM    8  C6  UNL     1      26.145   1.764  53.504  1.00  0.00     0.010 A 
HETATM    9  C7  UNL     1      27.307   1.322  54.142  1.00  0.00     0.040 A 
HETATM   10  C8  UNL     1      27.767   0.029  53.951  1.00  0.00     0.102 A 
HETATM   11  C9  UNL     1      27.077  -0.838  53.125  1.00  0.00     0.102 A 
HETATM   12  O2  UNL     1      28.916  -0.441  54.567  1.00  0.00    -0.346 OA
HETATM   13  C10 UNL     1      25.927  -0.416  52.488  1.00  0.00     0.047 A 
HETATM   14  O1  UNL     1      27.649  -2.094  53.027  1.00  0.00    -0.346 OA
HETATM   15  C11 UNL     1      29.035  -2.346  53.069  1.00  0.00     0.202 C 
HETATM   16  C12 UNL     1      29.771  -1.397  53.976  1.00  0.00     0.202 C 
ENDBRANCH   6   7
ENDBRANCH   3   6
BRANCH   5  17
HETATM   17  C13 UNL     1      25.088   5.251  49.266  1.00  0.00     0.053 A 
HETATM   18  C14 UNL     1      26.428   5.517  49.084  1.00  0.00     0.031 A 
HETATM   19  C15 UNL     1      26.843   6.572  48.307  1.00  0.00     0.002 A 
HETATM   20  C16 UNL     1      25.874   7.369  47.707  1.00  0.00     0.000 A 
HETATM   21  C17 UNL     1      24.538   7.071  47.913  1.00  0.00     0.002 A 
HETATM   22  C18 UNL     1      24.097   6.017  48.689  1.00  0.00     0.031 A 
ENDBRANCH   5  17
TORSDOF 3
ENDMDL
MODEL 8
REMARK VINA RESULT:      -7.6      4.110      5.493
REMARK  3 active torsions:
REMARK  status: ('A' for Active; 'I' for Inactive)
REMARK    1  A    between atoms: C3_3  and  C4_4 
REMARK    2  A    between atoms: C4_4  and  C5_5 
REMARK    3  A    between atoms: N2_16  and  C13_17 
ROOT
HETATM    1  C1  UNL     1      22.231   1.920  49.749  1.00  0.00     0.041 C 
HETATM    2  C2  UNL     1      21.940   2.725  50.996  1.00  0.00     0.156 A 
HETATM    3  C3  UNL     1      22.969   3.778  51.164  1.00  0.00     0.061 A 
HETATM    4  N1  UNL     1      23.365   3.214  52.237  1.00  0.00    -0.178 NA
HETATM    5  N2  UNL     1      22.456   2.154  52.222  1.00  0.00    -0.260 N 
ENDROOT
BRANCH   3   6
HETATM    6  C4  UNL     1      23.400   4.981  50.445  1.00  0.00     0.097 C 
BRANCH   6   7
HETATM    7  C5  UNL     1      24.772   4.858  49.892  1.00  0.00    -0.050 A 
HETATM    8  C6  UNL     1      25.449   3.655  49.938  1.00  0.00     0.010 A 
HETATM    9  C7  UNL     1      26.738   3.601  49.401  1.00  0.00     0.040 A 
HETATM   10  C8  UNL     1      27.314   4.728  48.839  1.00  0.00     0.102 A 
HETATM   11  C9  UNL     1      26.616   5.921  48.805  1.00  0.00     0.102 A 
HETATM   12  O2  UNL     1      28.590   4.710  48.298  1.00  0.00    -0.346 OA
HETATM   13  C10 UNL     1      25.342   5.990  49.331  1.00  0.00     0.047 A 
HETATM   14  O1  UNL     1      27.312   6.961  48.216  1.00  0.00    -0.346 OA
HETATM   15  C11 UNL     1      28.709   7.133  48.294  1.00  0.00     0.202 C 
HETATM   16  C12 UNL     1      29.454   5.826  48.325  1.00  0.00     0.202 C 
ENDBRANCH   6   7
ENDBRANCH   3   6
BRANCH   5  17
HETATM   17  C13 UNL     1      22.188   1.038  53.052  1.00  0.00     0.053 A 
HETATM   18  C14 UNL     1      20.897   0.869  53.505  1.00  0.00     0.031 A 
HETATM   19  C15 UNL     1      20.562  -0.191  54.314  1.00  0.00     0.002 A 
HETATM   20  C16 UNL     1      21.561  -1.092  54.665  1.00  0.00     0.000 A 
HETATM   21  C17 UNL     1      22.846  -0.890  54.190  1.00  0.00     0.002 A 
HETATM   22  C18 UNL     1      23.206   0.167  53.377  1.00  0.00     0.031 A 
ENDBRANCH   5  17
TORSDOF 3
ENDMDL
MODEL 9
REMARK VINA RESULT:      -7.4      4.168      7.479
REMARK  3 active torsions:
REMARK  status: ('A' for Active; 'I' for Inactive)
REMARK    1  A    between atoms: C3_3  and  C4_4 
REMARK    2  A    between atoms: C4_4  and  C5_5 
REMARK    3  A    between atoms: N2_16  and  C13_17 
ROOT
HETATM    1  C1  UNL     1      23.145   4.372  48.239  1.00  0.00     0.041 C 
HETATM    2  C2  UNL     1      24.121   3.970  49.322  1.00  0.00     0.156 A 
HETATM    3  C3  UNL     1      23.558   4.298  50.652  1.00  0.00     0.061 A 
HETATM    4  N1  UNL     1      24.492   5.147  50.834  1.00  0.00    -0.178 NA
HETATM    5  N2  UNL     1      25.143   4.953  49.614  1.00  0.00    -0.260 N 
ENDROOT
BRANCH   3   6
HETATM    6  C4  UNL     1      22.419   3.868  51.470  1.00  0.00     0.097 C 
BRANCH   6   7
HETATM    7  C5  UNL     1      22.670   2.585  52.173  1.00  0.00    -0.050 A 
HETATM    8  C6  UNL     1      21.624   1.759  52.534  1.00  0.00     0.010 A 
HETATM    9  C7  UNL     1      21.924   0.564  53.194  1.00  0.00     0.040 A 
HETATM   10  C8  UNL     1      23.238   0.224  53.473  1.00  0.00     0.102 A 
HETATM   11  C9  UNL     1      24.267   1.068  53.100  1.00  0.00     0.102 A 
HETATM   12  O2  UNL     1      23.570  -0.953  54.125  1.00  0.00    -0.346 OA
HETATM   13  C10 UNL     1      23.987   2.252  52.448  1.00  0.00     0.047 A 
HETATM   14  O1  UNL     1      25.525   0.603  53.443  1.00  0.00    -0.346 OA
HETATM   15  C11 UNL     1      25.811  -0.151  54.598  1.00  0.00     0.202 C 
HETATM   16  C12 UNL     1      24.683  -1.068  54.987  1.00  0.00     0.202 C 
ENDBRANCH   6   7
ENDBRANCH   3   6
BRANCH   5  17
HETATM   17  C13 UNL     1      26.288   5.495  48.980  1.00  0.00     0.053 A 
HETATM   18  C14 UNL     1      26.190   6.764  48.452  1.00  0.00     0.031 A 
HETATM   19  C15 UNL     1      27.260   7.354  47.822  1.00  0.00     0.002 A 
HETATM   20  C16 UNL     1      28.448   6.636  47.730  1.00  0.00     0.000 A 
HETATM   21  C17 UNL     1      28.508   5.364  48.272  1.00  0.00     0.002 A 
HETATM   22  C18 UNL     1      27.446   4.751  48.909  1.00  0.00     0.031 A 
ENDBRANCH   5  17
TORSDOF 3
ENDMDL
