MODEL 1
REMARK VINA RESULT:      -6.6      0.000      0.000
REMARK  9 active torsions:
REMARK  status: ('A' for Active; 'I' for Inactive)
REMARK    1  A    between atoms: C2_2  and  C3_3 
REMARK    2  A    between atoms: C3_3  and  C4_4 
REMARK    3  A    between atoms: C4_4  and  N1_5 
REMARK    4  A    between atoms: N1_5  and  C5_6 
REMARK    5  A    between atoms: N1_5  and  C15_21 
REMARK    6  A    between atoms: C5_6  and  C6_7 
REMARK    7  A    between atoms: C7_8  and  C8_9 
REMARK    8  A    between atoms: C15_21  and  C16_22 
REMARK    9  A    between atoms: C16_22  and  C17_23 
ROOT
HETATM    1  C8  UNL     1      26.635   1.698  51.430  1.00  0.00     0.346 C 
HETATM    2  N2  UNL     1      27.476   2.049  52.424  1.00  0.00    -0.404 NA
HETATM    3  C9  UNL     1      28.113   2.635  53.221  1.00  0.00     0.292 C 
HETATM    4  N3  UNL     1      28.610   1.341  53.603  1.00  0.00    -0.241 NA
HETATM    5  C10 UNL     1      27.818   0.467  54.224  1.00  0.00     0.154 A 
HETATM    6  C11 UNL     1      26.495   0.050  54.835  1.00  0.00     0.137 A 
HETATM    7  N4  UNL     1      26.327   0.331  53.590  1.00  0.00    -0.228 NA
HETATM    8  C12 UNL     1      26.964  -0.499  52.563  1.00  0.00     0.081 C 
HETATM    9  C13 UNL     1      27.716  -1.573  52.970  1.00  0.00     0.039 C 
HETATM   10  C14 UNL     1      28.499  -0.894  54.126  1.00  0.00     0.155 C 
HETATM   11 CL1  UNL     1      30.166  -0.795  53.562  1.00  0.00    -0.117 Cl
HETATM   12  N5  UNL     1      26.691   0.187  51.307  1.00  0.00    -0.339 N 
HETATM   13  H17 UNL     1      26.538  -0.263  50.367  1.00  0.00     0.164 HD
ENDROOT
BRANCH   1  14
HETATM   14  C7  UNL     1      25.220   1.929  51.931  1.00  0.00    -0.044 C 
HETATM   15  C6  UNL     1      24.091   2.108  52.310  1.00  0.00    -0.071 C 
BRANCH  15  16
HETATM   16  C5  UNL     1      22.715   2.325  52.745  1.00  0.00     0.365 C 
BRANCH  16  17
HETATM   17  N1  UNL     1      21.976   1.064  52.320  1.00  0.00     0.099 N 
BRANCH  17  18
HETATM   18  C4  UNL     1      21.012   0.918  53.360  1.00  0.00     0.273 C 
BRANCH  18  19
HETATM   19  C3  UNL     1      20.900  -0.322  54.137  1.00  0.00     0.030 C 
BRANCH  19  20
HETATM   20  C2  UNL     1      22.047  -1.285  53.954  1.00  0.00    -0.003 C 
HETATM   21  C1  UNL     1      22.958  -1.221  55.180  1.00  0.00     0.005 C 
ENDBRANCH  19  20
ENDBRANCH  18  19
ENDBRANCH  17  18
BRANCH  17  22
HETATM   22  C15 UNL     1      21.389   1.538  51.076  1.00  0.00     0.273 C 
BRANCH  22  23
HETATM   23  C16 UNL     1      21.592   0.830  49.818  1.00  0.00     0.030 C 
BRANCH  23  24
HETATM   24  C17 UNL     1      21.682   1.639  48.572  1.00  0.00    -0.003 C 
HETATM   25  C18 UNL     1      22.859   2.553  48.574  1.00  0.00     0.005 C 
ENDBRANCH  23  24
ENDBRANCH  22  23
ENDBRANCH  17  22
ENDBRANCH  16  17
ENDBRANCH  15  16
ENDBRANCH   1  14
TORSDOF 9
ENDMDL
MODEL 2
REMARK VINA RESULT:      -6.6      1.243      2.299
REMARK  9 active torsions:
REMARK  status: ('A' for Active; 'I' for Inactive)
REMARK    1  A    between atoms: C2_2  and  C3_3 
REMARK    2  A    between atoms: C3_3  and  C4_4 
REMARK    3  A    between atoms: C4_4  and  N1_5 
REMARK    4  A    between atoms: N1_5  and  C5_6 
REMARK    5  A    between atoms: N1_5  and  C15_21 
REMARK    6  A    between atoms: C5_6  and  C6_7 
REMARK    7  A    between atoms: C7_8  and  C8_9 
REMARK    8  A    between atoms: C15_21  and  C16_22 
REMARK    9  A    between atoms: C16_22  and  C17_23 
ROOT
HETATM    1  C8  UNL     1      25.472  -1.025  54.290  1.00  0.00     0.346 C 
HETATM    2  N2  UNL     1      26.304  -1.463  53.323  1.00  0.00    -0.404 NA
HETATM    3  C9  UNL     1      26.776  -1.974  52.374  1.00  0.00     0.292 C 
HETATM    4  N3  UNL     1      28.012  -1.388  52.819  1.00  0.00    -0.241 NA
HETATM    5  C10 UNL     1      28.201  -0.071  52.752  1.00  0.00     0.154 A 
HETATM    6  C11 UNL     1      27.753   1.336  52.407  1.00  0.00     0.137 A 
HETATM    7  N4  UNL     1      26.942   0.822  53.264  1.00  0.00    -0.228 NA
HETATM    8  C12 UNL     1      27.413   0.506  54.616  1.00  0.00     0.081 C 
HETATM    9  C13 UNL     1      28.719   0.787  54.931  1.00  0.00     0.039 C 
HETATM   10  C14 UNL     1      29.398   0.249  53.642  1.00  0.00     0.155 C 
HETATM   11 CL1  UNL     1      30.287  -1.185  54.149  1.00  0.00    -0.117 Cl
HETATM   12  N5  UNL     1      26.297  -0.186  55.247  1.00  0.00    -0.339 N 
HETATM   13  H17 UNL     1      26.032  -0.150  56.266  1.00  0.00     0.164 HD
ENDROOT
BRANCH   1  14
HETATM   14  C7  UNL     1      24.553   0.008  53.663  1.00  0.00    -0.044 C 
HETATM   15  C6  UNL     1      23.810   0.824  53.181  1.00  0.00    -0.071 C 
BRANCH  15  16
HETATM   16  C5  UNL     1      22.892   1.805  52.611  1.00  0.00     0.365 C 
BRANCH  16  17
HETATM   17  N1  UNL     1      21.700   0.983  52.140  1.00  0.00     0.099 N 
BRANCH  17  18
HETATM   18  C4  UNL     1      20.715   1.294  53.121  1.00  0.00     0.273 C 
BRANCH  18  19
HETATM   19  C3  UNL     1      20.404   0.372  54.220  1.00  0.00     0.030 C 
BRANCH  19  20
HETATM   20  C2  UNL     1      20.474  -1.090  53.853  1.00  0.00    -0.003 C 
HETATM   21  C1  UNL     1      21.593  -1.755  54.655  1.00  0.00     0.005 C 
ENDBRANCH  19  20
ENDBRANCH  18  19
ENDBRANCH  17  18
BRANCH  17  22
HETATM   22  C15 UNL     1      21.447   1.638  50.865  1.00  0.00     0.273 C 
BRANCH  22  23
HETATM   23  C16 UNL     1      21.489   0.903  49.607  1.00  0.00     0.030 C 
BRANCH  23  24
HETATM   24  C17 UNL     1      21.636   1.686  48.350  1.00  0.00    -0.003 C 
HETATM   25  C18 UNL     1      22.800   2.615  48.394  1.00  0.00     0.005 C 
ENDBRANCH  23  24
ENDBRANCH  22  23
ENDBRANCH  17  22
ENDBRANCH  16  17
ENDBRANCH  15  16
ENDBRANCH   1  14
TORSDOF 9
ENDMDL
MODEL 3
REMARK VINA RESULT:      -6.3      3.148      6.362
REMARK  9 active torsions:
REMARK  status: ('A' for Active; 'I' for Inactive)
REMARK    1  A    between atoms: C2_2  and  C3_3 
REMARK    2  A    between atoms: C3_3  and  C4_4 
REMARK    3  A    between atoms: C4_4  and  N1_5 
REMARK    4  A    between atoms: N1_5  and  C5_6 
REMARK    5  A    between atoms: N1_5  and  C15_21 
REMARK    6  A    between atoms: C5_6  and  C6_7 
REMARK    7  A    between atoms: C7_8  and  C8_9 
REMARK    8  A    between atoms: C15_21  and  C16_22 
REMARK    9  A    between atoms: C16_22  and  C17_23 
ROOT
HETATM    1  C8  UNL     1      25.198   3.771  50.272  1.00  0.00     0.346 C 
HETATM    2  N2  UNL     1      24.081   3.399  49.613  1.00  0.00    -0.404 NA
HETATM    3  C9  UNL     1      23.307   2.928  48.864  1.00  0.00     0.292 C 
HETATM    4  N3  UNL     1      22.311   3.601  49.652  1.00  0.00    -0.241 NA
HETATM    5  C10 UNL     1      22.035   3.191  50.890  1.00  0.00     0.154 A 
HETATM    6  C11 UNL     1      22.230   2.265  52.074  1.00  0.00     0.137 A 
HETATM    7  N4  UNL     1      23.340   2.857  51.802  1.00  0.00    -0.228 NA
HETATM    8  C12 UNL     1      23.453   4.308  51.971  1.00  0.00     0.081 C 
HETATM    9  C13 UNL     1      22.359   4.996  52.435  1.00  0.00     0.039 C 
HETATM   10  C14 UNL     1      21.264   4.320  51.568  1.00  0.00     0.155 C 
HETATM   11 CL1  UNL     1      20.729   5.565  50.443  1.00  0.00    -0.117 Cl
HETATM   12  N5  UNL     1      24.765   4.644  51.434  1.00  0.00    -0.339 N 
HETATM   13  H17 UNL     1      25.404   5.410  51.773  1.00  0.00     0.164 HD
ENDROOT
BRANCH   1  14
HETATM   14  C7  UNL     1      25.738   2.539  50.979  1.00  0.00    -0.044 C 
HETATM   15  C6  UNL     1      26.169   1.554  51.520  1.00  0.00    -0.071 C 
BRANCH  15  16
HETATM   16  C5  UNL     1      26.692   0.348  52.154  1.00  0.00     0.365 C 
BRANCH  16  17
HETATM   17  N1  UNL     1      26.270   0.469  53.612  1.00  0.00     0.099 N 
BRANCH  17  18
HETATM   18  C4  UNL     1      25.395  -0.646  53.764  1.00  0.00     0.273 C 
BRANCH  18  19
HETATM   19  C3  UNL     1      23.937  -0.496  53.690  1.00  0.00     0.030 C 
BRANCH  19  20
HETATM   20  C2  UNL     1      23.180  -1.124  54.834  1.00  0.00    -0.003 C 
HETATM   21  C1  UNL     1      21.740  -0.613  54.825  1.00  0.00     0.005 C 
ENDBRANCH  19  20
ENDBRANCH  18  19
ENDBRANCH  17  18
BRANCH  17  22
HETATM   22  C15 UNL     1      27.559   0.259  54.252  1.00  0.00     0.273 C 
BRANCH  22  23
HETATM   23  C16 UNL     1      28.810   0.540  53.560  1.00  0.00     0.030 C 
BRANCH  23  24
HETATM   24  C17 UNL     1      29.900  -0.469  53.658  1.00  0.00    -0.003 C 
HETATM   25  C18 UNL     1      29.424  -1.848  53.358  1.00  0.00     0.005 C 
ENDBRANCH  23  24
ENDBRANCH  22  23
ENDBRANCH  17  22
ENDBRANCH  16  17
ENDBRANCH  15  16
ENDBRANCH   1  14
TORSDOF 9
ENDMDL
MODEL 4
REMARK VINA RESULT:      -6.3      0.596      3.260
REMARK  9 active torsions:
REMARK  status: ('A' for Active; 'I' for Inactive)
REMARK    1  A    between atoms: C2_2  and  C3_3 
REMARK    2  A    between atoms: C3_3  and  C4_4 
REMARK    3  A    between atoms: C4_4  and  N1_5 
REMARK    4  A    between atoms: N1_5  and  C5_6 
REMARK    5  A    between atoms: N1_5  and  C15_21 
REMARK    6  A    between atoms: C5_6  and  C6_7 
REMARK    7  A    between atoms: C7_8  and  C8_9 
REMARK    8  A    between atoms: C15_21  and  C16_22 
REMARK    9  A    between atoms: C16_22  and  C17_23 
ROOT
HETATM    1  C8  UNL     1      26.806   1.991  51.469  1.00  0.00     0.346 C 
HETATM    2  N2  UNL     1      27.667   2.171  52.491  1.00  0.00    -0.404 NA
HETATM    3  C9  UNL     1      28.362   2.621  53.327  1.00  0.00     0.292 C 
HETATM    4  N3  UNL     1      28.670   1.252  53.643  1.00  0.00    -0.241 NA
HETATM    5  C10 UNL     1      27.754   0.463  54.205  1.00  0.00     0.154 A 
HETATM    6  C11 UNL     1      26.375   0.199  54.774  1.00  0.00     0.137 A 
HETATM    7  N4  UNL     1      26.272   0.566  53.545  1.00  0.00    -0.228 NA
HETATM    8  C12 UNL     1      26.810  -0.287  52.481  1.00  0.00     0.081 C 
HETATM    9  C13 UNL     1      27.401  -1.474  52.837  1.00  0.00     0.039 C 
HETATM   10  C14 UNL     1      28.246  -0.972  54.039  1.00  0.00     0.155 C 
HETATM   11 CL1  UNL     1      29.921  -1.072  53.502  1.00  0.00    -0.117 Cl
HETATM   12  N5  UNL     1      26.658   0.496  51.262  1.00  0.00    -0.339 N 
HETATM   13  H17 UNL     1      26.464   0.123  50.297  1.00  0.00     0.164 HD
ENDROOT
BRANCH   1  14
HETATM   14  C7  UNL     1      25.425   2.386  51.965  1.00  0.00    -0.044 C 
HETATM   15  C6  UNL     1      24.338   2.719  52.361  1.00  0.00    -0.071 C 
BRANCH  15  16
HETATM   16  C5  UNL     1      23.030   3.144  52.848  1.00  0.00     0.365 C 
BRANCH  16  17
HETATM   17  N1  UNL     1      22.065   2.089  52.325  1.00  0.00     0.099 N 
BRANCH  17  18
HETATM   18  C4  UNL     1      22.456   1.977  50.959  1.00  0.00     0.273 C 
BRANCH  18  19
HETATM   19  C3  UNL     1      21.842   0.991  50.061  1.00  0.00     0.030 C 
BRANCH  19  20
HETATM   20  C2  UNL     1      21.411   1.541  48.724  1.00  0.00    -0.003 C 
HETATM   21  C1  UNL     1      22.591   2.265  48.075  1.00  0.00     0.005 C 
ENDBRANCH  19  20
ENDBRANCH  18  19
ENDBRANCH  17  18
BRANCH  17  22
HETATM   22  C15 UNL     1      22.495   0.953  53.126  1.00  0.00     0.273 C 
BRANCH  22  23
HETATM   23  C16 UNL     1      21.577   0.256  54.018  1.00  0.00     0.030 C 
BRANCH  23  24
HETATM   24  C17 UNL     1      21.869  -1.167  54.340  1.00  0.00    -0.003 C 
HETATM   25  C18 UNL     1      23.007  -1.312  55.290  1.00  0.00     0.005 C 
ENDBRANCH  23  24
ENDBRANCH  22  23
ENDBRANCH  17  22
ENDBRANCH  16  17
ENDBRANCH  15  16
ENDBRANCH   1  14
TORSDOF 9
ENDMDL
MODEL 5
REMARK VINA RESULT:      -6.2      3.172      6.390
REMARK  9 active torsions:
REMARK  status: ('A' for Active; 'I' for Inactive)
REMARK    1  A    between atoms: C2_2  and  C3_3 
REMARK    2  A    between atoms: C3_3  and  C4_4 
REMARK    3  A    between atoms: C4_4  and  N1_5 
REMARK    4  A    between atoms: N1_5  and  C5_6 
REMARK    5  A    between atoms: N1_5  and  C15_21 
REMARK    6  A    between atoms: C5_6  and  C6_7 
REMARK    7  A    between atoms: C7_8  and  C8_9 
REMARK    8  A    between atoms: C15_21  and  C16_22 
REMARK    9  A    between atoms: C16_22  and  C17_23 
ROOT
HETATM    1  C8  UNL     1      23.196   3.340  52.597  1.00  0.00     0.346 C 
HETATM    2  N2  UNL     1      23.456   4.517  51.991  1.00  0.00    -0.404 NA
HETATM    3  C9  UNL     1      23.774   5.622  51.742  1.00  0.00     0.292 C 
HETATM    4  N3  UNL     1      23.354   5.315  50.401  1.00  0.00    -0.241 NA
HETATM    5  C10 UNL     1      24.057   4.470  49.647  1.00  0.00     0.154 A 
HETATM    6  C11 UNL     1      25.226   3.535  49.408  1.00  0.00     0.137 A 
HETATM    7  N4  UNL     1      24.534   3.115  50.409  1.00  0.00    -0.228 NA
HETATM    8  C12 UNL     1      23.159   2.650  50.202  1.00  0.00     0.081 C 
HETATM    9  C13 UNL     1      22.654   2.665  48.925  1.00  0.00     0.039 C 
HETATM   10  C14 UNL     1      23.159   4.065  48.482  1.00  0.00     0.155 C 
HETATM   11 CL1  UNL     1      21.710   5.060  48.347  1.00  0.00    -0.117 Cl
HETATM   12  N5  UNL     1      22.643   2.403  51.541  1.00  0.00    -0.339 N 
HETATM   13  H17 UNL     1      21.948   1.661  51.819  1.00  0.00     0.164 HD
ENDROOT
BRANCH   1  14
HETATM   14  C7  UNL     1      24.532   2.698  52.930  1.00  0.00    -0.044 C 
HETATM   15  C6  UNL     1      25.599   2.208  53.199  1.00  0.00    -0.071 C 
BRANCH  15  16
HETATM   16  C5  UNL     1      26.901   1.637  53.525  1.00  0.00     0.365 C 
BRANCH  16  17
HETATM   17  N1  UNL     1      26.621   0.676  54.673  1.00  0.00     0.099 N 
BRANCH  17  18
HETATM   18  C4  UNL     1      25.794  -0.302  54.049  1.00  0.00     0.273 C 
BRANCH  18  19
HETATM   19  C3  UNL     1      24.783  -1.051  54.805  1.00  0.00     0.030 C 
BRANCH  19  20
HETATM   20  C2  UNL     1      23.363  -0.593  54.581  1.00  0.00    -0.003 C 
HETATM   21  C1  UNL     1      22.994  -0.801  53.112  1.00  0.00     0.005 C 
ENDBRANCH  19  20
ENDBRANCH  18  19
ENDBRANCH  17  18
BRANCH  17  22
HETATM   22  C15 UNL     1      27.972   0.194  54.916  1.00  0.00     0.273 C 
BRANCH  22  23
HETATM   23  C16 UNL     1      29.095   0.619  54.091  1.00  0.00     0.030 C 
BRANCH  23  24
HETATM   24  C17 UNL     1      29.978  -0.436  53.522  1.00  0.00    -0.003 C 
HETATM   25  C18 UNL     1      29.269  -1.735  53.349  1.00  0.00     0.005 C 
ENDBRANCH  23  24
ENDBRANCH  22  23
ENDBRANCH  17  22
ENDBRANCH  16  17
ENDBRANCH  15  16
ENDBRANCH   1  14
TORSDOF 9
ENDMDL
MODEL 6
REMARK VINA RESULT:      -6.2      3.144      7.038
REMARK  9 active torsions:
REMARK  status: ('A' for Active; 'I' for Inactive)
REMARK    1  A    between atoms: C2_2  and  C3_3 
REMARK    2  A    between atoms: C3_3  and  C4_4 
REMARK    3  A    between atoms: C4_4  and  N1_5 
REMARK    4  A    between atoms: N1_5  and  C5_6 
REMARK    5  A    between atoms: N1_5  and  C15_21 
REMARK    6  A    between atoms: C5_6  and  C6_7 
REMARK    7  A    between atoms: C7_8  and  C8_9 
REMARK    8  A    between atoms: C15_21  and  C16_22 
REMARK    9  A    between atoms: C16_22  and  C17_23 
ROOT
HETATM    1  C8  UNL     1      21.710   1.187  51.201  1.00  0.00     0.346 C 
HETATM    2  N2  UNL     1      20.984   2.111  51.863  1.00  0.00    -0.404 NA
HETATM    3  C9  UNL     1      20.269   2.676  52.607  1.00  0.00     0.292 C 
HETATM    4  N3  UNL     1      20.616   3.855  51.860  1.00  0.00    -0.241 NA
HETATM    5  C10 UNL     1      21.842   4.373  51.943  1.00  0.00     0.154 A 
HETATM    6  C11 UNL     1      23.258   4.395  52.481  1.00  0.00     0.137 A 
HETATM    7  N4  UNL     1      23.047   3.285  51.865  1.00  0.00    -0.228 NA
HETATM    8  C12 UNL     1      22.803   3.287  50.419  1.00  0.00     0.081 C 
HETATM    9  C13 UNL     1      22.824   4.491  49.759  1.00  0.00     0.039 C 
HETATM   10  C14 UNL     1      21.995   5.333  50.767  1.00  0.00     0.155 C 
HETATM   11 CL1  UNL     1      20.474   5.673  49.947  1.00  0.00    -0.117 Cl
HETATM   12  N5  UNL     1      22.458   1.909  50.097  1.00  0.00    -0.339 N 
HETATM   13  H17 UNL     1      22.677   1.401  49.200  1.00  0.00     0.164 HD
ENDROOT
BRANCH   1  14
HETATM   14  C7  UNL     1      22.837   0.751  52.122  1.00  0.00    -0.044 C 
HETATM   15  C6  UNL     1      23.728   0.386  52.845  1.00  0.00    -0.071 C 
BRANCH  15  16
HETATM   16  C5  UNL     1      24.802  -0.079  53.716  1.00  0.00     0.365 C 
BRANCH  16  17
HETATM   17  N1  UNL     1      26.080   0.256  52.961  1.00  0.00     0.099 N 
BRANCH  17  18
HETATM   18  C4  UNL     1      26.215   1.653  53.204  1.00  0.00     0.273 C 
BRANCH  18  19
HETATM   19  C3  UNL     1      26.689   2.574  52.164  1.00  0.00     0.030 C 
BRANCH  19  20
HETATM   20  C2  UNL     1      26.424   2.118  50.751  1.00  0.00    -0.003 C 
HETATM   21  C1  UNL     1      26.495   3.323  49.813  1.00  0.00     0.005 C 
ENDBRANCH  19  20
ENDBRANCH  18  19
ENDBRANCH  17  18
BRANCH  17  22
HETATM   22  C15 UNL     1      27.027  -0.539  53.727  1.00  0.00     0.273 C 
BRANCH  22  23
HETATM   23  C16 UNL     1      28.024   0.082  54.590  1.00  0.00     0.030 C 
BRANCH  23  24
HETATM   24  C17 UNL     1      29.413   0.203  54.071  1.00  0.00    -0.003 C 
HETATM   25  C18 UNL     1      29.900  -1.062  53.453  1.00  0.00     0.005 C 
ENDBRANCH  23  24
ENDBRANCH  22  23
ENDBRANCH  17  22
ENDBRANCH  16  17
ENDBRANCH  15  16
ENDBRANCH   1  14
TORSDOF 9
ENDMDL
MODEL 7
REMARK VINA RESULT:      -6.2      3.731      6.695
REMARK  9 active torsions:
REMARK  status: ('A' for Active; 'I' for Inactive)
REMARK    1  A    between atoms: C2_2  and  C3_3 
REMARK    2  A    between atoms: C3_3  and  C4_4 
REMARK    3  A    between atoms: C4_4  and  N1_5 
REMARK    4  A    between atoms: N1_5  and  C5_6 
REMARK    5  A    between atoms: N1_5  and  C15_21 
REMARK    6  A    between atoms: C5_6  and  C6_7 
REMARK    7  A    between atoms: C7_8  and  C8_9 
REMARK    8  A    between atoms: C15_21  and  C16_22 
REMARK    9  A    between atoms: C16_22  and  C17_23 
ROOT
HETATM    1  C8  UNL     1      25.475   3.754  50.015  1.00  0.00     0.346 C 
HETATM    2  N2  UNL     1      24.210   3.621  49.567  1.00  0.00    -0.404 NA
HETATM    3  C9  UNL     1      23.189   3.214  49.149  1.00  0.00     0.292 C 
HETATM    4  N3  UNL     1      22.736   4.574  49.258  1.00  0.00    -0.241 NA
HETATM    5  C10 UNL     1      22.536   5.128  50.453  1.00  0.00     0.154 A 
HETATM    6  C11 UNL     1      22.520   5.087  51.968  1.00  0.00     0.137 A 
HETATM    7  N4  UNL     1      23.709   4.839  51.541  1.00  0.00    -0.228 NA
HETATM    8  C12 UNL     1      24.463   5.880  50.837  1.00  0.00     0.081 C 
HETATM    9  C13 UNL     1      23.872   7.107  50.666  1.00  0.00     0.039 C 
HETATM   10  C14 UNL     1      22.457   6.636  50.234  1.00  0.00     0.155 C 
HETATM   11 CL1  UNL     1      22.319   7.082  48.535  1.00  0.00    -0.117 Cl
HETATM   12  N5  UNL     1      25.674   5.214  50.374  1.00  0.00    -0.339 N 
HETATM   13  H17 UNL     1      26.629   5.648  50.275  1.00  0.00     0.164 HD
ENDROOT
BRANCH   1  14
HETATM   14  C7  UNL     1      25.550   3.075  51.371  1.00  0.00    -0.044 C 
HETATM   15  C6  UNL     1      25.606   2.518  52.437  1.00  0.00    -0.071 C 
BRANCH  15  16
HETATM   16  C5  UNL     1      25.666   1.822  53.718  1.00  0.00     0.365 C 
BRANCH  16  17
HETATM   17  N1  UNL     1      26.422   0.534  53.419  1.00  0.00     0.099 N 
BRANCH  17  18
HETATM   18  C4  UNL     1      27.018   0.236  54.678  1.00  0.00     0.273 C 
BRANCH  18  19
HETATM   19  C3  UNL     1      28.475   0.208  54.853  1.00  0.00     0.030 C 
BRANCH  19  20
HETATM   20  C2  UNL     1      29.259   0.051  53.574  1.00  0.00    -0.003 C 
HETATM   21  C1  UNL     1      29.699  -1.405  53.429  1.00  0.00     0.005 C 
ENDBRANCH  19  20
ENDBRANCH  18  19
ENDBRANCH  17  18
BRANCH  17  22
HETATM   22  C15 UNL     1      25.297  -0.337  53.112  1.00  0.00     0.273 C 
BRANCH  22  23
HETATM   23  C16 UNL     1      24.263  -0.624  54.097  1.00  0.00     0.030 C 
BRANCH  23  24
HETATM   24  C17 UNL     1      22.844  -0.442  53.688  1.00  0.00    -0.003 C 
HETATM   25  C18 UNL     1      21.889  -0.834  54.763  1.00  0.00     0.005 C 
ENDBRANCH  23  24
ENDBRANCH  22  23
ENDBRANCH  17  22
ENDBRANCH  16  17
ENDBRANCH  15  16
ENDBRANCH   1  14
TORSDOF 9
ENDMDL
MODEL 8
REMARK VINA RESULT:      -6.1      4.132      6.815
REMARK  9 active torsions:
REMARK  status: ('A' for Active; 'I' for Inactive)
REMARK    1  A    between atoms: C2_2  and  C3_3 
REMARK    2  A    between atoms: C3_3  and  C4_4 
REMARK    3  A    between atoms: C4_4  and  N1_5 
REMARK    4  A    between atoms: N1_5  and  C5_6 
REMARK    5  A    between atoms: N1_5  and  C15_21 
REMARK    6  A    between atoms: C5_6  and  C6_7 
REMARK    7  A    between atoms: C7_8  and  C8_9 
REMARK    8  A    between atoms: C15_21  and  C16_22 
REMARK    9  A    between atoms: C16_22  and  C17_23 
ROOT
HETATM    1  C8  UNL     1      25.684   4.838  49.132  1.00  0.00     0.346 C 
HETATM    2  N2  UNL     1      24.373   4.790  48.819  1.00  0.00    -0.404 NA
HETATM    3  C9  UNL     1      23.315   4.499  48.393  1.00  0.00     0.292 C 
HETATM    4  N3  UNL     1      22.844   5.664  49.093  1.00  0.00    -0.241 NA
HETATM    5  C10 UNL     1      22.796   5.681  50.425  1.00  0.00     0.154 A 
HETATM    6  C11 UNL     1      22.992   5.043  51.785  1.00  0.00     0.137 A 
HETATM    7  N4  UNL     1      24.117   5.082  51.160  1.00  0.00    -0.228 NA
HETATM    8  C12 UNL     1      24.736   6.374  50.852  1.00  0.00     0.081 C 
HETATM    9  C13 UNL     1      24.092   7.517  51.261  1.00  0.00     0.039 C 
HETATM   10  C14 UNL     1      22.645   7.141  50.842  1.00  0.00     0.155 C 
HETATM   11 CL1  UNL     1      22.259   8.210  49.496  1.00  0.00    -0.117 Cl
HETATM   12  N5  UNL     1      25.889   6.048  50.024  1.00  0.00    -0.339 N 
HETATM   13  H17 UNL     1      26.808   6.562  49.997  1.00  0.00     0.164 HD
ENDROOT
BRANCH   1  14
HETATM   14  C7  UNL     1      25.965   3.686  50.081  1.00  0.00    -0.044 C 
HETATM   15  C6  UNL     1      26.184   2.785  50.850  1.00  0.00    -0.071 C 
BRANCH  15  16
HETATM   16  C5  UNL     1      26.449   1.710  51.800  1.00  0.00     0.365 C 
BRANCH  16  17
HETATM   17  N1  UNL     1      25.862   2.207  53.114  1.00  0.00     0.099 N 
BRANCH  17  18
HETATM   18  C4  UNL     1      24.513   1.758  53.028  1.00  0.00     0.273 C 
BRANCH  18  19
HETATM   19  C3  UNL     1      24.168   0.334  53.113  1.00  0.00     0.030 C 
BRANCH  19  20
HETATM   20  C2  UNL     1      22.721   0.055  53.439  1.00  0.00    -0.003 C 
HETATM   21  C1  UNL     1      22.649  -0.997  54.546  1.00  0.00     0.005 C 
ENDBRANCH  19  20
ENDBRANCH  18  19
ENDBRANCH  17  18
BRANCH  17  22
HETATM   22  C15 UNL     1      26.656   1.419  54.044  1.00  0.00     0.273 C 
BRANCH  22  23
HETATM   23  C16 UNL     1      28.056   1.109  53.781  1.00  0.00     0.030 C 
BRANCH  23  24
HETATM   24  C17 UNL     1      28.659  -0.045  54.501  1.00  0.00    -0.003 C 
HETATM   25  C18 UNL     1      29.711  -0.728  53.696  1.00  0.00     0.005 C 
ENDBRANCH  23  24
ENDBRANCH  22  23
ENDBRANCH  17  22
ENDBRANCH  16  17
ENDBRANCH  15  16
ENDBRANCH   1  14
TORSDOF 9
ENDMDL
MODEL 9
REMARK VINA RESULT:      -6.0      4.204      6.808
REMARK  9 active torsions:
REMARK  status: ('A' for Active; 'I' for Inactive)
REMARK    1  A    between atoms: C2_2  and  C3_3 
REMARK    2  A    between atoms: C3_3  and  C4_4 
REMARK    3  A    between atoms: C4_4  and  N1_5 
REMARK    4  A    between atoms: N1_5  and  C5_6 
REMARK    5  A    between atoms: N1_5  and  C15_21 
REMARK    6  A    between atoms: C5_6  and  C6_7 
REMARK    7  A    between atoms: C7_8  and  C8_9 
REMARK    8  A    between atoms: C15_21  and  C16_22 
REMARK    9  A    between atoms: C16_22  and  C17_23 
ROOT
HETATM    1  C8  UNL     1      25.115   4.423  49.781  1.00  0.00     0.346 C 
HETATM    2  N2  UNL     1      23.998   4.642  49.058  1.00  0.00    -0.404 NA
HETATM    3  C9  UNL     1      23.063   4.543  48.350  1.00  0.00     0.292 C 
HETATM    4  N3  UNL     1      22.817   5.921  48.676  1.00  0.00    -0.241 NA
HETATM    5  C10 UNL     1      22.412   6.267  49.898  1.00  0.00     0.154 A 
HETATM    6  C11 UNL     1      22.010   5.942  51.323  1.00  0.00     0.137 A 
HETATM    7  N4  UNL     1      23.214   5.539  51.111  1.00  0.00    -0.228 NA
HETATM    8  C12 UNL     1      24.274   6.515  50.844  1.00  0.00     0.081 C 
HETATM    9  C13 UNL     1      23.944   7.848  50.845  1.00  0.00     0.039 C 
HETATM   10  C14 UNL     1      22.628   7.772  50.026  1.00  0.00     0.155 C 
HETATM   11 CL1  UNL     1      22.991   8.552  48.489  1.00  0.00    -0.117 Cl
HETATM   12  N5  UNL     1      25.443   5.714  50.505  1.00  0.00    -0.339 N 
HETATM   13  H17 UNL     1      26.448   5.951  50.714  1.00  0.00     0.164 HD
ENDROOT
BRANCH   1  14
HETATM   14  C7  UNL     1      24.739   3.497  50.925  1.00  0.00    -0.044 C 
HETATM   15  C6  UNL     1      24.441   2.779  51.845  1.00  0.00    -0.071 C 
BRANCH  15  16
HETATM   16  C5  UNL     1      24.085   1.929  52.975  1.00  0.00     0.365 C 
BRANCH  16  17
HETATM   17  N1  UNL     1      24.497   0.528  52.545  1.00  0.00     0.099 N 
BRANCH  17  18
HETATM   18  C4  UNL     1      25.917   0.630  52.510  1.00  0.00     0.273 C 
BRANCH  18  19
HETATM   19  C3  UNL     1      26.767  -0.531  52.223  1.00  0.00     0.030 C 
BRANCH  19  20
HETATM   20  C2  UNL     1      27.863  -0.773  53.232  1.00  0.00    -0.003 C 
HETATM   21  C1  UNL     1      27.685   0.188  54.407  1.00  0.00     0.005 C 
ENDBRANCH  19  20
ENDBRANCH  18  19
ENDBRANCH  17  18
BRANCH  17  22
HETATM   22  C15 UNL     1      24.018  -0.226  53.693  1.00  0.00     0.273 C 
BRANCH  22  23
HETATM   23  C16 UNL     1      22.769  -0.976  53.648  1.00  0.00     0.030 C 
BRANCH  23  24
HETATM   24  C17 UNL     1      21.739  -0.673  54.679  1.00  0.00    -0.003 C 
HETATM   25  C18 UNL     1      20.792   0.390  54.238  1.00  0.00     0.005 C 
ENDBRANCH  23  24
ENDBRANCH  22  23
ENDBRANCH  17  22
ENDBRANCH  16  17
ENDBRANCH  15  16
ENDBRANCH   1  14
TORSDOF 9
ENDMDL
