MODEL 1
REMARK VINA RESULT:      -7.5      0.000      0.000
REMARK  2 active torsions:
REMARK  status: ('A' for Active; 'I' for Inactive)
REMARK    1  A    between atoms: N1_2  and  C2_3 
REMARK    2  A    between atoms: C11_17  and  C12_18 
ROOT
HETATM    1  C2  UNL     1      26.383   1.853  53.602  1.00  0.00     0.753 A 
HETATM    2  N2  UNL     1      25.440   2.255  52.684  1.00  0.00     0.131 NA
HETATM    3  C3  UNL     1      24.393   1.551  52.352  1.00  0.00     0.758 A 
HETATM    4  N3  UNL     1      24.382   0.427  53.013  1.00  0.00     0.131 NA
HETATM    5  C4  UNL     1      25.158  -0.105  53.888  1.00  0.00     0.754 A 
HETATM    6  N4  UNL     1      26.268   0.640  54.243  1.00  0.00     0.131 NA
HETATM    7  N5  UNL     1      24.812  -1.388  54.426  1.00  0.00    -0.221 N 
HETATM    8  C5  UNL     1      23.919  -1.452  55.553  1.00  0.00     0.144 C 
HETATM    9  C6  UNL     1      22.546  -0.979  55.294  1.00  0.00     0.018 C 
HETATM   10  C7  UNL     1      21.461  -0.551  54.854  1.00  0.00     0.022 C 
HETATM   11  C8  UNL     1      20.702  -0.064  53.738  1.00  0.00    -0.023 C 
HETATM   12  C9  UNL     1      20.145   0.355  52.616  1.00  0.00    -0.004 C 
HETATM   13  C10 UNL     1      20.911   0.366  51.333  1.00  0.00     0.202 C 
HETATM   14  O1  UNL     1      21.009   1.693  50.786  1.00  0.00    -0.348 OA
HETATM   15  C11 UNL     1      21.801   1.765  49.633  1.00  0.00     0.091 C 
HETATM   16  C13 UNL     1      23.016   1.953  50.108  1.00  0.00     0.141 C 
HETATM   17  N6  UNL     1      23.517   2.071  51.423  1.00  0.00    -0.195 N 
HETATM   18  H5  UNL     1      25.405  -1.888  53.719  1.00  0.00     0.177 HD
HETATM   19  H17 UNL     1      22.979   2.896  51.778  1.00  0.00     0.183 HD
ENDROOT
BRANCH   1  20
HETATM   20  N1  UNL     1      27.488   2.708  53.902  1.00  0.00    -0.226 N 
HETATM   21  C1  UNL     1      28.908   2.488  53.761  1.00  0.00     0.165 C 
HETATM   22  H4  UNL     1      27.256   3.648  54.296  1.00  0.00     0.177 HD
ENDBRANCH   1  20
BRANCH  15  23
HETATM   23  C12 UNL     1      21.690   1.693  48.162  1.00  0.00     0.288 C 
HETATM   24  F1  UNL     1      22.937   1.901  47.577  1.00  0.00    -0.248 F 
ENDBRANCH  15  23
TORSDOF 2
ENDMDL
MODEL 2
REMARK VINA RESULT:      -7.5      3.724      5.624
REMARK  2 active torsions:
REMARK  status: ('A' for Active; 'I' for Inactive)
REMARK    1  A    between atoms: N1_2  and  C2_3 
REMARK    2  A    between atoms: C11_17  and  C12_18 
ROOT
HETATM    1  C2  UNL     1      25.836   4.427  49.947  1.00  0.00     0.753 A 
HETATM    2  N2  UNL     1      26.513   3.349  50.472  1.00  0.00     0.131 NA
HETATM    3  C3  UNL     1      26.108   2.661  51.504  1.00  0.00     0.758 A 
HETATM    4  N3  UNL     1      24.985   3.148  51.953  1.00  0.00     0.131 NA
HETATM    5  C4  UNL     1      24.227   4.123  51.601  1.00  0.00     0.754 A 
HETATM    6  N4  UNL     1      24.652   4.853  50.506  1.00  0.00     0.131 NA
HETATM    7  N5  UNL     1      23.022   4.362  52.341  1.00  0.00    -0.221 N 
HETATM    8  C5  UNL     1      21.830   3.641  51.981  1.00  0.00     0.144 C 
HETATM    9  C6  UNL     1      21.893   2.182  52.187  1.00  0.00     0.018 C 
HETATM   10  C7  UNL     1      22.159   0.992  52.448  1.00  0.00     0.022 C 
HETATM   11  C8  UNL     1      23.090   0.036  52.973  1.00  0.00    -0.023 C 
HETATM   12  C9  UNL     1      24.051  -0.709  53.492  1.00  0.00    -0.004 C 
HETATM   13  C10 UNL     1      25.304  -0.091  54.022  1.00  0.00     0.202 C 
HETATM   14  O1  UNL     1      26.467  -0.574  53.328  1.00  0.00    -0.348 OA
HETATM   15  C11 UNL     1      27.655   0.049  53.728  1.00  0.00     0.091 C 
HETATM   16  C13 UNL     1      27.722   1.109  52.946  1.00  0.00     0.141 C 
HETATM   17  N6  UNL     1      26.874   1.596  51.927  1.00  0.00    -0.195 N 
HETATM   18  H5  UNL     1      23.496   5.064  52.961  1.00  0.00     0.177 HD
HETATM   19  H17 UNL     1      26.870   0.791  51.258  1.00  0.00     0.183 HD
ENDROOT
BRANCH   1  20
HETATM   20  N1  UNL     1      26.362   5.104  48.804  1.00  0.00    -0.226 N 
HETATM   21  C1  UNL     1      27.714   5.501  48.491  1.00  0.00     0.165 C 
HETATM   22  H4  UNL     1      25.675   5.373  48.065  1.00  0.00     0.177 HD
ENDBRANCH   1  20
BRANCH  15  23
HETATM   23  C12 UNL     1      28.764  -0.109  54.690  1.00  0.00     0.288 C 
HETATM   24  F1  UNL     1      29.852  -0.722  54.072  1.00  0.00    -0.248 F 
ENDBRANCH  15  23
TORSDOF 2
ENDMDL
MODEL 3
REMARK VINA RESULT:      -7.3      2.247      2.723
REMARK  2 active torsions:
REMARK  status: ('A' for Active; 'I' for Inactive)
REMARK    1  A    between atoms: N1_2  and  C2_3 
REMARK    2  A    between atoms: C11_17  and  C12_18 
ROOT
HETATM    1  C2  UNL     1      26.080   0.765  54.254  1.00  0.00     0.753 A 
HETATM    2  N2  UNL     1      25.870   1.927  53.546  1.00  0.00     0.131 NA
HETATM    3  C3  UNL     1      24.850   2.131  52.758  1.00  0.00     0.758 A 
HETATM    4  N3  UNL     1      24.077   1.080  52.747  1.00  0.00     0.131 NA
HETATM    5  C4  UNL     1      24.113  -0.064  53.328  1.00  0.00     0.754 A 
HETATM    6  N4  UNL     1      25.192  -0.283  54.165  1.00  0.00     0.131 NA
HETATM    7  N5  UNL     1      23.050  -0.995  53.083  1.00  0.00    -0.221 N 
HETATM    8  C5  UNL     1      21.856  -0.913  53.881  1.00  0.00     0.144 C 
HETATM    9  C6  UNL     1      21.069   0.323  53.708  1.00  0.00     0.018 C 
HETATM   10  C7  UNL     1      20.565   1.421  53.400  1.00  0.00     0.022 C 
HETATM   11  C8  UNL     1      20.619   2.606  52.593  1.00  0.00    -0.023 C 
HETATM   12  C9  UNL     1      20.808   3.627  51.776  1.00  0.00    -0.004 C 
HETATM   13  C10 UNL     1      21.940   3.633  50.799  1.00  0.00     0.202 C 
HETATM   14  O1  UNL     1      22.826   4.742  51.024  1.00  0.00    -0.348 OA
HETATM   15  C11 UNL     1      23.953   4.733  50.194  1.00  0.00     0.091 C 
HETATM   16  C13 UNL     1      24.822   4.002  50.864  1.00  0.00     0.141 C 
HETATM   17  N6  UNL     1      24.750   3.344  52.111  1.00  0.00    -0.195 N 
HETATM   18  H5  UNL     1      23.585  -1.464  52.312  1.00  0.00     0.177 HD
HETATM   19  H17 UNL     1      24.544   4.142  52.756  1.00  0.00     0.183 HD
ENDROOT
BRANCH   1  20
HETATM   20  N1  UNL     1      27.226   0.650  55.100  1.00  0.00    -0.226 N 
HETATM   21  C1  UNL     1      28.564   0.195  54.807  1.00  0.00     0.165 C 
HETATM   22  H4  UNL     1      27.097   0.926  56.099  1.00  0.00     0.177 HD
ENDBRANCH   1  20
BRANCH  15  23
HETATM   23  C12 UNL     1      24.421   5.253  48.892  1.00  0.00     0.288 C 
HETATM   24  F1  UNL     1      25.791   5.037  48.754  1.00  0.00    -0.248 F 
ENDBRANCH  15  23
TORSDOF 2
ENDMDL
MODEL 4
REMARK VINA RESULT:      -7.2      2.525      3.852
REMARK  2 active torsions:
REMARK  status: ('A' for Active; 'I' for Inactive)
REMARK    1  A    between atoms: N1_2  and  C2_3 
REMARK    2  A    between atoms: C11_17  and  C12_18 
ROOT
HETATM    1  C2  UNL     1      24.355   3.602  51.684  1.00  0.00     0.753 A 
HETATM    2  N2  UNL     1      23.109   3.150  52.054  1.00  0.00     0.131 NA
HETATM    3  C3  UNL     1      22.841   1.910  52.361  1.00  0.00     0.758 A 
HETATM    4  N3  UNL     1      23.918   1.182  52.263  1.00  0.00     0.131 NA
HETATM    5  C4  UNL     1      25.136   1.425  51.940  1.00  0.00     0.754 A 
HETATM    6  N4  UNL     1      25.425   2.738  51.615  1.00  0.00     0.131 NA
HETATM    7  N5  UNL     1      26.082   0.347  51.957  1.00  0.00    -0.221 N 
HETATM    8  C5  UNL     1      26.743   0.021  53.193  1.00  0.00     0.144 C 
HETATM    9  C6  UNL     1      25.861  -0.484  54.263  1.00  0.00     0.018 C 
HETATM   10  C7  UNL     1      24.946  -0.892  55.005  1.00  0.00     0.022 C 
HETATM   11  C8  UNL     1      23.558  -1.215  55.168  1.00  0.00    -0.023 C 
HETATM   12  C9  UNL     1      22.261  -1.471  55.150  1.00  0.00    -0.004 C 
HETATM   13  C10 UNL     1      21.458  -1.296  53.902  1.00  0.00     0.202 C 
HETATM   14  O1  UNL     1      20.405  -0.334  54.081  1.00  0.00    -0.348 OA
HETATM   15  C11 UNL     1      19.687  -0.068  52.909  1.00  0.00     0.091 C 
HETATM   16  C13 UNL     1      20.375   0.904  52.342  1.00  0.00     0.141 C 
HETATM   17  N6  UNL     1      21.551   1.587  52.724  1.00  0.00    -0.195 N 
HETATM   18  H5  UNL     1      25.939   0.152  50.936  1.00  0.00     0.177 HD
HETATM   19  H17 UNL     1      21.268   1.986  53.650  1.00  0.00     0.183 HD
ENDROOT
BRANCH   1  20
HETATM   20  N1  UNL     1      24.544   4.985  51.379  1.00  0.00    -0.226 N 
HETATM   21  C1  UNL     1      23.580   6.046  51.209  1.00  0.00     0.165 C 
HETATM   22  H4  UNL     1      25.530   5.302  51.245  1.00  0.00     0.177 HD
ENDBRANCH   1  20
BRANCH  15  23
HETATM   23  C12 UNL     1      18.487  -0.518  52.173  1.00  0.00     0.288 C 
HETATM   24  F1  UNL     1      18.571  -0.133  50.837  1.00  0.00    -0.248 F 
ENDBRANCH  15  23
TORSDOF 2
ENDMDL
MODEL 5
REMARK VINA RESULT:      -7.1      9.045     11.528
REMARK  2 active torsions:
REMARK  status: ('A' for Active; 'I' for Inactive)
REMARK    1  A    between atoms: N1_2  and  C2_3 
REMARK    2  A    between atoms: C11_17  and  C12_18 
ROOT
HETATM    1  C2  UNL     1      28.517  11.441  48.542  1.00  0.00     0.753 A 
HETATM    2  N2  UNL     1      29.642  10.764  48.128  1.00  0.00     0.131 NA
HETATM    3  C3  UNL     1      29.929   9.540  48.476  1.00  0.00     0.758 A 
HETATM    4  N3  UNL     1      29.003   9.069  49.263  1.00  0.00     0.131 NA
HETATM    5  C4  UNL     1      27.912   9.543  49.745  1.00  0.00     0.754 A 
HETATM    6  N4  UNL     1      27.602  10.840  49.378  1.00  0.00     0.131 NA
HETATM    7  N5  UNL     1      27.110   8.706  50.590  1.00  0.00    -0.221 N 
HETATM    8  C5  UNL     1      26.156   7.816  49.985  1.00  0.00     0.144 C 
HETATM    9  C6  UNL     1      26.737   6.744  49.154  1.00  0.00     0.018 C 
HETATM   10  C7  UNL     1      27.434   5.928  48.520  1.00  0.00     0.022 C 
HETATM   11  C8  UNL     1      28.741   5.460  48.157  1.00  0.00    -0.023 C 
HETATM   12  C9  UNL     1      30.006   5.154  47.928  1.00  0.00    -0.004 C 
HETATM   13  C10 UNL     1      31.114   5.913  48.582  1.00  0.00     0.202 C 
HETATM   14  O1  UNL     1      31.972   6.539  47.612  1.00  0.00    -0.348 OA
HETATM   15  C11 UNL     1      32.968   7.340  48.182  1.00  0.00     0.091 C 
HETATM   16  C13 UNL     1      32.382   8.515  48.308  1.00  0.00     0.141 C 
HETATM   17  N6  UNL     1      31.085   8.971  47.984  1.00  0.00    -0.195 N 
HETATM   18  H5  UNL     1      27.560   9.086  51.459  1.00  0.00     0.177 HD
HETATM   19  H17 UNL     1      31.049   8.781  46.955  1.00  0.00     0.183 HD
ENDROOT
BRANCH   1  20
HETATM   20  N1  UNL     1      28.291  12.778  48.093  1.00  0.00    -0.226 N 
HETATM   21  C1  UNL     1      27.288  13.741  48.483  1.00  0.00     0.165 C 
HETATM   22  H4  UNL     1      28.939  13.138  47.356  1.00  0.00     0.177 HD
ENDBRANCH   1  20
BRANCH  15  23
HETATM   23  C12 UNL     1      34.367   7.268  48.653  1.00  0.00     0.288 C 
HETATM   24  F1  UNL     1      34.666   5.974  49.071  1.00  0.00    -0.248 F 
ENDBRANCH  15  23
TORSDOF 2
ENDMDL
MODEL 6
REMARK VINA RESULT:      -7.1      3.590      6.655
REMARK  2 active torsions:
REMARK  status: ('A' for Active; 'I' for Inactive)
REMARK    1  A    between atoms: N1_2  and  C2_3 
REMARK    2  A    between atoms: C11_17  and  C12_18 
ROOT
HETATM    1  C2  UNL     1      18.784  -1.008  53.223  1.00  0.00     0.753 A 
HETATM    2  N2  UNL     1      20.098  -0.936  53.626  1.00  0.00     0.131 NA
HETATM    3  C3  UNL     1      21.005  -0.202  53.040  1.00  0.00     0.758 A 
HETATM    4  N3  UNL     1      20.480   0.437  52.033  1.00  0.00     0.131 NA
HETATM    5  C4  UNL     1      19.304   0.491  51.521  1.00  0.00     0.754 A 
HETATM    6  N4  UNL     1      18.340  -0.284  52.139  1.00  0.00     0.131 NA
HETATM    7  N5  UNL     1      19.084   1.341  50.387  1.00  0.00    -0.221 N 
HETATM    8  C5  UNL     1      18.773   2.728  50.609  1.00  0.00     0.144 C 
HETATM    9  C6  UNL     1      19.848   3.521  51.234  1.00  0.00     0.018 C 
HETATM   10  C7  UNL     1      20.881   3.992  51.749  1.00  0.00     0.022 C 
HETATM   11  C8  UNL     1      22.234   3.786  52.181  1.00  0.00    -0.023 C 
HETATM   12  C9  UNL     1      23.463   3.435  52.517  1.00  0.00    -0.004 C 
HETATM   13  C10 UNL     1      23.974   2.058  52.240  1.00  0.00     0.202 C 
HETATM   14  O1  UNL     1      24.358   1.383  53.450  1.00  0.00    -0.348 OA
HETATM   15  C11 UNL     1      24.753   0.055  53.247  1.00  0.00     0.091 C 
HETATM   16  C13 UNL     1      23.621  -0.616  53.322  1.00  0.00     0.141 C 
HETATM   17  N6  UNL     1      22.287  -0.211  53.548  1.00  0.00    -0.195 N 
HETATM   18  H5  UNL     1      19.249   0.553  49.714  1.00  0.00     0.177 HD
HETATM   19  H17 UNL     1      22.365   0.254  54.483  1.00  0.00     0.183 HD
ENDROOT
BRANCH   1  20
HETATM   20  N1  UNL     1      17.869  -1.835  53.943  1.00  0.00    -0.226 N 
HETATM   21  C1  UNL     1      17.430  -3.188  53.692  1.00  0.00     0.165 C 
HETATM   22  H4  UNL     1      17.425  -1.412  54.789  1.00  0.00     0.177 HD
ENDBRANCH   1  20
BRANCH  15  23
HETATM   23  C12 UNL     1      25.962  -0.754  52.990  1.00  0.00     0.288 C 
HETATM   24  F1  UNL     1      26.525  -0.398  51.766  1.00  0.00    -0.248 F 
ENDBRANCH  15  23
TORSDOF 2
ENDMDL
MODEL 7
REMARK VINA RESULT:      -6.9      3.092      4.698
REMARK  2 active torsions:
REMARK  status: ('A' for Active; 'I' for Inactive)
REMARK    1  A    between atoms: N1_2  and  C2_3 
REMARK    2  A    between atoms: C11_17  and  C12_18 
ROOT
HETATM    1  C2  UNL     1      23.822   5.663  51.438  1.00  0.00     0.753 A 
HETATM    2  N2  UNL     1      22.730   4.955  51.885  1.00  0.00     0.131 NA
HETATM    3  C3  UNL     1      22.626   3.655  51.828  1.00  0.00     0.758 A 
HETATM    4  N3  UNL     1      23.698   3.144  51.290  1.00  0.00     0.131 NA
HETATM    5  C4  UNL     1      24.789   3.637  50.826  1.00  0.00     0.754 A 
HETATM    6  N4  UNL     1      24.904   5.014  50.886  1.00  0.00     0.131 NA
HETATM    7  N5  UNL     1      25.785   2.743  50.310  1.00  0.00    -0.221 N 
HETATM    8  C5  UNL     1      26.735   2.161  51.220  1.00  0.00     0.144 C 
HETATM    9  C6  UNL     1      26.163   1.247  52.226  1.00  0.00     0.018 C 
HETATM   10  C7  UNL     1      25.475   0.515  52.965  1.00  0.00     0.022 C 
HETATM   11  C8  UNL     1      24.189  -0.030  53.290  1.00  0.00    -0.023 C 
HETATM   12  C9  UNL     1      22.944  -0.445  53.450  1.00  0.00    -0.004 C 
HETATM   13  C10 UNL     1      21.863  -0.022  52.508  1.00  0.00     0.202 C 
HETATM   14  O1  UNL     1      20.817   0.690  53.191  1.00  0.00    -0.348 OA
HETATM   15  C11 UNL     1      19.829   1.189  52.333  1.00  0.00     0.091 C 
HETATM   16  C13 UNL     1      20.298   2.370  51.980  1.00  0.00     0.141 C 
HETATM   17  N6  UNL     1      21.481   3.064  52.318  1.00  0.00    -0.195 N 
HETATM   18  H5  UNL     1      25.422   2.842  49.330  1.00  0.00     0.177 HD
HETATM   19  H17 UNL     1      21.394   3.130  53.359  1.00  0.00     0.183 HD
ENDROOT
BRANCH   1  20
HETATM   20  N1  UNL     1      23.839   7.087  51.559  1.00  0.00    -0.226 N 
HETATM   21  C1  UNL     1      24.099   8.108  50.572  1.00  0.00     0.165 C 
HETATM   22  H4  UNL     1      23.641   7.476  52.508  1.00  0.00     0.177 HD
ENDBRANCH   1  20
BRANCH  15  23
HETATM   23  C12 UNL     1      18.526   0.816  51.746  1.00  0.00     0.288 C 
HETATM   24  F1  UNL     1      18.545  -0.518  51.344  1.00  0.00    -0.248 F 
ENDBRANCH  15  23
TORSDOF 2
ENDMDL
MODEL 8
REMARK VINA RESULT:      -6.8      3.307      5.634
REMARK  2 active torsions:
REMARK  status: ('A' for Active; 'I' for Inactive)
REMARK    1  A    between atoms: N1_2  and  C2_3 
REMARK    2  A    between atoms: C11_17  and  C12_18 
ROOT
HETATM    1  C2  UNL     1      18.911   0.002  51.926  1.00  0.00     0.753 A 
HETATM    2  N2  UNL     1      19.645   0.998  51.324  1.00  0.00     0.131 NA
HETATM    3  C3  UNL     1      20.720   1.530  51.840  1.00  0.00     0.758 A 
HETATM    4  N3  UNL     1      20.981   0.982  52.993  1.00  0.00     0.131 NA
HETATM    5  C4  UNL     1      20.422   0.064  53.695  1.00  0.00     0.754 A 
HETATM    6  N4  UNL     1      19.284  -0.505  53.152  1.00  0.00     0.131 NA
HETATM    7  N5  UNL     1      21.015  -0.304  54.949  1.00  0.00    -0.221 N 
HETATM    8  C5  UNL     1      22.063  -1.290  54.959  1.00  0.00     0.144 C 
HETATM    9  C6  UNL     1      23.305  -0.893  54.270  1.00  0.00     0.018 C 
HETATM   10  C7  UNL     1      24.245  -0.353  53.655  1.00  0.00     0.022 C 
HETATM   11  C8  UNL     1      24.760   0.805  52.983  1.00  0.00    -0.023 C 
HETATM   12  C9  UNL     1      25.084   1.949  52.406  1.00  0.00    -0.004 C 
HETATM   13  C10 UNL     1      24.144   3.112  52.418  1.00  0.00     0.202 C 
HETATM   14  O1  UNL     1      23.787   3.517  51.085  1.00  0.00    -0.348 OA
HETATM   15  C11 UNL     1      22.833   4.541  51.050  1.00  0.00     0.091 C 
HETATM   16  C13 UNL     1      21.686   3.892  51.079  1.00  0.00     0.141 C 
HETATM   17  N6  UNL     1      21.371   2.516  51.130  1.00  0.00    -0.195 N 
HETATM   18  H5  UNL     1      20.399   0.360  55.479  1.00  0.00     0.177 HD
HETATM   19  H17 UNL     1      21.837   2.163  50.262  1.00  0.00     0.183 HD
ENDROOT
BRANCH   1  20
HETATM   20  N1  UNL     1      17.755  -0.521  51.269  1.00  0.00    -0.226 N 
HETATM   21  C1  UNL     1      16.927   0.052  50.234  1.00  0.00     0.165 C 
HETATM   22  H4  UNL     1      17.432  -1.466  51.575  1.00  0.00     0.177 HD
ENDBRANCH   1  20
BRANCH  15  23
HETATM   23  C12 UNL     1      22.736   6.014  50.999  1.00  0.00     0.288 C 
HETATM   24  F1  UNL     1      21.543   6.437  51.583  1.00  0.00    -0.248 F 
ENDBRANCH  15  23
TORSDOF 2
ENDMDL
MODEL 9
REMARK VINA RESULT:      -6.6      2.930      4.157
REMARK  2 active torsions:
REMARK  status: ('A' for Active; 'I' for Inactive)
REMARK    1  A    between atoms: N1_2  and  C2_3 
REMARK    2  A    between atoms: C11_17  and  C12_18 
ROOT
HETATM    1  C2  UNL     1      24.934   0.427  53.519  1.00  0.00     0.753 A 
HETATM    2  N2  UNL     1      25.360   1.611  52.962  1.00  0.00     0.131 NA
HETATM    3  C3  UNL     1      24.666   2.308  52.103  1.00  0.00     0.758 A 
HETATM    4  N3  UNL     1      23.530   1.715  51.861  1.00  0.00     0.131 NA
HETATM    5  C4  UNL     1      22.978   0.634  52.276  1.00  0.00     0.754 A 
HETATM    6  N4  UNL     1      23.708  -0.107  53.188  1.00  0.00     0.131 NA
HETATM    7  N5  UNL     1      21.672   0.295  51.789  1.00  0.00    -0.221 N 
HETATM    8  C5  UNL     1      20.519   0.839  52.456  1.00  0.00     0.144 C 
HETATM    9  C6  UNL     1      20.377   2.305  52.372  1.00  0.00     0.018 C 
HETATM   10  C7  UNL     1      20.451   3.532  52.168  1.00  0.00     0.022 C 
HETATM   11  C8  UNL     1      21.136   4.628  51.545  1.00  0.00    -0.023 C 
HETATM   12  C9  UNL     1      21.873   5.517  50.903  1.00  0.00    -0.004 C 
HETATM   13  C10 UNL     1      23.038   5.094  50.067  1.00  0.00     0.202 C 
HETATM   14  O1  UNL     1      24.267   5.672  50.540  1.00  0.00    -0.348 OA
HETATM   15  C11 UNL     1      25.397   5.227  49.845  1.00  0.00     0.091 C 
HETATM   16  C13 UNL     1      25.748   4.136  50.497  1.00  0.00     0.141 C 
HETATM   17  N6  UNL     1      25.202   3.484  51.625  1.00  0.00    -0.195 N 
HETATM   18  H5  UNL     1      22.069  -0.302  51.023  1.00  0.00     0.177 HD
HETATM   19  H17 UNL     1      25.259   4.238  52.349  1.00  0.00     0.183 HD
ENDROOT
BRANCH   1  20
HETATM   20  N1  UNL     1      25.768  -0.252  54.460  1.00  0.00    -0.226 N 
HETATM   21  C1  UNL     1      27.083   0.080  54.956  1.00  0.00     0.165 C 
HETATM   22  H4  UNL     1      25.391  -1.138  54.863  1.00  0.00     0.177 HD
ENDBRANCH   1  20
BRANCH  15  23
HETATM   23  C12 UNL     1      26.244   5.582  48.687  1.00  0.00     0.288 C 
HETATM   24  F1  UNL     1      27.271   4.652  48.541  1.00  0.00    -0.248 F 
ENDBRANCH  15  23
TORSDOF 2
ENDMDL
