MODEL 1
REMARK VINA RESULT:      -8.6      0.000      0.000
REMARK  6 active torsions:
REMARK  status: ('A' for Active; 'I' for Inactive)
REMARK    1  A    between atoms: C2_2  and  C3_3 
REMARK    2  A    between atoms: C4_4  and  C5_5 
REMARK    3  A    between atoms: C4_4  and  N2_15 
REMARK       I    between atoms: N2_15  and  C13_16 
REMARK       I    between atoms: C13_16  and  N3_18 
REMARK    4  A    between atoms: N3_18  and  C14_19 
REMARK    5  A    between atoms: C14_19  and  C15_20 
REMARK    6  A    between atoms: C15_20  and  N4_21 
ROOT
HETATM    1  C3  UNL     1      22.800   1.510  53.094  1.00  0.00     0.025 C 
HETATM    2  C4  UNL     1      24.010   2.063  52.956  1.00  0.00     0.038 C 
ENDROOT
BRANCH   2   3
HETATM    3  C5  UNL     1      25.120   1.192  52.671  1.00  0.00     0.058 C 
HETATM    4  C6  UNL     1      26.422   1.075  52.574  1.00  0.00     0.049 C 
HETATM    5  N1  UNL     1      27.230   2.241  52.834  1.00  0.00    -0.367 N 
HETATM    6  C12 UNL     1      27.112  -0.201  52.230  1.00  0.00     0.248 C 
HETATM    7  C7  UNL     1      28.374   2.483  53.632  1.00  0.00     0.088 C 
HETATM    8  H6  UNL     1      26.915   3.122  52.322  1.00  0.00     0.165 HD
HETATM    9  C8  UNL     1      29.174   1.518  54.081  1.00  0.00     0.017 C 
HETATM   10  C9  UNL     1      29.118   0.080  53.905  1.00  0.00     0.007 C 
HETATM   11  C10 UNL     1      28.229  -0.535  53.120  1.00  0.00    -0.044 C 
HETATM   12  C11 UNL     1      28.457  -2.024  53.172  1.00  0.00     0.046 C 
HETATM   13  F1  UNL     1      26.127  -1.188  52.428  1.00  0.00    -0.238 F 
ENDBRANCH   2   3
BRANCH   2  14
HETATM   14  N2  UNL     1      24.155   3.463  53.097  1.00  0.00    -0.309 N 
HETATM   15  C13 UNL     1      24.035   4.370  52.039  1.00  0.00     0.320 C 
HETATM   16  O1  UNL     1      23.783   3.873  50.922  1.00  0.00    -0.247 OA
HETATM   17  N3  UNL     1      24.169   5.769  52.105  1.00  0.00    -0.341 N 
HETATM   18  H15 UNL     1      24.380   6.066  53.110  1.00  0.00     0.164 HD
HETATM   19  H14 UNL     1      24.351   3.920  54.003  1.00  0.00     0.170 HD
BRANCH  17  20
HETATM   20  C14 UNL     1      24.083   6.820  51.128  1.00  0.00     0.143 C 
BRANCH  20  21
HETATM   21  C15 UNL     1      25.348   7.140  50.412  1.00  0.00     0.136 C 
BRANCH  21  22
HETATM   22  N4  UNL     1      25.696   6.406  49.275  1.00  0.00    -0.411 N 
HETATM   23  C16 UNL     1      25.797   7.058  48.022  1.00  0.00     0.117 C 
HETATM   24  C17 UNL     1      27.197   7.687  47.975  1.00  0.00     0.019 C 
HETATM   25  C18 UNL     1      28.260   6.721  48.390  1.00  0.00     0.003 C 
HETATM   26  C19 UNL     1      27.637   5.325  48.407  1.00  0.00     0.019 C 
HETATM   27  C20 UNL     1      26.486   5.242  49.405  1.00  0.00     0.117 C 
ENDBRANCH  21  22
ENDBRANCH  20  21
ENDBRANCH  17  20
ENDBRANCH   2  14
BRANCH   1  28
HETATM   28  C2  UNL     1      22.890   0.041  52.909  1.00  0.00    -0.007 C 
HETATM   29  C1  UNL     1      22.222  -0.990  53.458  1.00  0.00     0.013 C 
ENDBRANCH   1  28
TORSDOF 6
ENDMDL
MODEL 2
REMARK VINA RESULT:      -7.8      1.939      4.826
REMARK  6 active torsions:
REMARK  status: ('A' for Active; 'I' for Inactive)
REMARK    1  A    between atoms: C2_2  and  C3_3 
REMARK    2  A    between atoms: C4_4  and  C5_5 
REMARK    3  A    between atoms: C4_4  and  N2_15 
REMARK       I    between atoms: N2_15  and  C13_16 
REMARK       I    between atoms: C13_16  and  N3_18 
REMARK    4  A    between atoms: N3_18  and  C14_19 
REMARK    5  A    between atoms: C14_19  and  C15_20 
REMARK    6  A    between atoms: C15_20  and  N4_21 
ROOT
HETATM    1  C3  UNL     1      27.049   0.594  51.855  1.00  0.00     0.025 C 
HETATM    2  C4  UNL     1      26.184   1.602  52.020  1.00  0.00     0.038 C 
ENDROOT
BRANCH   2   3
HETATM    3  C5  UNL     1      24.889   1.296  52.565  1.00  0.00     0.058 C 
HETATM    4  C6  UNL     1      23.590   1.393  52.420  1.00  0.00     0.049 C 
HETATM    5  N1  UNL     1      23.086   2.082  51.257  1.00  0.00    -0.367 N 
HETATM    6  C12 UNL     1      22.606   0.815  53.379  1.00  0.00     0.248 C 
HETATM    7  C7  UNL     1      22.107   1.773  50.282  1.00  0.00     0.088 C 
HETATM    8  H6  UNL     1      23.535   3.032  51.075  1.00  0.00     0.165 HD
HETATM    9  C8  UNL     1      21.163   0.850  50.456  1.00  0.00     0.017 C 
HETATM   10  C9  UNL     1      20.885  -0.024  51.578  1.00  0.00     0.007 C 
HETATM   11  C10 UNL     1      21.536   0.039  52.743  1.00  0.00    -0.044 C 
HETATM   12  C11 UNL     1      20.994  -1.009  53.680  1.00  0.00     0.046 C 
HETATM   13  F1  UNL     1      23.366  -0.092  54.143  1.00  0.00    -0.238 F 
ENDBRANCH   2   3
BRANCH   2  14
HETATM   14  N2  UNL     1      26.569   2.913  51.653  1.00  0.00    -0.309 N 
HETATM   15  C13 UNL     1      26.197   3.527  50.453  1.00  0.00     0.320 C 
HETATM   16  O1  UNL     1      25.482   2.845  49.689  1.00  0.00    -0.247 OA
HETATM   17  N3  UNL     1      26.543   4.821  50.022  1.00  0.00    -0.341 N 
HETATM   18  H15 UNL     1      27.150   5.299  50.761  1.00  0.00     0.164 HD
HETATM   19  H14 UNL     1      27.148   3.520  52.257  1.00  0.00     0.170 HD
BRANCH  17  20
HETATM   20  C14 UNL     1      26.254   5.583  48.837  1.00  0.00     0.143 C 
BRANCH  20  21
HETATM   21  C15 UNL     1      24.894   6.183  48.772  1.00  0.00     0.136 C 
BRANCH  21  22
HETATM   22  N4  UNL     1      24.237   6.522  49.958  1.00  0.00    -0.411 N 
HETATM   23  C16 UNL     1      24.205   7.874  50.381  1.00  0.00     0.117 C 
HETATM   24  C17 UNL     1      23.048   8.535  49.618  1.00  0.00     0.019 C 
HETATM   25  C18 UNL     1      21.798   7.717  49.673  1.00  0.00     0.003 C 
HETATM   26  C19 UNL     1      21.991   6.649  50.750  1.00  0.00     0.019 C 
HETATM   27  C20 UNL     1      23.162   5.729  50.419  1.00  0.00     0.117 C 
ENDBRANCH  21  22
ENDBRANCH  20  21
ENDBRANCH  17  20
ENDBRANCH   2  14
BRANCH   1  28
HETATM   28  C2  UNL     1      26.431  -0.680  52.301  1.00  0.00    -0.007 C 
HETATM   29  C1  UNL     1      26.949  -1.873  52.646  1.00  0.00     0.013 C 
ENDBRANCH   1  28
TORSDOF 6
ENDMDL
MODEL 3
REMARK VINA RESULT:      -7.7      2.111      4.715
REMARK  6 active torsions:
REMARK  status: ('A' for Active; 'I' for Inactive)
REMARK    1  A    between atoms: C2_2  and  C3_3 
REMARK    2  A    between atoms: C4_4  and  C5_5 
REMARK    3  A    between atoms: C4_4  and  N2_15 
REMARK       I    between atoms: N2_15  and  C13_16 
REMARK       I    between atoms: C13_16  and  N3_18 
REMARK    4  A    between atoms: N3_18  and  C14_19 
REMARK    5  A    between atoms: C14_19  and  C15_20 
REMARK    6  A    between atoms: C15_20  and  N4_21 
ROOT
HETATM    1  C3  UNL     1      27.110   0.698  51.908  1.00  0.00     0.025 C 
HETATM    2  C4  UNL     1      26.292   1.756  51.914  1.00  0.00     0.038 C 
ENDROOT
BRANCH   2   3
HETATM    3  C5  UNL     1      24.931   1.553  52.333  1.00  0.00     0.058 C 
HETATM    4  C6  UNL     1      23.662   1.680  52.028  1.00  0.00     0.049 C 
HETATM    5  N1  UNL     1      23.324   2.260  50.752  1.00  0.00    -0.367 N 
HETATM    6  C12 UNL     1      22.552   1.238  52.920  1.00  0.00     0.248 C 
HETATM    7  C7  UNL     1      22.447   1.884  49.706  1.00  0.00     0.088 C 
HETATM    8  H6  UNL     1      23.834   3.170  50.530  1.00  0.00     0.165 HD
HETATM    9  C8  UNL     1      21.448   1.018  49.860  1.00  0.00     0.017 C 
HETATM   10  C9  UNL     1      21.007   0.276  51.024  1.00  0.00     0.007 C 
HETATM   11  C10 UNL     1      21.525   0.437  52.245  1.00  0.00    -0.044 C 
HETATM   12  C11 UNL     1      20.834  -0.488  53.213  1.00  0.00     0.046 C 
HETATM   13  F1  UNL     1      23.179   0.391  53.854  1.00  0.00    -0.238 F 
ENDBRANCH   2   3
BRANCH   2  14
HETATM   14  N2  UNL     1      26.787   3.018  51.509  1.00  0.00    -0.309 N 
HETATM   15  C13 UNL     1      26.649   3.531  50.215  1.00  0.00     0.320 C 
HETATM   16  O1  UNL     1      26.045   2.802  49.401  1.00  0.00    -0.247 OA
HETATM   17  N3  UNL     1      27.116   4.772  49.742  1.00  0.00    -0.341 N 
HETATM   18  H15 UNL     1      27.609   5.298  50.532  1.00  0.00     0.164 HD
HETATM   19  H14 UNL     1      27.281   3.662  52.150  1.00  0.00     0.170 HD
BRANCH  17  20
HETATM   20  C14 UNL     1      27.062   5.431  48.465  1.00  0.00     0.143 C 
BRANCH  20  21
HETATM   21  C15 UNL     1      28.050   6.524  48.262  1.00  0.00     0.136 C 
BRANCH  21  22
HETATM   22  N4  UNL     1      27.597   7.833  48.084  1.00  0.00    -0.411 N 
HETATM   23  C16 UNL     1      26.282   8.181  48.477  1.00  0.00     0.117 C 
HETATM   24  C17 UNL     1      26.346   8.471  49.984  1.00  0.00     0.019 C 
HETATM   25  C18 UNL     1      27.483   9.376  50.334  1.00  0.00     0.003 C 
HETATM   26  C19 UNL     1      28.010   9.983  49.033  1.00  0.00     0.019 C 
HETATM   27  C20 UNL     1      28.520   8.903  48.083  1.00  0.00     0.117 C 
ENDBRANCH  21  22
ENDBRANCH  20  21
ENDBRANCH  17  20
ENDBRANCH   2  14
BRANCH   1  28
HETATM   28  C2  UNL     1      26.378  -0.510  52.364  1.00  0.00    -0.007 C 
HETATM   29  C1  UNL     1      26.765  -1.777  52.597  1.00  0.00     0.013 C 
ENDBRANCH   1  28
TORSDOF 6
ENDMDL
MODEL 4
REMARK VINA RESULT:      -7.7      4.833      8.503
REMARK  6 active torsions:
REMARK  status: ('A' for Active; 'I' for Inactive)
REMARK    1  A    between atoms: C2_2  and  C3_3 
REMARK    2  A    between atoms: C4_4  and  C5_5 
REMARK    3  A    between atoms: C4_4  and  N2_15 
REMARK       I    between atoms: N2_15  and  C13_16 
REMARK       I    between atoms: C13_16  and  N3_18 
REMARK    4  A    between atoms: N3_18  and  C14_19 
REMARK    5  A    between atoms: C14_19  and  C15_20 
REMARK    6  A    between atoms: C15_20  and  N4_21 
ROOT
HETATM    1  C3  UNL     1      30.505  10.824  48.661  1.00  0.00     0.025 C 
HETATM    2  C4  UNL     1      30.271   9.732  49.397  1.00  0.00     0.038 C 
ENDROOT
BRANCH   2   3
HETATM    3  C5  UNL     1      31.233   8.664  49.342  1.00  0.00     0.058 C 
HETATM    4  C6  UNL     1      31.430   7.373  49.218  1.00  0.00     0.049 C 
HETATM    5  N1  UNL     1      30.276   6.523  49.063  1.00  0.00    -0.367 N 
HETATM    6  C12 UNL     1      32.780   6.742  49.208  1.00  0.00     0.248 C 
HETATM    7  C7  UNL     1      29.937   5.485  48.160  1.00  0.00     0.088 C 
HETATM    8  H6  UNL     1      29.499   6.695  49.772  1.00  0.00     0.165 HD
HETATM    9  C8  UNL     1      30.832   4.832  47.422  1.00  0.00     0.017 C 
HETATM   10  C9  UNL     1      32.271   4.973  47.331  1.00  0.00     0.007 C 
HETATM   11  C10 UNL     1      32.986   5.788  48.112  1.00  0.00    -0.044 C 
HETATM   12  C11 UNL     1      34.444   5.685  47.749  1.00  0.00     0.046 C 
HETATM   13  F1  UNL     1      33.660   7.818  48.980  1.00  0.00    -0.238 F 
ENDBRANCH   2   3
BRANCH   2  14
HETATM   14  N2  UNL     1      29.101   9.666  50.190  1.00  0.00    -0.309 N 
HETATM   15  C13 UNL     1      27.905   9.078  49.766  1.00  0.00     0.320 C 
HETATM   16  O1  UNL     1      27.913   8.593  48.616  1.00  0.00    -0.247 OA
HETATM   17  N3  UNL     1      26.705   8.980  50.496  1.00  0.00    -0.341 N 
HETATM   18  H15 UNL     1      26.829   9.427  51.459  1.00  0.00     0.164 HD
HETATM   19  H14 UNL     1      29.050  10.041  51.151  1.00  0.00     0.170 HD
BRANCH  17  20
HETATM   20  C14 UNL     1      25.411   8.423  50.207  1.00  0.00     0.143 C 
BRANCH  20  21
HETATM   21  C15 UNL     1      25.237   6.986  50.547  1.00  0.00     0.136 C 
BRANCH  21  22
HETATM   22  N4  UNL     1      24.919   6.076  49.535  1.00  0.00    -0.411 N 
HETATM   23  C16 UNL     1      25.916   5.672  48.614  1.00  0.00     0.117 C 
HETATM   24  C17 UNL     1      26.704   4.546  49.299  1.00  0.00     0.019 C 
HETATM   25  C18 UNL     1      25.804   3.519  49.906  1.00  0.00     0.003 C 
HETATM   26  C19 UNL     1      24.396   3.755  49.358  1.00  0.00     0.019 C 
HETATM   27  C20 UNL     1      23.878   5.140  49.732  1.00  0.00     0.117 C 
ENDBRANCH  21  22
ENDBRANCH  20  21
ENDBRANCH  17  20
ENDBRANCH   2  14
BRANCH   1  28
HETATM   28  C2  UNL     1      31.778  10.668  47.915  1.00  0.00    -0.007 C 
HETATM   29  C1  UNL     1      32.371  11.406  46.959  1.00  0.00     0.013 C 
ENDBRANCH   1  28
TORSDOF 6
ENDMDL
MODEL 5
REMARK VINA RESULT:      -7.6      2.720      7.257
REMARK  6 active torsions:
REMARK  status: ('A' for Active; 'I' for Inactive)
REMARK    1  A    between atoms: C2_2  and  C3_3 
REMARK    2  A    between atoms: C4_4  and  C5_5 
REMARK    3  A    between atoms: C4_4  and  N2_15 
REMARK       I    between atoms: N2_15  and  C13_16 
REMARK       I    between atoms: C13_16  and  N3_18 
REMARK    4  A    between atoms: N3_18  and  C14_19 
REMARK    5  A    between atoms: C14_19  and  C15_20 
REMARK    6  A    between atoms: C15_20  and  N4_21 
ROOT
HETATM    1  C3  UNL     1      21.700   7.488  50.362  1.00  0.00     0.025 C 
HETATM    2  C4  UNL     1      22.734   6.886  50.960  1.00  0.00     0.038 C 
ENDROOT
BRANCH   2   3
HETATM    3  C5  UNL     1      24.059   7.353  50.647  1.00  0.00     0.058 C 
HETATM    4  C6  UNL     1      25.304   7.026  50.400  1.00  0.00     0.049 C 
HETATM    5  N1  UNL     1      25.656   5.628  50.418  1.00  0.00    -0.367 N 
HETATM    6  C12 UNL     1      26.370   8.019  50.084  1.00  0.00     0.248 C 
HETATM    7  C7  UNL     1      26.371   4.785  49.532  1.00  0.00     0.088 C 
HETATM    8  H6  UNL     1      25.313   5.095  51.275  1.00  0.00     0.165 HD
HETATM    9  C8  UNL     1      27.197   5.241  48.592  1.00  0.00     0.017 C 
HETATM   10  C9  UNL     1      27.570   6.594  48.231  1.00  0.00     0.007 C 
HETATM   11  C10 UNL     1      27.178   7.676  48.909  1.00  0.00    -0.044 C 
HETATM   12  C11 UNL     1      27.747   8.911  48.261  1.00  0.00     0.046 C 
HETATM   13  F1  UNL     1      25.661   9.192  49.761  1.00  0.00    -0.238 F 
ENDBRANCH   2   3
BRANCH   2  14
HETATM   14  N2  UNL     1      22.492   5.824  51.862  1.00  0.00    -0.309 N 
HETATM   15  C13 UNL     1      22.597   4.471  51.521  1.00  0.00     0.320 C 
HETATM   16  O1  UNL     1      22.928   4.231  50.341  1.00  0.00    -0.247 OA
HETATM   17  N3  UNL     1      22.369   3.366  52.362  1.00  0.00    -0.341 N 
HETATM   18  H15 UNL     1      22.097   3.705  53.339  1.00  0.00     0.164 HD
HETATM   19  H14 UNL     1      22.230   5.973  52.851  1.00  0.00     0.170 HD
BRANCH  17  20
HETATM   20  C14 UNL     1      22.426   1.943  52.167  1.00  0.00     0.143 C 
BRANCH  20  21
HETATM   21  C15 UNL     1      23.466   1.226  52.952  1.00  0.00     0.136 C 
BRANCH  21  22
HETATM   22  N4  UNL     1      24.798   1.641  52.866  1.00  0.00    -0.411 N 
HETATM   23  C16 UNL     1      25.709   1.291  53.892  1.00  0.00     0.117 C 
HETATM   24  C17 UNL     1      26.193  -0.131  53.571  1.00  0.00     0.019 C 
HETATM   25  C18 UNL     1      26.602  -0.275  52.140  1.00  0.00     0.003 C 
HETATM   26  C19 UNL     1      26.718   1.129  51.547  1.00  0.00     0.019 C 
HETATM   27  C20 UNL     1      25.384   1.867  51.601  1.00  0.00     0.117 C 
ENDBRANCH  21  22
ENDBRANCH  20  21
ENDBRANCH  17  20
ENDBRANCH   2  14
BRANCH   1  28
HETATM   28  C2  UNL     1      22.191   8.562  49.463  1.00  0.00    -0.007 C 
HETATM   29  C1  UNL     1      21.562   9.525  48.764  1.00  0.00     0.013 C 
ENDBRANCH   1  28
TORSDOF 6
ENDMDL
MODEL 6
REMARK VINA RESULT:      -7.5      1.505      2.085
REMARK  6 active torsions:
REMARK  status: ('A' for Active; 'I' for Inactive)
REMARK    1  A    between atoms: C2_2  and  C3_3 
REMARK    2  A    between atoms: C4_4  and  C5_5 
REMARK    3  A    between atoms: C4_4  and  N2_15 
REMARK       I    between atoms: N2_15  and  C13_16 
REMARK       I    between atoms: C13_16  and  N3_18 
REMARK    4  A    between atoms: N3_18  and  C14_19 
REMARK    5  A    between atoms: C14_19  and  C15_20 
REMARK    6  A    between atoms: C15_20  and  N4_21 
ROOT
HETATM    1  C3  UNL     1      22.790   0.882  53.377  1.00  0.00     0.025 C 
HETATM    2  C4  UNL     1      23.791   1.420  52.671  1.00  0.00     0.038 C 
ENDROOT
BRANCH   2   3
HETATM    3  C5  UNL     1      24.978   0.631  52.475  1.00  0.00     0.058 C 
HETATM    4  C6  UNL     1      26.287   0.622  52.415  1.00  0.00     0.049 C 
HETATM    5  N1  UNL     1      26.985   1.869  52.607  1.00  0.00    -0.367 N 
HETATM    6  C12 UNL     1      27.093  -0.610  52.180  1.00  0.00     0.248 C 
HETATM    7  C7  UNL     1      28.082   2.265  53.411  1.00  0.00     0.088 C 
HETATM    8  H6  UNL     1      26.611   2.681  52.026  1.00  0.00     0.165 HD
HETATM    9  C8  UNL     1      28.948   1.407  53.945  1.00  0.00     0.017 C 
HETATM   10  C9  UNL     1      29.020  -0.039  53.873  1.00  0.00     0.007 C 
HETATM   11  C10 UNL     1      28.209  -0.783  53.116  1.00  0.00    -0.044 C 
HETATM   12  C11 UNL     1      28.561  -2.239  53.280  1.00  0.00     0.046 C 
HETATM   13  F1  UNL     1      26.190  -1.663  52.427  1.00  0.00    -0.238 F 
ENDBRANCH   2   3
BRANCH   2  14
HETATM   14  N2  UNL     1      23.649   2.730  52.154  1.00  0.00    -0.309 N 
HETATM   15  C13 UNL     1      23.261   3.011  50.840  1.00  0.00     0.320 C 
HETATM   16  O1  UNL     1      23.032   2.021  50.115  1.00  0.00    -0.247 OA
HETATM   17  N3  UNL     1      23.103   4.283  50.259  1.00  0.00    -0.341 N 
HETATM   18  H15 UNL     1      23.324   5.041  50.980  1.00  0.00     0.164 HD
HETATM   19  H14 UNL     1      23.814   3.579  52.719  1.00  0.00     0.170 HD
BRANCH  17  20
HETATM   20  C14 UNL     1      22.724   4.734  48.947  1.00  0.00     0.143 C 
BRANCH  20  21
HETATM   21  C15 UNL     1      22.268   6.147  48.858  1.00  0.00     0.136 C 
BRANCH  21  22
HETATM   22  N4  UNL     1      23.213   7.163  48.697  1.00  0.00    -0.411 N 
HETATM   23  C16 UNL     1      23.236   8.251  49.604  1.00  0.00     0.117 C 
HETATM   24  C17 UNL     1      24.041   7.776  50.823  1.00  0.00     0.019 C 
HETATM   25  C18 UNL     1      25.324   7.119  50.428  1.00  0.00     0.003 C 
HETATM   26  C19 UNL     1      25.570   7.432  48.952  1.00  0.00     0.019 C 
HETATM   27  C20 UNL     1      24.450   6.882  48.073  1.00  0.00     0.117 C 
ENDBRANCH  21  22
ENDBRANCH  20  21
ENDBRANCH  17  20
ENDBRANCH   2  14
BRANCH   1  28
HETATM   28  C2  UNL     1      23.161  -0.486  53.818  1.00  0.00    -0.007 C 
HETATM   29  C1  UNL     1      22.707  -1.281  54.804  1.00  0.00     0.013 C 
ENDBRANCH   1  28
TORSDOF 6
ENDMDL
MODEL 7
REMARK VINA RESULT:      -7.5      2.409      3.364
REMARK  6 active torsions:
REMARK  status: ('A' for Active; 'I' for Inactive)
REMARK    1  A    between atoms: C2_2  and  C3_3 
REMARK    2  A    between atoms: C4_4  and  C5_5 
REMARK    3  A    between atoms: C4_4  and  N2_15 
REMARK       I    between atoms: N2_15  and  C13_16 
REMARK       I    between atoms: C13_16  and  N3_18 
REMARK    4  A    between atoms: N3_18  and  C14_19 
REMARK    5  A    between atoms: C14_19  and  C15_20 
REMARK    6  A    between atoms: C15_20  and  N4_21 
ROOT
HETATM    1  C3  UNL     1      19.165   1.873  51.951  1.00  0.00     0.025 C 
HETATM    2  C4  UNL     1      20.350   2.194  52.482  1.00  0.00     0.038 C 
ENDROOT
BRANCH   2   3
HETATM    3  C5  UNL     1      21.206   1.121  52.917  1.00  0.00     0.058 C 
HETATM    4  C6  UNL     1      22.361   0.518  52.776  1.00  0.00     0.049 C 
HETATM    5  N1  UNL     1      23.282   1.036  51.794  1.00  0.00    -0.367 N 
HETATM    6  C12 UNL     1      22.781  -0.660  53.587  1.00  0.00     0.248 C 
HETATM    7  C7  UNL     1      24.659   1.370  51.822  1.00  0.00     0.088 C 
HETATM    8  H6  UNL     1      22.855   1.211  50.834  1.00  0.00     0.165 HD
HETATM    9  C8  UNL     1      25.503   0.927  52.752  1.00  0.00     0.017 C 
HETATM   10  C9  UNL     1      25.288   0.064  53.895  1.00  0.00     0.007 C 
HETATM   11  C10 UNL     1      24.128  -0.546  54.155  1.00  0.00    -0.044 C 
HETATM   12  C11 UNL     1      24.258  -1.363  55.414  1.00  0.00     0.046 C 
HETATM   13  F1  UNL     1      21.882  -0.667  54.671  1.00  0.00    -0.238 F 
ENDBRANCH   2   3
BRANCH   2  14
HETATM   14  N2  UNL     1      20.713   3.556  52.600  1.00  0.00    -0.309 N 
HETATM   15  C13 UNL     1      21.517   4.231  51.676  1.00  0.00     0.320 C 
HETATM   16  O1  UNL     1      21.915   3.556  50.704  1.00  0.00    -0.247 OA
HETATM   17  N3  UNL     1      21.920   5.578  51.729  1.00  0.00    -0.341 N 
HETATM   18  H15 UNL     1      21.513   6.044  52.602  1.00  0.00     0.164 HD
HETATM   19  H14 UNL     1      20.398   4.158  53.379  1.00  0.00     0.170 HD
BRANCH  17  20
HETATM   20  C14 UNL     1      22.734   6.405  50.880  1.00  0.00     0.143 C 
BRANCH  20  21
HETATM   21  C15 UNL     1      24.184   6.078  50.860  1.00  0.00     0.136 C 
BRANCH  21  22
HETATM   22  N4  UNL     1      24.706   5.338  49.797  1.00  0.00    -0.411 N 
HETATM   23  C16 UNL     1      24.571   5.820  48.472  1.00  0.00     0.117 C 
HETATM   24  C17 UNL     1      25.716   6.822  48.260  1.00  0.00     0.019 C 
HETATM   25  C18 UNL     1      27.031   6.275  48.714  1.00  0.00     0.003 C 
HETATM   26  C19 UNL     1      26.857   4.772  48.934  1.00  0.00     0.019 C 
HETATM   27  C20 UNL     1      25.813   4.485  50.008  1.00  0.00     0.117 C 
ENDBRANCH  21  22
ENDBRANCH  20  21
ENDBRANCH  17  20
ENDBRANCH   2  14
BRANCH   1  28
HETATM   28  C2  UNL     1      19.001   0.398  51.933  1.00  0.00    -0.007 C 
HETATM   29  C1  UNL     1      17.939  -0.404  52.134  1.00  0.00     0.013 C 
ENDBRANCH   1  28
TORSDOF 6
ENDMDL
MODEL 8
REMARK VINA RESULT:      -7.4      3.151      6.670
REMARK  6 active torsions:
REMARK  status: ('A' for Active; 'I' for Inactive)
REMARK    1  A    between atoms: C2_2  and  C3_3 
REMARK    2  A    between atoms: C4_4  and  C5_5 
REMARK    3  A    between atoms: C4_4  and  N2_15 
REMARK       I    between atoms: N2_15  and  C13_16 
REMARK       I    between atoms: C13_16  and  N3_18 
REMARK    4  A    between atoms: N3_18  and  C14_19 
REMARK    5  A    between atoms: C14_19  and  C15_20 
REMARK    6  A    between atoms: C15_20  and  N4_21 
ROOT
HETATM    1  C3  UNL     1      20.647   4.468  51.394  1.00  0.00     0.025 C 
HETATM    2  C4  UNL     1      21.343   3.418  51.844  1.00  0.00     0.038 C 
ENDROOT
BRANCH   2   3
HETATM    3  C5  UNL     1      20.676   2.145  51.906  1.00  0.00     0.058 C 
HETATM    4  C6  UNL     1      20.796   0.856  52.117  1.00  0.00     0.049 C 
HETATM    5  N1  UNL     1      22.104   0.338  52.432  1.00  0.00    -0.367 N 
HETATM    6  C12 UNL     1      19.651  -0.097  52.068  1.00  0.00     0.248 C 
HETATM    7  C7  UNL     1      22.600  -0.526  53.439  1.00  0.00     0.088 C 
HETATM    8  H6  UNL     1      22.880   0.663  51.776  1.00  0.00     0.165 HD
HETATM    9  C8  UNL     1      21.827  -1.343  54.151  1.00  0.00     0.017 C 
HETATM   10  C9  UNL     1      20.396  -1.569  54.114  1.00  0.00     0.007 C 
HETATM   11  C10 UNL     1      19.582  -1.008  53.216  1.00  0.00    -0.044 C 
HETATM   12  C11 UNL     1      18.166  -1.460  53.467  1.00  0.00     0.046 C 
HETATM   13  F1  UNL     1      18.513   0.730  52.137  1.00  0.00    -0.238 F 
ENDBRANCH   2   3
BRANCH   2  14
HETATM   14  N2  UNL     1      22.689   3.596  52.242  1.00  0.00    -0.309 N 
HETATM   15  C13 UNL     1      23.787   3.147  51.500  1.00  0.00     0.320 C 
HETATM   16  O1  UNL     1      23.519   2.563  50.429  1.00  0.00    -0.247 OA
HETATM   17  N3  UNL     1      25.147   3.285  51.833  1.00  0.00    -0.341 N 
HETATM   18  H15 UNL     1      25.241   3.802  52.765  1.00  0.00     0.164 HD
HETATM   19  H14 UNL     1      22.960   4.084  53.112  1.00  0.00     0.170 HD
BRANCH  17  20
HETATM   20  C14 UNL     1      26.370   2.882  51.195  1.00  0.00     0.143 C 
BRANCH  20  21
HETATM   21  C15 UNL     1      26.830   1.500  51.496  1.00  0.00     0.136 C 
BRANCH  21  22
HETATM   22  N4  UNL     1      26.939   1.088  52.826  1.00  0.00    -0.411 N 
HETATM   23  C16 UNL     1      26.264  -0.080  53.257  1.00  0.00     0.117 C 
HETATM   24  C17 UNL     1      27.166  -1.263  52.878  1.00  0.00     0.019 C 
HETATM   25  C18 UNL     1      28.586  -1.040  53.288  1.00  0.00     0.003 C 
HETATM   26  C19 UNL     1      28.610   0.151  54.247  1.00  0.00     0.019 C 
HETATM   27  C20 UNL     1      28.092   1.418  53.573  1.00  0.00     0.117 C 
ENDBRANCH  21  22
ENDBRANCH  20  21
ENDBRANCH  17  20
ENDBRANCH   2  14
BRANCH   1  28
HETATM   28  C2  UNL     1      19.268   4.049  51.043  1.00  0.00    -0.007 C 
HETATM   29  C1  UNL     1      18.348   4.552  50.199  1.00  0.00     0.013 C 
ENDBRANCH   1  28
TORSDOF 6
ENDMDL
MODEL 9
REMARK VINA RESULT:      -7.3      3.509      6.878
REMARK  6 active torsions:
REMARK  status: ('A' for Active; 'I' for Inactive)
REMARK    1  A    between atoms: C2_2  and  C3_3 
REMARK    2  A    between atoms: C4_4  and  C5_5 
REMARK    3  A    between atoms: C4_4  and  N2_15 
REMARK       I    between atoms: N2_15  and  C13_16 
REMARK       I    between atoms: C13_16  and  N3_18 
REMARK    4  A    between atoms: N3_18  and  C14_19 
REMARK    5  A    between atoms: C14_19  and  C15_20 
REMARK    6  A    between atoms: C15_20  and  N4_21 
ROOT
HETATM    1  C3  UNL     1      24.744   4.528  49.099  1.00  0.00     0.025 C 
HETATM    2  C4  UNL     1      24.127   3.544  49.762  1.00  0.00     0.038 C 
ENDROOT
BRANCH   2   3
HETATM    3  C5  UNL     1      24.915   2.736  50.654  1.00  0.00     0.058 C 
HETATM    4  C6  UNL     1      24.955   2.078  51.788  1.00  0.00     0.049 C 
HETATM    5  N1  UNL     1      23.772   2.074  52.612  1.00  0.00    -0.367 N 
HETATM    6  C12 UNL     1      26.149   1.321  52.261  1.00  0.00     0.248 C 
HETATM    7  C7  UNL     1      23.039   1.055  53.269  1.00  0.00     0.088 C 
HETATM    8  H6  UNL     1      23.341   3.035  52.776  1.00  0.00     0.165 HD
HETATM    9  C8  UNL     1      23.533  -0.153  53.531  1.00  0.00     0.017 C 
HETATM   10  C9  UNL     1      24.834  -0.727  53.251  1.00  0.00     0.007 C 
HETATM   11  C10 UNL     1      25.850  -0.038  52.725  1.00  0.00    -0.044 C 
HETATM   12  C11 UNL     1      27.046  -0.941  52.570  1.00  0.00     0.046 C 
HETATM   13  F1  UNL     1      26.949   1.190  51.109  1.00  0.00    -0.238 F 
ENDBRANCH   2   3
BRANCH   2  14
HETATM   14  N2  UNL     1      22.742   3.334  49.563  1.00  0.00    -0.309 N 
HETATM   15  C13 UNL     1      21.757   3.703  50.485  1.00  0.00     0.320 C 
HETATM   16  O1  UNL     1      22.166   4.249  51.530  1.00  0.00    -0.247 OA
HETATM   17  N3  UNL     1      20.367   3.523  50.356  1.00  0.00    -0.341 N 
HETATM   18  H15 UNL     1      20.148   3.051  49.421  1.00  0.00     0.164 HD
HETATM   19  H14 UNL     1      22.355   2.898  48.709  1.00  0.00     0.170 HD
BRANCH  17  20
HETATM   20  C14 UNL     1      19.244   3.834  51.198  1.00  0.00     0.143 C 
BRANCH  20  21
HETATM   21  C15 UNL     1      18.335   2.698  51.506  1.00  0.00     0.136 C 
BRANCH  21  22
HETATM   22  N4  UNL     1      18.444   1.514  50.773  1.00  0.00    -0.411 N 
HETATM   23  C16 UNL     1      19.074   0.385  51.350  1.00  0.00     0.117 C 
HETATM   24  C17 UNL     1      18.007  -0.312  52.207  1.00  0.00     0.019 C 
HETATM   25  C18 UNL     1      16.719  -0.485  51.468  1.00  0.00     0.003 C 
HETATM   26  C19 UNL     1      16.992  -0.209  49.989  1.00  0.00     0.019 C 
HETATM   27  C20 UNL     1      17.491   1.216  49.773  1.00  0.00     0.117 C 
ENDBRANCH  21  22
ENDBRANCH  20  21
ENDBRANCH  17  20
ENDBRANCH   2  14
BRANCH   1  28
HETATM   28  C2  UNL     1      26.183   4.557  49.460  1.00  0.00    -0.007 C 
HETATM   29  C1  UNL     1      27.283   4.953  48.793  1.00  0.00     0.013 C 
ENDBRANCH   1  28
TORSDOF 6
ENDMDL
