MODEL 1
REMARK VINA RESULT:      -9.9      0.000      0.000
REMARK  1 active torsions:
REMARK  status: ('A' for Active; 'I' for Inactive)
REMARK    1  A    between atoms: N3_16  and  C12_17 
ROOT
HETATM    1  C1  UNL     1      22.783   4.958  52.547  1.00  0.00     0.053 C 
HETATM    2  C2  UNL     1      22.407   3.755  52.260  1.00  0.00     0.093 C 
HETATM    3  O1  UNL     1      21.074   3.313  52.521  1.00  0.00    -0.321 OA
HETATM    4  C3  UNL     1      20.846   2.008  53.088  1.00  0.00     0.151 C 
HETATM    5  C4  UNL     1      21.337   0.935  52.428  1.00  0.00    -0.018 C 
HETATM    6  C5  UNL     1      21.247  -0.348  53.175  1.00  0.00     0.007 C 
HETATM    7  C6  UNL     1      21.070  -1.492  53.767  1.00  0.00    -0.022 C 
HETATM    8  C7  UNL     1      21.979  -2.054  54.810  1.00  0.00     0.056 C 
HETATM    9  C8  UNL     1      23.105  -1.075  55.037  1.00  0.00     0.002 C 
HETATM   10  C9  UNL     1      24.406  -0.961  54.934  1.00  0.00     0.139 C 
HETATM   11  O2  UNL     1      25.730  -0.564  54.931  1.00  0.00    -0.316 OA
HETATM   12  C10 UNL     1      26.112   0.662  54.347  1.00  0.00     0.259 C 
HETATM   13  N1  UNL     1      26.369   1.907  54.005  1.00  0.00    -0.228 NA
HETATM   14  C11 UNL     1      27.036   2.160  52.751  1.00  0.00     0.257 C 
HETATM   15  N2  UNL     1      27.052   2.591  51.543  1.00  0.00    -0.165 NA
HETATM   16  N3  UNL     1      25.871   3.137  51.010  1.00  0.00    -0.266 N 
HETATM   17  C17 UNL     1      24.606   3.494  51.511  1.00  0.00     0.145 C 
HETATM   18  C18 UNL     1      23.443   2.889  51.653  1.00  0.00     0.079 C 
HETATM   19  N4  UNL     1      23.271   1.510  51.240  1.00  0.00    -0.382 N 
HETATM   20  C19 UNL     1      21.964   0.850  51.046  1.00  0.00     0.160 C 
HETATM   21  H16 UNL     1      24.164   0.986  51.084  1.00  0.00     0.160 HD
ENDROOT
BRANCH  16  22
HETATM   22  C12 UNL     1      25.817   3.468  49.577  1.00  0.00     0.160 A 
HETATM   23  C13 UNL     1      25.020   4.663  49.323  1.00  0.00     0.048 A 
HETATM   24  C14 UNL     1      25.873   5.521  48.839  1.00  0.00     0.136 A 
HETATM   25  F1  UNL     1      25.400   6.767  48.498  1.00  0.00    -0.205 F 
HETATM   26  C15 UNL     1      27.240   5.041  48.719  1.00  0.00     0.070 A 
HETATM   27 CL1  UNL     1      28.628   5.911  48.117  1.00  0.00    -0.081 Cl
HETATM   28  C16 UNL     1      27.213   3.776  49.170  1.00  0.00     0.031 A 
ENDBRANCH  16  22
TORSDOF 1
ENDMDL
MODEL 2
REMARK VINA RESULT:      -9.6      3.467      4.713
REMARK  1 active torsions:
REMARK  status: ('A' for Active; 'I' for Inactive)
REMARK    1  A    between atoms: N3_16  and  C12_17 
ROOT
HETATM    1  C1  UNL     1      23.418   3.981  53.082  1.00  0.00     0.053 C 
HETATM    2  C2  UNL     1      22.812   3.332  52.142  1.00  0.00     0.093 C 
HETATM    3  O1  UNL     1      21.823   3.960  51.326  1.00  0.00    -0.321 OA
HETATM    4  C3  UNL     1      20.605   3.263  51.006  1.00  0.00     0.151 C 
HETATM    5  C4  UNL     1      20.703   2.062  50.393  1.00  0.00    -0.018 C 
HETATM    6  C5  UNL     1      19.422   1.312  50.286  1.00  0.00     0.007 C 
HETATM    7  C6  UNL     1      18.294   0.699  50.083  1.00  0.00    -0.022 C 
HETATM    8  C7  UNL     1      17.611  -0.169  51.087  1.00  0.00     0.056 C 
HETATM    9  C8  UNL     1      18.453  -0.201  52.340  1.00  0.00     0.002 C 
HETATM   10  C9  UNL     1      19.134  -1.020  53.102  1.00  0.00     0.139 C 
HETATM   11  O2  UNL     1      19.907  -1.637  54.067  1.00  0.00    -0.316 OA
HETATM   12  C10 UNL     1      21.160  -1.104  54.434  1.00  0.00     0.259 C 
HETATM   13  N1  UNL     1      22.196  -0.436  54.896  1.00  0.00    -0.228 NA
HETATM   14  C11 UNL     1      23.523  -0.892  54.564  1.00  0.00     0.257 C 
HETATM   15  N2  UNL     1      24.643  -0.772  53.948  1.00  0.00    -0.165 NA
HETATM   16  N3  UNL     1      24.833   0.345  53.116  1.00  0.00    -0.266 N 
HETATM   17  C17 UNL     1      24.134   1.537  52.848  1.00  0.00     0.145 C 
HETATM   18  C18 UNL     1      23.214   1.916  51.982  1.00  0.00     0.079 C 
HETATM   19  N4  UNL     1      22.689   0.983  51.005  1.00  0.00    -0.382 N 
HETATM   20  C19 UNL     1      21.921   1.371  49.804  1.00  0.00     0.160 C 
HETATM   21  H16 UNL     1      22.889  -0.024  51.210  1.00  0.00     0.160 HD
ENDROOT
BRANCH  16  22
HETATM   22  C12 UNL     1      26.031   0.409  52.263  1.00  0.00     0.160 A 
HETATM   23  C13 UNL     1      26.742   1.673  52.417  1.00  0.00     0.048 A 
HETATM   24  C14 UNL     1      27.896   1.333  52.919  1.00  0.00     0.136 A 
HETATM   25  F1  UNL     1      28.799   2.338  53.178  1.00  0.00    -0.205 F 
HETATM   26  C15 UNL     1      28.082  -0.090  53.145  1.00  0.00     0.070 A 
HETATM   27 CL1  UNL     1      29.487  -0.893  53.799  1.00  0.00    -0.081 Cl
HETATM   28  C16 UNL     1      26.937  -0.667  52.743  1.00  0.00     0.031 A 
ENDBRANCH  16  22
TORSDOF 1
ENDMDL
MODEL 3
REMARK VINA RESULT:      -8.6      3.670      5.855
REMARK  1 active torsions:
REMARK  status: ('A' for Active; 'I' for Inactive)
REMARK    1  A    between atoms: N3_16  and  C12_17 
ROOT
HETATM    1  C1  UNL     1      23.775   4.877  53.415  1.00  0.00     0.053 C 
HETATM    2  C2  UNL     1      23.623   4.622  52.156  1.00  0.00     0.093 C 
HETATM    3  O1  UNL     1      23.211   5.637  51.238  1.00  0.00    -0.321 OA
HETATM    4  C3  UNL     1      22.225   5.341  50.232  1.00  0.00     0.151 C 
HETATM    5  C4  UNL     1      22.475   4.323  49.378  1.00  0.00    -0.018 C 
HETATM    6  C5  UNL     1      21.328   3.943  48.510  1.00  0.00     0.007 C 
HETATM    7  C6  UNL     1      20.374   3.678  47.667  1.00  0.00    -0.022 C 
HETATM    8  C7  UNL     1      19.209   2.791  47.961  1.00  0.00     0.056 C 
HETATM    9  C8  UNL     1      19.347   2.276  49.373  1.00  0.00     0.002 C 
HETATM   10  C9  UNL     1      19.495   1.168  50.055  1.00  0.00     0.139 C 
HETATM   11  O2  UNL     1      19.648   0.181  51.010  1.00  0.00    -0.316 OA
HETATM   12  C10 UNL     1      20.625   0.304  52.020  1.00  0.00     0.259 C 
HETATM   13  N1  UNL     1      21.381   0.583  53.061  1.00  0.00    -0.228 NA
HETATM   14  C11 UNL     1      22.651  -0.087  53.199  1.00  0.00     0.257 C 
HETATM   15  N2  UNL     1      23.934  -0.099  53.187  1.00  0.00    -0.165 NA
HETATM   16  N3  UNL     1      24.612   1.101  52.909  1.00  0.00    -0.266 N 
HETATM   17  C17 UNL     1      24.255   2.453  52.756  1.00  0.00     0.145 C 
HETATM   18  C18 UNL     1      23.900   3.226  51.748  1.00  0.00     0.079 C 
HETATM   19  N4  UNL     1      23.807   2.692  50.404  1.00  0.00    -0.382 N 
HETATM   20  C19 UNL     1      23.747   3.515  49.178  1.00  0.00     0.160 C 
HETATM   21  H16 UNL     1      23.779   1.648  50.349  1.00  0.00     0.160 HD
ENDROOT
BRANCH  16  22
HETATM   22  C12 UNL     1      26.071   1.071  52.712  1.00  0.00     0.160 A 
HETATM   23  C13 UNL     1      26.793   1.184  53.974  1.00  0.00     0.048 A 
HETATM   24  C14 UNL     1      27.425   0.050  54.085  1.00  0.00     0.136 A 
HETATM   25  F1  UNL     1      28.206  -0.138  55.202  1.00  0.00    -0.205 F 
HETATM   26  C15 UNL     1      27.216  -0.889  52.995  1.00  0.00     0.070 A 
HETATM   27 CL1  UNL     1      27.897  -2.485  52.817  1.00  0.00    -0.081 Cl
HETATM   28  C16 UNL     1      26.384  -0.266  52.144  1.00  0.00     0.031 A 
ENDBRANCH  16  22
TORSDOF 1
ENDMDL
MODEL 4
REMARK VINA RESULT:      -8.5      3.606      6.522
REMARK  1 active torsions:
REMARK  status: ('A' for Active; 'I' for Inactive)
REMARK    1  A    between atoms: N3_16  and  C12_17 
ROOT
HETATM    1  C1  UNL     1      22.172   1.301  49.873  1.00  0.00     0.053 C 
HETATM    2  C2  UNL     1      21.978   2.437  50.461  1.00  0.00     0.093 C 
HETATM    3  O1  UNL     1      20.723   3.114  50.369  1.00  0.00    -0.321 OA
HETATM    4  C3  UNL     1      20.687   4.536  50.147  1.00  0.00     0.151 C 
HETATM    5  C4  UNL     1      21.332   5.333  51.028  1.00  0.00    -0.018 C 
HETATM    6  C5  UNL     1      21.429   6.761  50.621  1.00  0.00     0.007 C 
HETATM    7  C6  UNL     1      21.419   8.029  50.333  1.00  0.00    -0.022 C 
HETATM    8  C7  UNL     1      22.395   8.696  49.422  1.00  0.00     0.056 C 
HETATM    9  C8  UNL     1      23.365   7.655  48.918  1.00  0.00     0.002 C 
HETATM   10  C9  UNL     1      24.635   7.336  48.937  1.00  0.00     0.139 C 
HETATM   11  O2  UNL     1      25.887   6.769  48.790  1.00  0.00    -0.316 OA
HETATM   12  C10 UNL     1      26.087   5.395  49.042  1.00  0.00     0.259 C 
HETATM   13  N1  UNL     1      26.160   4.081  49.059  1.00  0.00    -0.228 NA
HETATM   14  C11 UNL     1      26.788   3.434  50.186  1.00  0.00     0.257 C 
HETATM   15  N2  UNL     1      26.747   2.721  51.251  1.00  0.00    -0.165 NA
HETATM   16  N3  UNL     1      25.501   2.232  51.682  1.00  0.00    -0.266 N 
HETATM   17  C17 UNL     1      24.195   2.192  51.161  1.00  0.00     0.145 C 
HETATM   18  C18 UNL     1      23.132   2.972  51.218  1.00  0.00     0.079 C 
HETATM   19  N4  UNL     1      23.167   4.215  51.961  1.00  0.00    -0.382 N 
HETATM   20  C19 UNL     1      21.971   4.985  52.363  1.00  0.00     0.160 C 
HETATM   21  H16 UNL     1      24.127   4.554  52.203  1.00  0.00     0.160 HD
ENDROOT
BRANCH  16  22
HETATM   22  C12 UNL     1      25.405   1.568  52.992  1.00  0.00     0.160 A 
HETATM   23  C13 UNL     1      25.233   0.126  52.861  1.00  0.00     0.048 A 
HETATM   24  C14 UNL     1      26.309  -0.376  53.397  1.00  0.00     0.136 A 
HETATM   25  F1  UNL     1      26.430  -1.747  53.418  1.00  0.00    -0.205 F 
HETATM   26  C15 UNL     1      27.260   0.595  53.912  1.00  0.00     0.070 A 
HETATM   27 CL1  UNL     1      28.792   0.281  54.685  1.00  0.00    -0.081 Cl
HETATM   28  C16 UNL     1      26.710   1.796  53.667  1.00  0.00     0.031 A 
ENDBRANCH  16  22
TORSDOF 1
ENDMDL
MODEL 5
REMARK VINA RESULT:      -8.2      2.729      4.621
REMARK  1 active torsions:
REMARK  status: ('A' for Active; 'I' for Inactive)
REMARK    1  A    between atoms: N3_16  and  C12_17 
ROOT
HETATM    1  C1  UNL     1      26.456   3.252  49.339  1.00  0.00     0.053 C 
HETATM    2  C2  UNL     1      26.031   2.938  50.520  1.00  0.00     0.093 C 
HETATM    3  O1  UNL     1      26.650   1.898  51.278  1.00  0.00    -0.321 OA
HETATM    4  C3  UNL     1      25.838   0.952  51.999  1.00  0.00     0.151 C 
HETATM    5  C4  UNL     1      24.960   1.431  52.909  1.00  0.00    -0.018 C 
HETATM    6  C5  UNL     1      24.015   0.420  53.455  1.00  0.00     0.007 C 
HETATM    7  C6  UNL     1      23.263  -0.474  54.025  1.00  0.00    -0.022 C 
HETATM    8  C7  UNL     1      21.982  -0.987  53.456  1.00  0.00     0.056 C 
HETATM    9  C8  UNL     1      21.734  -0.292  52.139  1.00  0.00     0.002 C 
HETATM   10  C9  UNL     1      20.889   0.511  51.541  1.00  0.00     0.139 C 
HETATM   11  O2  UNL     1      20.182   1.327  50.678  1.00  0.00    -0.316 OA
HETATM   12  C10 UNL     1      20.837   2.346  49.956  1.00  0.00     0.259 C 
HETATM   13  N1  UNL     1      21.534   3.112  49.142  1.00  0.00    -0.228 NA
HETATM   14  C11 UNL     1      21.527   4.539  49.354  1.00  0.00     0.257 C 
HETATM   15  N2  UNL     1      22.094   5.636  49.699  1.00  0.00    -0.165 NA
HETATM   16  N3  UNL     1      23.435   5.593  50.121  1.00  0.00    -0.266 N 
HETATM   17  C17 UNL     1      24.457   4.626  50.148  1.00  0.00     0.145 C 
HETATM   18  C18 UNL     1      24.877   3.724  51.014  1.00  0.00     0.079 C 
HETATM   19  N4  UNL     1      24.223   3.569  52.297  1.00  0.00    -0.382 N 
HETATM   20  C19 UNL     1      24.798   2.843  53.449  1.00  0.00     0.160 C 
HETATM   21  H16 UNL     1      23.279   4.015  52.364  1.00  0.00     0.160 HD
ENDROOT
BRANCH  16  22
HETATM   22  C12 UNL     1      24.047   6.804  50.691  1.00  0.00     0.160 A 
HETATM   23  C13 UNL     1      25.478   6.873  50.418  1.00  0.00     0.048 A 
HETATM   24  C14 UNL     1      25.612   7.929  49.667  1.00  0.00     0.136 A 
HETATM   25  F1  UNL     1      26.880   8.253  49.243  1.00  0.00    -0.205 F 
HETATM   26  C15 UNL     1      24.380   8.641  49.369  1.00  0.00     0.070 A 
HETATM   27 CL1  UNL     1      24.188  10.081  48.403  1.00  0.00    -0.081 Cl
HETATM   28  C16 UNL     1      23.411   7.955  49.997  1.00  0.00     0.031 A 
ENDBRANCH  16  22
TORSDOF 1
ENDMDL
MODEL 6
REMARK VINA RESULT:      -7.8      3.983      7.228
REMARK  1 active torsions:
REMARK  status: ('A' for Active; 'I' for Inactive)
REMARK    1  A    between atoms: N3_16  and  C12_17 
ROOT
HETATM    1  C1  UNL     1      21.984   2.470  48.425  1.00  0.00     0.053 C 
HETATM    2  C2  UNL     1      21.975   3.684  48.872  1.00  0.00     0.093 C 
HETATM    3  O1  UNL     1      21.109   4.673  48.313  1.00  0.00    -0.321 OA
HETATM    4  C3  UNL     1      21.604   6.000  48.057  1.00  0.00     0.151 C 
HETATM    5  C4  UNL     1      22.132   6.692  49.091  1.00  0.00    -0.018 C 
HETATM    6  C5  UNL     1      22.810   7.961  48.710  1.00  0.00     0.007 C 
HETATM    7  C6  UNL     1      23.300   9.126  48.406  1.00  0.00    -0.022 C 
HETATM    8  C7  UNL     1      24.685   9.351  47.895  1.00  0.00     0.056 C 
HETATM    9  C8  UNL     1      25.383   8.016  47.805  1.00  0.00     0.002 C 
HETATM   10  C9  UNL     1      26.401   7.352  48.293  1.00  0.00     0.139 C 
HETATM   11  O2  UNL     1      27.379   6.434  48.626  1.00  0.00    -0.316 OA
HETATM   12  C10 UNL     1      27.035   5.110  48.969  1.00  0.00     0.259 C 
HETATM   13  N1  UNL     1      26.676   3.845  49.046  1.00  0.00    -0.228 NA
HETATM   14  C11 UNL     1      26.647   3.208  50.340  1.00  0.00     0.257 C 
HETATM   15  N2  UNL     1      26.025   2.691  51.335  1.00  0.00    -0.165 NA
HETATM   16  N3  UNL     1      24.619   2.646  51.296  1.00  0.00    -0.266 N 
HETATM   17  C17 UNL     1      23.625   2.911  50.337  1.00  0.00     0.145 C 
HETATM   18  C18 UNL     1      22.913   3.963  49.983  1.00  0.00     0.079 C 
HETATM   19  N4  UNL     1      23.088   5.235  50.656  1.00  0.00    -0.382 N 
HETATM   20  C19 UNL     1      22.138   6.364  50.575  1.00  0.00     0.160 C 
HETATM   21  H16 UNL     1      23.965   5.313  51.222  1.00  0.00     0.160 HD
ENDROOT
BRANCH  16  22
HETATM   22  C12 UNL     1      23.882   2.226  52.499  1.00  0.00     0.160 A 
HETATM   23  C13 UNL     1      22.878   1.212  52.196  1.00  0.00     0.048 A 
HETATM   24  C14 UNL     1      23.279   0.158  52.849  1.00  0.00     0.136 A 
HETATM   25  F1  UNL     1      22.514  -0.981  52.752  1.00  0.00    -0.205 F 
HETATM   26  C15 UNL     1      24.506   0.326  53.609  1.00  0.00     0.070 A 
HETATM   27 CL1  UNL     1      25.325  -0.862  54.591  1.00  0.00    -0.081 Cl
HETATM   28  C16 UNL     1      24.883   1.598  53.400  1.00  0.00     0.031 A 
ENDBRANCH  16  22
TORSDOF 1
ENDMDL
MODEL 7
REMARK VINA RESULT:      -7.8      4.295      6.943
REMARK  1 active torsions:
REMARK  status: ('A' for Active; 'I' for Inactive)
REMARK    1  A    between atoms: N3_16  and  C12_17 
ROOT
HETATM    1  C1  UNL     1      24.190   4.859  50.880  1.00  0.00     0.053 C 
HETATM    2  C2  UNL     1      23.656   4.253  49.869  1.00  0.00     0.093 C 
HETATM    3  O1  UNL     1      23.721   4.807  48.554  1.00  0.00    -0.321 OA
HETATM    4  C3  UNL     1      22.558   4.784  47.705  1.00  0.00     0.151 C 
HETATM    5  C4  UNL     1      21.987   3.588  47.441  1.00  0.00    -0.018 C 
HETATM    6  C5  UNL     1      20.678   3.664  46.738  1.00  0.00     0.007 C 
HETATM    7  C6  UNL     1      19.594   3.712  46.022  1.00  0.00    -0.022 C 
HETATM    8  C7  UNL     1      18.226   3.941  46.575  1.00  0.00     0.056 C 
HETATM    9  C8  UNL     1      18.339   4.098  48.072  1.00  0.00     0.002 C 
HETATM   10  C9  UNL     1      17.961   3.542  49.197  1.00  0.00     0.139 C 
HETATM   11  O2  UNL     1      17.716   3.181  50.508  1.00  0.00    -0.316 OA
HETATM   12  C10 UNL     1      18.773   3.092  51.438  1.00  0.00     0.259 C 
HETATM   13  N1  UNL     1      19.752   3.258  52.303  1.00  0.00    -0.228 NA
HETATM   14  C11 UNL     1      20.397   2.091  52.855  1.00  0.00     0.257 C 
HETATM   15  N2  UNL     1      21.400   1.300  52.974  1.00  0.00    -0.165 NA
HETATM   16  N3  UNL     1      22.567   1.584  52.244  1.00  0.00    -0.266 N 
HETATM   17  C17 UNL     1      23.032   2.653  51.455  1.00  0.00     0.145 C 
HETATM   18  C18 UNL     1      22.984   2.970  50.176  1.00  0.00     0.079 C 
HETATM   19  N4  UNL     1      22.317   2.105  49.223  1.00  0.00    -0.382 N 
HETATM   20  C19 UNL     1      22.483   2.186  47.758  1.00  0.00     0.160 C 
HETATM   21  H16 UNL     1      21.681   1.392  49.651  1.00  0.00     0.160 HD
ENDROOT
BRANCH  16  22
HETATM   22  C12 UNL     1      23.659   0.597  52.225  1.00  0.00     0.160 A 
HETATM   23  C13 UNL     1      24.942   1.197  52.573  1.00  0.00     0.048 A 
HETATM   24  C14 UNL     1      25.282   0.607  53.683  1.00  0.00     0.136 A 
HETATM   25  F1  UNL     1      26.474   0.976  54.263  1.00  0.00    -0.205 F 
HETATM   26  C15 UNL     1      24.339  -0.384  54.176  1.00  0.00     0.070 A 
HETATM   27 CL1  UNL     1      24.470  -1.357  55.618  1.00  0.00    -0.081 Cl
HETATM   28  C16 UNL     1      23.337  -0.397  53.282  1.00  0.00     0.031 A 
ENDBRANCH  16  22
TORSDOF 1
ENDMDL
MODEL 8
REMARK VINA RESULT:      -7.5      5.046      8.899
REMARK  1 active torsions:
REMARK  status: ('A' for Active; 'I' for Inactive)
REMARK    1  A    between atoms: N3_16  and  C12_17 
ROOT
HETATM    1  C1  UNL     1      24.439   8.676  47.519  1.00  0.00     0.053 C 
HETATM    2  C2  UNL     1      25.413   9.083  48.266  1.00  0.00     0.093 C 
HETATM    3  O1  UNL     1      26.080  10.319  48.007  1.00  0.00    -0.321 OA
HETATM    4  C3  UNL     1      27.516  10.394  48.091  1.00  0.00     0.151 C 
HETATM    5  C4  UNL     1      28.103  10.037  49.255  1.00  0.00    -0.018 C 
HETATM    6  C5  UNL     1      29.586   9.939  49.199  1.00  0.00     0.007 C 
HETATM    7  C6  UNL     1      30.886   9.962  49.196  1.00  0.00    -0.022 C 
HETATM    8  C7  UNL     1      31.750   8.839  48.725  1.00  0.00     0.056 C 
HETATM    9  C8  UNL     1      30.857   7.709  48.273  1.00  0.00     0.002 C 
HETATM   10  C9  UNL     1      30.556   6.464  48.544  1.00  0.00     0.139 C 
HETATM   11  O2  UNL     1      30.048   5.179  48.600  1.00  0.00    -0.316 OA
HETATM   12  C10 UNL     1      28.656   4.956  48.596  1.00  0.00     0.259 C 
HETATM   13  N1  UNL     1      27.371   4.803  48.351  1.00  0.00    -0.228 NA
HETATM   14  C11 UNL     1      26.496   4.428  49.435  1.00  0.00     0.257 C 
HETATM   15  N2  UNL     1      25.563   4.680  50.278  1.00  0.00    -0.165 NA
HETATM   16  N3  UNL     1      24.978   5.959  50.266  1.00  0.00    -0.266 N 
HETATM   17  C17 UNL     1      25.041   7.093  49.435  1.00  0.00     0.145 C 
HETATM   18  C18 UNL     1      25.777   8.186  49.386  1.00  0.00     0.079 C 
HETATM   19  N4  UNL     1      26.824   8.416  50.362  1.00  0.00    -0.382 N 
HETATM   20  C19 UNL     1      27.473   9.722  50.602  1.00  0.00     0.160 C 
HETATM   21  H16 UNL     1      27.110   7.569  50.905  1.00  0.00     0.160 HD
ENDROOT
BRANCH  16  22
HETATM   22  C12 UNL     1      24.037   6.328  51.337  1.00  0.00     0.160 A 
HETATM   23  C13 UNL     1      22.863   7.018  50.817  1.00  0.00     0.048 A 
HETATM   24  C14 UNL     1      21.872   6.219  51.093  1.00  0.00     0.136 A 
HETATM   25  F1  UNL     1      20.610   6.614  50.713  1.00  0.00    -0.205 F 
HETATM   26  C15 UNL     1      22.235   4.990  51.778  1.00  0.00     0.070 A 
HETATM   27 CL1  UNL     1      21.176   3.703  52.295  1.00  0.00    -0.081 Cl
HETATM   28  C16 UNL     1      23.568   5.050  51.933  1.00  0.00     0.031 A 
ENDBRANCH  16  22
TORSDOF 1
ENDMDL
MODEL 9
REMARK VINA RESULT:      -7.5      8.596     11.752
REMARK  1 active torsions:
REMARK  status: ('A' for Active; 'I' for Inactive)
REMARK    1  A    between atoms: N3_16  and  C12_17 
ROOT
HETATM    1  C1  UNL     1      28.243   6.344  47.920  1.00  0.00     0.053 C 
HETATM    2  C2  UNL     1      28.764   7.415  48.424  1.00  0.00     0.093 C 
HETATM    3  O1  UNL     1      28.022   8.254  49.310  1.00  0.00    -0.321 OA
HETATM    4  C3  UNL     1      28.083   9.686  49.166  1.00  0.00     0.151 C 
HETATM    5  C4  UNL     1      29.296  10.279  49.223  1.00  0.00    -0.018 C 
HETATM    6  C5  UNL     1      29.301  11.722  48.856  1.00  0.00     0.007 C 
HETATM    7  C6  UNL     1      29.301  13.006  48.653  1.00  0.00    -0.022 C 
HETATM    8  C7  UNL     1      29.347  13.647  47.306  1.00  0.00     0.056 C 
HETATM    9  C8  UNL     1      29.395  12.558  46.261  1.00  0.00     0.002 C 
HETATM   10  C9  UNL     1      30.155  12.079  45.308  1.00  0.00     0.139 C 
HETATM   11  O2  UNL     1      30.733  11.376  44.268  1.00  0.00    -0.316 OA
HETATM   12  C10 UNL     1      30.808   9.968  44.306  1.00  0.00     0.259 C 
HETATM   13  N1  UNL     1      30.636   8.663  44.289  1.00  0.00    -0.228 NA
HETATM   14  C11 UNL     1      31.769   7.808  44.547  1.00  0.00     0.257 C 
HETATM   15  N2  UNL     1      32.422   6.982  45.279  1.00  0.00    -0.165 NA
HETATM   16  N3  UNL     1      31.875   6.610  46.520  1.00  0.00    -0.266 N 
HETATM   17  C17 UNL     1      30.649   6.802  47.184  1.00  0.00     0.145 C 
HETATM   18  C18 UNL     1      30.159   7.700  48.017  1.00  0.00     0.079 C 
HETATM   19  N4  UNL     1      30.961   8.829  48.443  1.00  0.00    -0.382 N 
HETATM   20  C19 UNL     1      30.646   9.692  49.600  1.00  0.00     0.160 C 
HETATM   21  H16 UNL     1      31.810   9.008  47.858  1.00  0.00     0.160 HD
ENDROOT
BRANCH  16  22
HETATM   22  C12 UNL     1      32.687   5.809  47.451  1.00  0.00     0.160 A 
HETATM   23  C13 UNL     1      32.048   4.540  47.778  1.00  0.00     0.048 A 
HETATM   24  C14 UNL     1      32.858   3.639  47.299  1.00  0.00     0.136 A 
HETATM   25  F1  UNL     1      32.510   2.318  47.461  1.00  0.00    -0.205 F 
HETATM   26  C15 UNL     1      34.046   4.157  46.641  1.00  0.00     0.070 A 
HETATM   27 CL1  UNL     1      35.333   3.248  45.892  1.00  0.00    -0.081 Cl
HETATM   28  C16 UNL     1      33.949   5.494  46.732  1.00  0.00     0.031 A 
ENDBRANCH  16  22
TORSDOF 1
ENDMDL
