MODEL 1
REMARK VINA RESULT:      -7.7      0.000      0.000
REMARK  7 active torsions:
REMARK  status: ('A' for Active; 'I' for Inactive)
REMARK       I    between atoms: N1_2  and  C2_3 
REMARK    1  A    between atoms: C2_3  and  C3_5 
REMARK    2  A    between atoms: C5_8  and  C6_9 
REMARK    3  A    between atoms: C6_9  and  C7_10 
REMARK    4  A    between atoms: C7_10  and  C8_11 
REMARK    5  A    between atoms: C9_12  and  C10_13 
REMARK    6  A    between atoms: C10_13  and  C11_14 
REMARK    7  A    between atoms: C11_14  and  C12_16 
ROOT
HETATM    1  C7  UNL     1      21.845   0.663  53.021  1.00  0.00     0.031 C 
ENDROOT
BRANCH   1   2
HETATM    2  C6  UNL     1      22.304  -0.699  53.434  1.00  0.00     0.040 C 
BRANCH   2   3
HETATM    3  C5  UNL     1      23.537  -0.774  54.205  1.00  0.00    -0.058 A 
HETATM    4  C4  UNL     1      24.039  -1.327  55.480  1.00  0.00     0.184 A 
HETATM    5  N2  UNL     1      25.420  -0.909  55.515  1.00  0.00    -0.280 NA
HETATM    6  C3  UNL     1      25.797  -0.239  54.520  1.00  0.00     0.119 A 
HETATM    7  C18 UNL     1      24.614  -0.146  53.683  1.00  0.00     0.041 A 
BRANCH   6   8
HETATM    8  C2  UNL     1      27.146   0.278  54.358  1.00  0.00     0.269 C 
HETATM    9  N1  UNL     1      27.334   1.650  54.054  1.00  0.00    -0.360 N 
HETATM   10  C1  UNL     1      28.647   2.214  53.883  1.00  0.00     0.149 C 
HETATM   11  H4  UNL     1      26.505   2.275  53.951  1.00  0.00     0.162 HD
HETATM   12  O1  UNL     1      28.132  -0.483  54.486  1.00  0.00    -0.266 OA
ENDBRANCH   6   8
ENDBRANCH   2   3
ENDBRANCH   1   2
BRANCH   1  13
HETATM   13  C8  UNL     1      21.680   0.752  51.559  1.00  0.00    -0.030 C 
HETATM   14  C9  UNL     1      22.582   1.406  50.778  1.00  0.00    -0.023 C 
BRANCH  14  15
HETATM   15  C10 UNL     1      23.867   2.162  51.046  1.00  0.00     0.110 C 
BRANCH  15  16
HETATM   16  C11 UNL     1      23.820   3.371  50.166  1.00  0.00     0.163 C 
HETATM   17  O2  UNL     1      22.608   3.630  49.987  1.00  0.00    -0.292 OA
BRANCH  16  18
HETATM   18  C12 UNL     1      24.982   4.066  49.648  1.00  0.00     0.010 A 
HETATM   19  C13 UNL     1      26.260   3.598  49.527  1.00  0.00     0.015 A 
HETATM   20  C14 UNL     1      27.274   4.386  49.006  1.00  0.00     0.001 A 
HETATM   21  C15 UNL     1      27.022   5.680  48.587  1.00  0.00     0.000 A 
HETATM   22  C16 UNL     1      25.746   6.143  48.710  1.00  0.00     0.001 A 
HETATM   23  C17 UNL     1      24.741   5.365  49.226  1.00  0.00     0.015 A 
ENDBRANCH  16  18
ENDBRANCH  15  16
ENDBRANCH  14  15
ENDBRANCH   1  13
TORSDOF 7
ENDMDL
MODEL 2
REMARK VINA RESULT:      -7.6      3.135      5.280
REMARK  7 active torsions:
REMARK  status: ('A' for Active; 'I' for Inactive)
REMARK       I    between atoms: N1_2  and  C2_3 
REMARK    1  A    between atoms: C2_3  and  C3_5 
REMARK    2  A    between atoms: C5_8  and  C6_9 
REMARK    3  A    between atoms: C6_9  and  C7_10 
REMARK    4  A    between atoms: C7_10  and  C8_11 
REMARK    5  A    between atoms: C9_12  and  C10_13 
REMARK    6  A    between atoms: C10_13  and  C11_14 
REMARK    7  A    between atoms: C11_14  and  C12_16 
ROOT
HETATM    1  C7  UNL     1      25.105   0.480  52.898  1.00  0.00     0.031 C 
ENDROOT
BRANCH   1   2
HETATM    2  C6  UNL     1      24.954  -0.520  54.000  1.00  0.00     0.040 C 
BRANCH   2   3
HETATM    3  C5  UNL     1      23.596  -0.875  54.386  1.00  0.00    -0.058 A 
HETATM    4  C4  UNL     1      22.885  -1.668  55.411  1.00  0.00     0.184 A 
HETATM    5  N2  UNL     1      21.496  -1.528  55.049  1.00  0.00    -0.280 NA
HETATM    6  C3  UNL     1      21.280  -0.816  54.036  1.00  0.00     0.119 A 
HETATM    7  C18 UNL     1      22.602  -0.396  53.606  1.00  0.00     0.041 A 
BRANCH   6   8
HETATM    8  C2  UNL     1      19.953  -0.547  53.505  1.00  0.00     0.269 C 
HETATM    9  N1  UNL     1      18.900  -1.461  53.767  1.00  0.00    -0.360 N 
HETATM   10  C1  UNL     1      17.569  -1.244  53.266  1.00  0.00     0.149 C 
HETATM   11  H4  UNL     1      19.086  -2.313  54.339  1.00  0.00     0.162 HD
HETATM   12  O1  UNL     1      19.745   0.481  52.822  1.00  0.00    -0.266 OA
ENDBRANCH   6   8
ENDBRANCH   2   3
ENDBRANCH   1   2
BRANCH   1  13
HETATM   13  C8  UNL     1      25.633   1.760  53.404  1.00  0.00    -0.030 C 
HETATM   14  C9  UNL     1      24.936   2.921  53.274  1.00  0.00    -0.023 C 
BRANCH  14  15
HETATM   15  C10 UNL     1      23.597   3.292  52.671  1.00  0.00     0.110 C 
BRANCH  15  16
HETATM   16  C11 UNL     1      23.835   3.424  51.200  1.00  0.00     0.163 C 
HETATM   17  O2  UNL     1      24.747   4.272  51.064  1.00  0.00    -0.292 OA
BRANCH  16  18
HETATM   18  C12 UNL     1      23.121   2.691  50.175  1.00  0.00     0.010 A 
HETATM   19  C13 UNL     1      23.196   2.845  48.819  1.00  0.00     0.015 A 
HETATM   20  C14 UNL     1      22.448   2.061  47.956  1.00  0.00     0.001 A 
HETATM   21  C15 UNL     1      21.594   1.087  48.445  1.00  0.00     0.000 A 
HETATM   22  C16 UNL     1      21.521   0.937  49.797  1.00  0.00     0.001 A 
HETATM   23  C17 UNL     1      22.261   1.712  50.652  1.00  0.00     0.015 A 
ENDBRANCH  16  18
ENDBRANCH  15  16
ENDBRANCH  14  15
ENDBRANCH   1  13
TORSDOF 7
ENDMDL
MODEL 3
REMARK VINA RESULT:      -7.6      3.357      7.713
REMARK  7 active torsions:
REMARK  status: ('A' for Active; 'I' for Inactive)
REMARK       I    between atoms: N1_2  and  C2_3 
REMARK    1  A    between atoms: C2_3  and  C3_5 
REMARK    2  A    between atoms: C5_8  and  C6_9 
REMARK    3  A    between atoms: C6_9  and  C7_10 
REMARK    4  A    between atoms: C7_10  and  C8_11 
REMARK    5  A    between atoms: C9_12  and  C10_13 
REMARK    6  A    between atoms: C10_13  and  C11_14 
REMARK    7  A    between atoms: C11_14  and  C12_16 
ROOT
HETATM    1  C7  UNL     1      25.776   2.522  51.255  1.00  0.00     0.031 C 
ENDROOT
BRANCH   1   2
HETATM    2  C6  UNL     1      26.122   2.737  49.816  1.00  0.00     0.040 C 
BRANCH   2   3
HETATM    3  C5  UNL     1      26.179   4.115  49.351  1.00  0.00    -0.058 A 
HETATM    4  C4  UNL     1      25.272   5.244  49.054  1.00  0.00     0.184 A 
HETATM    5  N2  UNL     1      26.159   6.281  48.584  1.00  0.00    -0.280 NA
HETATM    6  C3  UNL     1      27.376   5.968  48.562  1.00  0.00     0.119 A 
HETATM    7  C18 UNL     1      27.403   4.599  49.045  1.00  0.00     0.041 A 
BRANCH   6   8
HETATM    8  C2  UNL     1      28.433   6.865  48.123  1.00  0.00     0.269 C 
HETATM    9  N1  UNL     1      29.581   7.040  48.939  1.00  0.00    -0.360 N 
HETATM   10  C1  UNL     1      30.656   7.916  48.553  1.00  0.00     0.149 C 
HETATM   11  H4  UNL     1      29.657   6.523  49.841  1.00  0.00     0.162 HD
HETATM   12  O1  UNL     1      28.329   7.477  47.036  1.00  0.00    -0.266 OA
ENDBRANCH   6   8
ENDBRANCH   2   3
ENDBRANCH   1   2
BRANCH   1  13
HETATM   13  C8  UNL     1      26.957   2.106  52.033  1.00  0.00    -0.030 C 
HETATM   14  C9  UNL     1      27.109   0.826  52.472  1.00  0.00    -0.023 C 
BRANCH  14  15
HETATM   15  C10 UNL     1      26.282  -0.438  52.360  1.00  0.00     0.110 C 
BRANCH  15  16
HETATM   16  C11 UNL     1      25.493  -0.522  53.628  1.00  0.00     0.163 C 
HETATM   17  O2  UNL     1      26.305  -0.834  54.530  1.00  0.00    -0.292 OA
BRANCH  16  18
HETATM   18  C12 UNL     1      24.068  -0.281  53.736  1.00  0.00     0.010 A 
HETATM   19  C13 UNL     1      23.307   0.608  53.030  1.00  0.00     0.015 A 
HETATM   20  C14 UNL     1      21.943   0.724  53.244  1.00  0.00     0.001 A 
HETATM   21  C15 UNL     1      21.303  -0.063  54.185  1.00  0.00     0.000 A 
HETATM   22  C16 UNL     1      22.066  -0.947  54.888  1.00  0.00     0.001 A 
HETATM   23  C17 UNL     1      23.416  -1.064  54.678  1.00  0.00     0.015 A 
ENDBRANCH  16  18
ENDBRANCH  15  16
ENDBRANCH  14  15
ENDBRANCH   1  13
TORSDOF 7
ENDMDL
MODEL 4
REMARK VINA RESULT:      -7.5      2.459      5.084
REMARK  7 active torsions:
REMARK  status: ('A' for Active; 'I' for Inactive)
REMARK       I    between atoms: N1_2  and  C2_3 
REMARK    1  A    between atoms: C2_3  and  C3_5 
REMARK    2  A    between atoms: C5_8  and  C6_9 
REMARK    3  A    between atoms: C6_9  and  C7_10 
REMARK    4  A    between atoms: C7_10  and  C8_11 
REMARK    5  A    between atoms: C9_12  and  C10_13 
REMARK    6  A    between atoms: C10_13  and  C11_14 
REMARK    7  A    between atoms: C11_14  and  C12_16 
ROOT
HETATM    1  C7  UNL     1      23.880   0.085  53.628  1.00  0.00     0.031 C 
ENDROOT
BRANCH   1   2
HETATM    2  C6  UNL     1      25.220  -0.346  53.124  1.00  0.00     0.040 C 
BRANCH   2   3
HETATM    3  C5  UNL     1      26.115   0.701  52.653  1.00  0.00    -0.058 A 
HETATM    4  C4  UNL     1      27.462   1.242  52.928  1.00  0.00     0.184 A 
HETATM    5  N2  UNL     1      27.581   2.350  52.011  1.00  0.00    -0.280 NA
HETATM    6  C3  UNL     1      26.580   2.538  51.275  1.00  0.00     0.119 A 
HETATM    7  C18 UNL     1      25.644   1.501  51.671  1.00  0.00     0.041 A 
BRANCH   6   8
HETATM    8  C2  UNL     1      26.494   3.599  50.283  1.00  0.00     0.269 C 
HETATM    9  N1  UNL     1      25.705   4.745  50.557  1.00  0.00    -0.360 N 
HETATM   10  C1  UNL     1      25.585   5.824  49.612  1.00  0.00     0.149 C 
HETATM   11  H4  UNL     1      25.197   4.818  51.465  1.00  0.00     0.162 HD
HETATM   12  O1  UNL     1      27.111   3.498  49.199  1.00  0.00    -0.266 OA
ENDBRANCH   6   8
ENDBRANCH   2   3
ENDBRANCH   1   2
BRANCH   1  13
HETATM   13  C8  UNL     1      23.097  -1.064  54.119  1.00  0.00    -0.030 C 
HETATM   14  C9  UNL     1      21.793  -0.936  54.484  1.00  0.00    -0.023 C 
BRANCH  14  15
HETATM   15  C10 UNL     1      20.811   0.217  54.525  1.00  0.00     0.110 C 
BRANCH  15  16
HETATM   16  C11 UNL     1      20.357   0.414  53.113  1.00  0.00     0.163 C 
HETATM   17  O2  UNL     1      19.277  -0.210  52.999  1.00  0.00    -0.292 OA
BRANCH  16  18
HETATM   18  C12 UNL     1      21.067   1.186  52.113  1.00  0.00     0.010 A 
HETATM   19  C13 UNL     1      21.546   2.462  52.215  1.00  0.00     0.015 A 
HETATM   20  C14 UNL     1      22.213   3.073  51.166  1.00  0.00     0.001 A 
HETATM   21  C15 UNL     1      22.419   2.404  49.972  1.00  0.00     0.000 A 
HETATM   22  C16 UNL     1      21.939   1.132  49.874  1.00  0.00     0.001 A 
HETATM   23  C17 UNL     1      21.278   0.526  50.911  1.00  0.00     0.015 A 
ENDBRANCH  16  18
ENDBRANCH  15  16
ENDBRANCH  14  15
ENDBRANCH   1  13
TORSDOF 7
ENDMDL
MODEL 5
REMARK VINA RESULT:      -7.5      3.713      6.676
REMARK  7 active torsions:
REMARK  status: ('A' for Active; 'I' for Inactive)
REMARK       I    between atoms: N1_2  and  C2_3 
REMARK    1  A    between atoms: C2_3  and  C3_5 
REMARK    2  A    between atoms: C5_8  and  C6_9 
REMARK    3  A    between atoms: C6_9  and  C7_10 
REMARK    4  A    between atoms: C7_10  and  C8_11 
REMARK    5  A    between atoms: C9_12  and  C10_13 
REMARK    6  A    between atoms: C10_13  and  C11_14 
REMARK    7  A    between atoms: C11_14  and  C12_16 
ROOT
HETATM    1  C7  UNL     1      24.253   0.711  52.607  1.00  0.00     0.031 C 
ENDROOT
BRANCH   1   2
HETATM    2  C6  UNL     1      23.751  -0.342  53.542  1.00  0.00     0.040 C 
BRANCH   2   3
HETATM    3  C5  UNL     1      22.308  -0.521  53.618  1.00  0.00    -0.058 A 
HETATM    4  C4  UNL     1      21.296  -1.178  54.473  1.00  0.00     0.184 A 
HETATM    5  N2  UNL     1      20.049  -0.897  53.804  1.00  0.00    -0.280 NA
HETATM    6  C3  UNL     1      20.152  -0.214  52.753  1.00  0.00     0.119 A 
HETATM    7  C18 UNL     1      21.578   0.030  52.624  1.00  0.00     0.041 A 
BRANCH   6   8
HETATM    8  C2  UNL     1      19.019   0.178  51.930  1.00  0.00     0.269 C 
HETATM    9  N1  UNL     1      18.938   1.511  51.449  1.00  0.00    -0.360 N 
HETATM   10  C1  UNL     1      17.839   1.952  50.631  1.00  0.00     0.149 C 
HETATM   11  H4  UNL     1      19.689   2.193  51.687  1.00  0.00     0.162 HD
HETATM   12  O1  UNL     1      18.126  -0.652  51.651  1.00  0.00    -0.266 OA
ENDBRANCH   6   8
ENDBRANCH   2   3
ENDBRANCH   1   2
BRANCH   1  13
HETATM   13  C8  UNL     1      24.576   1.957  53.327  1.00  0.00    -0.030 C 
HETATM   14  C9  UNL     1      25.772   2.585  53.167  1.00  0.00    -0.023 C 
BRANCH  14  15
HETATM   15  C10 UNL     1      27.013   2.309  52.343  1.00  0.00     0.110 C 
BRANCH  15  16
HETATM   16  C11 UNL     1      28.013   1.734  53.296  1.00  0.00     0.163 C 
HETATM   17  O2  UNL     1      28.356   2.670  54.055  1.00  0.00    -0.292 OA
BRANCH  16  18
HETATM   18  C12 UNL     1      28.464   0.357  53.295  1.00  0.00     0.010 A 
HETATM   19  C13 UNL     1      29.692  -0.130  53.646  1.00  0.00     0.015 A 
HETATM   20  C14 UNL     1      29.976  -1.485  53.597  1.00  0.00     0.001 A 
HETATM   21  C15 UNL     1      29.018  -2.396  53.188  1.00  0.00     0.000 A 
HETATM   22  C16 UNL     1      27.795  -1.907  52.838  1.00  0.00     0.001 A 
HETATM   23  C17 UNL     1      27.511  -0.566  52.886  1.00  0.00     0.015 A 
ENDBRANCH  16  18
ENDBRANCH  15  16
ENDBRANCH  14  15
ENDBRANCH   1  13
TORSDOF 7
ENDMDL
MODEL 6
REMARK VINA RESULT:      -7.5      1.477      2.024
REMARK  7 active torsions:
REMARK  status: ('A' for Active; 'I' for Inactive)
REMARK       I    between atoms: N1_2  and  C2_3 
REMARK    1  A    between atoms: C2_3  and  C3_5 
REMARK    2  A    between atoms: C5_8  and  C6_9 
REMARK    3  A    between atoms: C6_9  and  C7_10 
REMARK    4  A    between atoms: C7_10  and  C8_11 
REMARK    5  A    between atoms: C9_12  and  C10_13 
REMARK    6  A    between atoms: C10_13  and  C11_14 
REMARK    7  A    between atoms: C11_14  and  C12_16 
ROOT
HETATM    1  C7  UNL     1      21.568   0.646  53.366  1.00  0.00     0.031 C 
ENDROOT
BRANCH   1   2
HETATM    2  C6  UNL     1      22.130  -0.730  53.524  1.00  0.00     0.040 C 
BRANCH   2   3
HETATM    3  C5  UNL     1      23.360  -0.855  54.292  1.00  0.00    -0.058 A 
HETATM    4  C4  UNL     1      23.844  -1.443  55.559  1.00  0.00     0.184 A 
HETATM    5  N2  UNL     1      25.237  -1.069  55.600  1.00  0.00    -0.280 NA
HETATM    6  C3  UNL     1      25.636  -0.398  54.615  1.00  0.00     0.119 A 
HETATM    7  C18 UNL     1      24.456  -0.255  53.779  1.00  0.00     0.041 A 
BRANCH   6   8
HETATM    8  C2  UNL     1      27.001   0.078  54.460  1.00  0.00     0.269 C 
HETATM    9  N1  UNL     1      28.018  -0.836  54.085  1.00  0.00    -0.360 N 
HETATM   10  C1  UNL     1      29.386  -0.419  53.917  1.00  0.00     0.149 C 
HETATM   11  H4  UNL     1      27.778  -1.838  53.921  1.00  0.00     0.162 HD
HETATM   12  O1  UNL     1      27.274   1.284  54.658  1.00  0.00    -0.266 OA
ENDBRANCH   6   8
ENDBRANCH   2   3
ENDBRANCH   1   2
BRANCH   1  13
HETATM   13  C8  UNL     1      20.358   0.637  52.522  1.00  0.00    -0.030 C 
HETATM   14  C9  UNL     1      20.435   0.650  51.164  1.00  0.00    -0.023 C 
BRANCH  14  15
HETATM   15  C10 UNL     1      21.575   0.675  50.166  1.00  0.00     0.110 C 
BRANCH  15  16
HETATM   16  C11 UNL     1      22.088   2.080  50.170  1.00  0.00     0.163 C 
HETATM   17  O2  UNL     1      21.094   2.820  49.986  1.00  0.00    -0.292 OA
BRANCH  16  18
HETATM   18  C12 UNL     1      23.475   2.457  50.354  1.00  0.00     0.010 A 
HETATM   19  C13 UNL     1      24.319   2.098  51.368  1.00  0.00     0.015 A 
HETATM   20  C14 UNL     1      25.633   2.538  51.407  1.00  0.00     0.001 A 
HETATM   21  C15 UNL     1      26.136   3.360  50.413  1.00  0.00     0.000 A 
HETATM   22  C16 UNL     1      25.290   3.715  49.405  1.00  0.00     0.001 A 
HETATM   23  C17 UNL     1      23.990   3.281  49.364  1.00  0.00     0.015 A 
ENDBRANCH  16  18
ENDBRANCH  15  16
ENDBRANCH  14  15
ENDBRANCH   1  13
TORSDOF 7
ENDMDL
MODEL 7
REMARK VINA RESULT:      -7.5      2.636      5.428
REMARK  7 active torsions:
REMARK  status: ('A' for Active; 'I' for Inactive)
REMARK       I    between atoms: N1_2  and  C2_3 
REMARK    1  A    between atoms: C2_3  and  C3_5 
REMARK    2  A    between atoms: C5_8  and  C6_9 
REMARK    3  A    between atoms: C6_9  and  C7_10 
REMARK    4  A    between atoms: C7_10  and  C8_11 
REMARK    5  A    between atoms: C9_12  and  C10_13 
REMARK    6  A    between atoms: C10_13  and  C11_14 
REMARK    7  A    between atoms: C11_14  and  C12_16 
ROOT
HETATM    1  C7  UNL     1      22.573   3.368  51.675  1.00  0.00     0.031 C 
ENDROOT
BRANCH   1   2
HETATM    2  C6  UNL     1      23.530   3.049  52.779  1.00  0.00     0.040 C 
BRANCH   2   3
HETATM    3  C5  UNL     1      24.907   2.772  52.397  1.00  0.00    -0.058 A 
HETATM    4  C4  UNL     1      25.797   2.886  51.222  1.00  0.00     0.184 A 
HETATM    5  N2  UNL     1      27.046   2.331  51.684  1.00  0.00    -0.280 NA
HETATM    6  C3  UNL     1      27.042   1.934  52.877  1.00  0.00     0.119 A 
HETATM    7  C18 UNL     1      25.693   2.207  53.340  1.00  0.00     0.041 A 
BRANCH   6   8
HETATM    8  C2  UNL     1      28.196   1.343  53.536  1.00  0.00     0.269 C 
HETATM    9  N1  UNL     1      28.544  -0.003  53.257  1.00  0.00    -0.360 N 
HETATM   10  C1  UNL     1      29.675  -0.637  53.881  1.00  0.00     0.149 C 
HETATM   11  H4  UNL     1      27.972  -0.555  52.581  1.00  0.00     0.162 HD
HETATM   12  O1  UNL     1      28.874   2.019  54.343  1.00  0.00    -0.266 OA
ENDBRANCH   6   8
ENDBRANCH   2   3
ENDBRANCH   1   2
BRANCH   1  13
HETATM   13  C8  UNL     1      21.213   3.603  52.196  1.00  0.00    -0.030 C 
HETATM   14  C9  UNL     1      20.162   2.825  51.821  1.00  0.00    -0.023 C 
BRANCH  14  15
HETATM   15  C10 UNL     1      19.997   1.637  50.896  1.00  0.00     0.110 C 
BRANCH  15  16
HETATM   16  C11 UNL     1      19.935   0.435  51.784  1.00  0.00     0.163 C 
HETATM   17  O2  UNL     1      18.803  -0.073  51.614  1.00  0.00    -0.292 OA
BRANCH  16  18
HETATM   18  C12 UNL     1      21.006  -0.010  52.653  1.00  0.00     0.010 A 
HETATM   19  C13 UNL     1      22.307  -0.269  52.325  1.00  0.00     0.015 A 
HETATM   20  C14 UNL     1      23.225  -0.689  53.274  1.00  0.00     0.001 A 
HETATM   21  C15 UNL     1      22.851  -0.859  54.596  1.00  0.00     0.000 A 
HETATM   22  C16 UNL     1      21.552  -0.601  54.919  1.00  0.00     0.001 A 
HETATM   23  C17 UNL     1      20.642  -0.186  53.981  1.00  0.00     0.015 A 
ENDBRANCH  16  18
ENDBRANCH  15  16
ENDBRANCH  14  15
ENDBRANCH   1  13
TORSDOF 7
ENDMDL
MODEL 8
REMARK VINA RESULT:      -7.4      2.447      5.508
REMARK  7 active torsions:
REMARK  status: ('A' for Active; 'I' for Inactive)
REMARK       I    between atoms: N1_2  and  C2_3 
REMARK    1  A    between atoms: C2_3  and  C3_5 
REMARK    2  A    between atoms: C5_8  and  C6_9 
REMARK    3  A    between atoms: C6_9  and  C7_10 
REMARK    4  A    between atoms: C7_10  and  C8_11 
REMARK    5  A    between atoms: C9_12  and  C10_13 
REMARK    6  A    between atoms: C10_13  and  C11_14 
REMARK    7  A    between atoms: C11_14  and  C12_16 
ROOT
HETATM    1  C7  UNL     1      22.306   2.744  49.601  1.00  0.00     0.031 C 
ENDROOT
BRANCH   1   2
HETATM    2  C6  UNL     1      23.770   2.893  49.869  1.00  0.00     0.040 C 
BRANCH   2   3
HETATM    3  C5  UNL     1      24.188   2.892  51.263  1.00  0.00    -0.058 A 
HETATM    4  C4  UNL     1      23.809   3.500  52.556  1.00  0.00     0.184 A 
HETATM    5  N2  UNL     1      24.796   2.991  53.477  1.00  0.00    -0.280 NA
HETATM    6  C3  UNL     1      25.647   2.218  52.969  1.00  0.00     0.119 A 
HETATM    7  C18 UNL     1      25.274   2.147  51.567  1.00  0.00     0.041 A 
BRANCH   6   8
HETATM    8  C2  UNL     1      26.725   1.597  53.721  1.00  0.00     0.269 C 
HETATM    9  N1  UNL     1      27.992   1.423  53.106  1.00  0.00    -0.360 N 
HETATM   10  C1  UNL     1      29.094   0.814  53.805  1.00  0.00     0.149 C 
HETATM   11  H4  UNL     1      28.139   1.743  52.125  1.00  0.00     0.162 HD
HETATM   12  O1  UNL     1      26.535   1.219  54.899  1.00  0.00    -0.266 OA
ENDBRANCH   6   8
ENDBRANCH   2   3
ENDBRANCH   1   2
BRANCH   1  13
HETATM   13  C8  UNL     1      21.905   1.326  49.589  1.00  0.00    -0.030 C 
HETATM   14  C9  UNL     1      20.810   0.888  50.267  1.00  0.00    -0.023 C 
BRANCH  14  15
HETATM   15  C10 UNL     1      19.766   1.554  51.139  1.00  0.00     0.110 C 
BRANCH  15  16
HETATM   16  C11 UNL     1      20.373   1.643  52.503  1.00  0.00     0.163 C 
HETATM   17  O2  UNL     1      20.190   2.819  52.895  1.00  0.00    -0.292 OA
BRANCH  16  18
HETATM   18  C12 UNL     1      21.033   0.551  53.191  1.00  0.00     0.010 A 
HETATM   19  C13 UNL     1      22.363   0.412  53.470  1.00  0.00     0.015 A 
HETATM   20  C14 UNL     1      22.851  -0.696  54.144  1.00  0.00     0.001 A 
HETATM   21  C15 UNL     1      21.999  -1.705  54.559  1.00  0.00     0.000 A 
HETATM   22  C16 UNL     1      20.673  -1.562  54.278  1.00  0.00     0.001 A 
HETATM   23  C17 UNL     1      20.189  -0.466  53.611  1.00  0.00     0.015 A 
ENDBRANCH  16  18
ENDBRANCH  15  16
ENDBRANCH  14  15
ENDBRANCH   1  13
TORSDOF 7
ENDMDL
MODEL 9
REMARK VINA RESULT:      -7.4      2.818      6.737
REMARK  7 active torsions:
REMARK  status: ('A' for Active; 'I' for Inactive)
REMARK       I    between atoms: N1_2  and  C2_3 
REMARK    1  A    between atoms: C2_3  and  C3_5 
REMARK    2  A    between atoms: C5_8  and  C6_9 
REMARK    3  A    between atoms: C6_9  and  C7_10 
REMARK    4  A    between atoms: C7_10  and  C8_11 
REMARK    5  A    between atoms: C9_12  and  C10_13 
REMARK    6  A    between atoms: C10_13  and  C11_14 
REMARK    7  A    between atoms: C11_14  and  C12_16 
ROOT
HETATM    1  C7  UNL     1      23.100   3.095  51.446  1.00  0.00     0.031 C 
ENDROOT
BRANCH   1   2
HETATM    2  C6  UNL     1      23.657   2.844  50.081  1.00  0.00     0.040 C 
BRANCH   2   3
HETATM    3  C5  UNL     1      24.995   3.350  49.813  1.00  0.00    -0.058 A 
HETATM    4  C4  UNL     1      26.407   2.931  49.944  1.00  0.00     0.184 A 
HETATM    5  N2  UNL     1      27.149   4.073  49.468  1.00  0.00    -0.280 NA
HETATM    6  C3  UNL     1      26.445   5.044  49.092  1.00  0.00     0.119 A 
HETATM    7  C18 UNL     1      25.079   4.599  49.306  1.00  0.00     0.041 A 
BRANCH   6   8
HETATM    8  C2  UNL     1      26.993   6.290  48.579  1.00  0.00     0.269 C 
HETATM    9  N1  UNL     1      28.325   6.651  48.908  1.00  0.00    -0.360 N 
HETATM   10  C1  UNL     1      28.917   7.872  48.427  1.00  0.00     0.149 C 
HETATM   11  H4  UNL     1      28.897   6.022  49.511  1.00  0.00     0.162 HD
HETATM   12  O1  UNL     1      26.294   7.034  47.855  1.00  0.00    -0.266 OA
ENDBRANCH   6   8
ENDBRANCH   2   3
ENDBRANCH   1   2
BRANCH   1  13
HETATM   13  C8  UNL     1      22.739   1.833  52.118  1.00  0.00    -0.030 C 
HETATM   14  C9  UNL     1      23.648   1.124  52.841  1.00  0.00    -0.023 C 
BRANCH  14  15
HETATM   15  C10 UNL     1      25.113   1.311  53.178  1.00  0.00     0.110 C 
BRANCH  15  16
HETATM   16  C11 UNL     1      25.667  -0.066  53.363  1.00  0.00     0.163 C 
HETATM   17  O2  UNL     1      24.682  -0.836  53.439  1.00  0.00    -0.292 OA
BRANCH  16  18
HETATM   18  C12 UNL     1      27.078  -0.391  53.435  1.00  0.00     0.010 A 
HETATM   19  C13 UNL     1      27.708  -1.518  52.989  1.00  0.00     0.015 A 
HETATM   20  C14 UNL     1      29.077  -1.687  53.127  1.00  0.00     0.001 A 
HETATM   21  C15 UNL     1      29.855  -0.710  53.724  1.00  0.00     0.000 A 
HETATM   22  C16 UNL     1      29.222   0.413  54.168  1.00  0.00     0.001 A 
HETATM   23  C17 UNL     1      27.868   0.581  54.033  1.00  0.00     0.015 A 
ENDBRANCH  16  18
ENDBRANCH  15  16
ENDBRANCH  14  15
ENDBRANCH   1  13
TORSDOF 7
ENDMDL
