MODEL 1
REMARK VINA RESULT:      -8.2      0.000      0.000
REMARK  1 active torsions:
REMARK  status: ('A' for Active; 'I' for Inactive)
REMARK    1  A    between atoms: C6_7  and  C7_8 
ROOT
HETATM    1  C1  UNL     1      30.068  -0.842  53.734  1.00  0.00     0.070 C 
HETATM    2  C2  UNL     1      28.602  -0.650  53.797  1.00  0.00     0.033 C 
HETATM    3  C3  UNL     1      28.397   0.207  54.753  1.00  0.00     0.108 C 
HETATM    4  N1  UNL     1      27.276   0.771  54.698  1.00  0.00    -0.257 NA
HETATM    5  C4  UNL     1      26.955   1.737  53.750  1.00  0.00     0.119 C 
HETATM    6  C5  UNL     1      26.033   2.220  52.881  1.00  0.00     0.051 C 
HETATM    7  C6  UNL     1      24.663   2.070  52.285  1.00  0.00     0.065 C 
HETATM    8  N3  UNL     1      23.916   0.935  52.485  1.00  0.00    -0.274 NA
HETATM    9  C12 UNL     1      24.680   0.029  53.299  1.00  0.00     0.098 A 
HETATM   10  C13 UNL     1      25.746  -0.049  52.505  1.00  0.00     0.060 A 
HETATM   11  C14 UNL     1      26.153  -0.856  53.634  1.00  0.00     0.076 A 
HETATM   12  C15 UNL     1      25.113  -0.798  54.375  1.00  0.00     0.027 A 
HETATM   13  C16 UNL     1      24.366  -1.147  55.581  1.00  0.00     0.022 C 
HETATM   14  N4  UNL     1      27.426  -1.101  53.158  1.00  0.00    -0.378 N 
HETATM   15  H14 UNL     1      27.853  -1.554  52.376  1.00  0.00     0.160 HD
ENDROOT
BRANCH   7  16
HETATM   16  C7  UNL     1      24.132   3.046  51.365  1.00  0.00     0.010 A 
HETATM   17  C8  UNL     1      24.033   2.934  49.996  1.00  0.00     0.017 A 
HETATM   18  C9  UNL     1      23.507   3.885  49.167  1.00  0.00     0.020 A 
HETATM   19  C10 UNL     1      23.045   5.031  49.760  1.00  0.00     0.116 A 
HETATM   20  N2  UNL     1      23.140   5.142  51.090  1.00  0.00    -0.272 NA
HETATM   21  C11 UNL     1      23.656   4.209  51.900  1.00  0.00     0.130 A 
ENDBRANCH   7  16
TORSDOF 1
ENDMDL
MODEL 2
REMARK VINA RESULT:      -8.2      1.759      6.132
REMARK  1 active torsions:
REMARK  status: ('A' for Active; 'I' for Inactive)
REMARK    1  A    between atoms: C6_7  and  C7_8 
ROOT
HETATM    1  C1  UNL     1      24.164   6.613  51.207  1.00  0.00     0.070 C 
HETATM    2  C2  UNL     1      23.996   5.173  51.503  1.00  0.00     0.033 C 
HETATM    3  C3  UNL     1      24.077   4.563  50.357  1.00  0.00     0.108 C 
HETATM    4  N1  UNL     1      24.338   3.338  50.452  1.00  0.00    -0.257 NA
HETATM    5  C4  UNL     1      25.591   2.851  50.811  1.00  0.00     0.119 C 
HETATM    6  C5  UNL     1      26.300   1.954  51.538  1.00  0.00     0.051 C 
HETATM    7  C6  UNL     1      26.264   0.809  52.510  1.00  0.00     0.065 C 
HETATM    8  N3  UNL     1      25.108   0.460  53.163  1.00  0.00    -0.274 NA
HETATM    9  C12 UNL     1      24.065   1.359  52.745  1.00  0.00     0.098 A 
HETATM   10  C13 UNL     1      24.671   2.491  53.097  1.00  0.00     0.060 A 
HETATM   11  C14 UNL     1      23.456   2.980  52.485  1.00  0.00     0.076 A 
HETATM   12  C15 UNL     1      22.869   1.886  52.178  1.00  0.00     0.027 A 
HETATM   13  C16 UNL     1      21.748   1.135  51.619  1.00  0.00     0.022 C 
HETATM   14  N4  UNL     1      23.785   4.315  52.605  1.00  0.00    -0.378 N 
HETATM   15  H14 UNL     1      23.964   4.974  53.336  1.00  0.00     0.160 HD
ENDROOT
BRANCH   7  16
HETATM   16  C7  UNL     1      27.468   0.120  52.905  1.00  0.00     0.010 A 
HETATM   17  C8  UNL     1      28.669   0.684  53.275  1.00  0.00     0.017 A 
HETATM   18  C9  UNL     1      29.780  -0.016  53.657  1.00  0.00     0.020 A 
HETATM   19  C10 UNL     1      29.674  -1.382  53.667  1.00  0.00     0.116 A 
HETATM   20  N2  UNL     1      28.508  -1.932  53.308  1.00  0.00    -0.272 NA
HETATM   21  C11 UNL     1      27.422  -1.245  52.935  1.00  0.00     0.130 A 
ENDBRANCH   7  16
TORSDOF 1
ENDMDL
MODEL 3
REMARK VINA RESULT:      -7.8      2.359      4.353
REMARK  1 active torsions:
REMARK  status: ('A' for Active; 'I' for Inactive)
REMARK    1  A    between atoms: C6_7  and  C7_8 
ROOT
HETATM    1  C1  UNL     1      29.410   1.371  54.866  1.00  0.00     0.070 C 
HETATM    2  C2  UNL     1      28.308   1.605  53.906  1.00  0.00     0.033 C 
HETATM    3  C3  UNL     1      28.389   0.644  53.033  1.00  0.00     0.108 C 
HETATM    4  N1  UNL     1      27.331   0.461  52.381  1.00  0.00    -0.257 NA
HETATM    5  C4  UNL     1      26.190  -0.117  52.927  1.00  0.00     0.119 C 
HETATM    6  C5  UNL     1      24.838  -0.092  53.036  1.00  0.00     0.051 C 
HETATM    7  C6  UNL     1      23.556   0.587  52.650  1.00  0.00     0.065 C 
HETATM    8  N3  UNL     1      23.553   1.809  52.025  1.00  0.00    -0.274 NA
HETATM    9  C12 UNL     1      24.917   2.235  51.859  1.00  0.00     0.098 A 
HETATM   10  C13 UNL     1      25.263   2.184  53.143  1.00  0.00     0.060 A 
HETATM   11  C14 UNL     1      26.512   2.547  52.510  1.00  0.00     0.076 A 
HETATM   12  C15 UNL     1      26.161   2.622  51.283  1.00  0.00     0.027 A 
HETATM   13  C16 UNL     1      26.442   2.878  49.872  1.00  0.00     0.022 C 
HETATM   14  N4  UNL     1      27.255   2.516  53.673  1.00  0.00    -0.378 N 
HETATM   15  H14 UNL     1      27.285   2.997  54.549  1.00  0.00     0.160 HD
ENDROOT
BRANCH   7  16
HETATM   16  C7  UNL     1      22.275   0.054  53.044  1.00  0.00     0.010 A 
HETATM   17  C8  UNL     1      22.037  -1.079  53.791  1.00  0.00     0.017 A 
HETATM   18  C9  UNL     1      20.799  -1.536  54.151  1.00  0.00     0.020 A 
HETATM   19  C10 UNL     1      19.724  -0.799  53.729  1.00  0.00     0.116 A 
HETATM   20  N2  UNL     1      19.953   0.302  53.003  1.00  0.00    -0.272 NA
HETATM   21  C11 UNL     1      21.165   0.748  52.651  1.00  0.00     0.130 A 
ENDBRANCH   7  16
TORSDOF 1
ENDMDL
MODEL 4
REMARK VINA RESULT:      -7.3      1.863      6.764
REMARK  1 active torsions:
REMARK  status: ('A' for Active; 'I' for Inactive)
REMARK    1  A    between atoms: C6_7  and  C7_8 
ROOT
HETATM    1  C1  UNL     1      20.395   3.999  50.146  1.00  0.00     0.070 C 
HETATM    2  C2  UNL     1      21.869   4.100  50.075  1.00  0.00     0.033 C 
HETATM    3  C3  UNL     1      22.214   4.918  51.026  1.00  0.00     0.108 C 
HETATM    4  N1  UNL     1      23.422   4.828  51.359  1.00  0.00    -0.257 NA
HETATM    5  C4  UNL     1      23.935   3.756  52.081  1.00  0.00     0.119 C 
HETATM    6  C5  UNL     1      24.946   2.866  52.240  1.00  0.00     0.051 C 
HETATM    7  C6  UNL     1      26.274   2.367  51.747  1.00  0.00     0.065 C 
HETATM    8  N3  UNL     1      26.791   2.777  50.544  1.00  0.00    -0.274 NA
HETATM    9  C12 UNL     1      25.857   3.688  49.938  1.00  0.00     0.098 A 
HETATM   10  C13 UNL     1      24.809   2.866  49.926  1.00  0.00     0.060 A 
HETATM   11  C14 UNL     1      24.238   4.087  49.403  1.00  0.00     0.076 A 
HETATM   12  C15 UNL     1      25.258   4.858  49.390  1.00  0.00     0.027 A 
HETATM   13  C16 UNL     1      25.906   6.139  49.114  1.00  0.00     0.022 C 
HETATM   14  N4  UNL     1      22.950   3.597  49.320  1.00  0.00    -0.378 N 
HETATM   15  H14 UNL     1      22.459   2.876  48.830  1.00  0.00     0.160 HD
ENDROOT
BRANCH   7  16
HETATM   16  C7  UNL     1      26.994   1.331  52.446  1.00  0.00     0.010 A 
HETATM   17  C8  UNL     1      26.810  -0.031  52.340  1.00  0.00     0.017 A 
HETATM   18  C9  UNL     1      27.531  -0.975  53.015  1.00  0.00     0.020 A 
HETATM   19  C10 UNL     1      28.509  -0.516  53.858  1.00  0.00     0.116 A 
HETATM   20  N2  UNL     1      28.690   0.805  53.963  1.00  0.00    -0.272 NA
HETATM   21  C11 UNL     1      27.983   1.729  53.301  1.00  0.00     0.130 A 
ENDBRANCH   7  16
TORSDOF 1
ENDMDL
MODEL 5
REMARK VINA RESULT:      -7.3      2.136      6.257
REMARK  1 active torsions:
REMARK  status: ('A' for Active; 'I' for Inactive)
REMARK    1  A    between atoms: C6_7  and  C7_8 
ROOT
HETATM    1  C1  UNL     1      25.435   6.924  50.396  1.00  0.00     0.070 C 
HETATM    2  C2  UNL     1      24.754   5.622  50.226  1.00  0.00     0.033 C 
HETATM    3  C3  UNL     1      25.630   4.832  49.680  1.00  0.00     0.108 C 
HETATM    4  N1  UNL     1      25.365   3.611  49.811  1.00  0.00    -0.257 NA
HETATM    5  C4  UNL     1      25.489   2.930  51.018  1.00  0.00     0.119 C 
HETATM    6  C5  UNL     1      24.955   2.030  51.880  1.00  0.00     0.051 C 
HETATM    7  C6  UNL     1      23.820   1.093  52.180  1.00  0.00     0.065 C 
HETATM    8  N3  UNL     1      22.662   1.112  51.444  1.00  0.00    -0.274 NA
HETATM    9  C12 UNL     1      22.782   2.135  50.440  1.00  0.00     0.098 A 
HETATM   10  C13 UNL     1      23.021   3.151  51.266  1.00  0.00     0.060 A 
HETATM   11  C14 UNL     1      23.133   3.785  49.972  1.00  0.00     0.076 A 
HETATM   12  C15 UNL     1      22.873   2.809  49.188  1.00  0.00     0.027 A 
HETATM   13  C16 UNL     1      22.678   2.237  47.858  1.00  0.00     0.022 C 
HETATM   14  N4  UNL     1      23.500   5.020  50.469  1.00  0.00    -0.378 N 
HETATM   15  H14 UNL     1      23.108   5.734  51.050  1.00  0.00     0.160 HD
ENDROOT
BRANCH   7  16
HETATM   16  C7  UNL     1      23.842   0.233  53.338  1.00  0.00     0.010 A 
HETATM   17  C8  UNL     1      22.758  -0.292  54.007  1.00  0.00     0.017 A 
HETATM   18  C9  UNL     1      22.832  -1.116  55.095  1.00  0.00     0.020 A 
HETATM   19  C10 UNL     1      24.087  -1.437  55.541  1.00  0.00     0.116 A 
HETATM   20  N2  UNL     1      25.142  -0.928  54.892  1.00  0.00    -0.272 NA
HETATM   21  C11 UNL     1      25.067  -0.121  53.827  1.00  0.00     0.130 A 
ENDBRANCH   7  16
TORSDOF 1
ENDMDL
MODEL 6
REMARK VINA RESULT:      -7.1      3.133      5.543
REMARK  1 active torsions:
REMARK  status: ('A' for Active; 'I' for Inactive)
REMARK    1  A    between atoms: C6_7  and  C7_8 
ROOT
HETATM    1  C1  UNL     1      18.430   1.756  51.492  1.00  0.00     0.070 C 
HETATM    2  C2  UNL     1      19.875   1.597  51.763  1.00  0.00     0.033 C 
HETATM    3  C3  UNL     1      20.292   0.680  50.940  1.00  0.00     0.108 C 
HETATM    4  N1  UNL     1      21.535   0.686  50.761  1.00  0.00    -0.257 NA
HETATM    5  C4  UNL     1      22.195   1.663  50.023  1.00  0.00     0.119 C 
HETATM    6  C5  UNL     1      23.266   2.488  49.922  1.00  0.00     0.051 C 
HETATM    7  C6  UNL     1      24.546   2.971  50.540  1.00  0.00     0.065 C 
HETATM    8  N3  UNL     1      24.884   2.650  51.831  1.00  0.00    -0.274 NA
HETATM    9  C12 UNL     1      23.830   1.842  52.386  1.00  0.00     0.098 A 
HETATM   10  C13 UNL     1      22.838   2.707  52.189  1.00  0.00     0.060 A 
HETATM   11  C14 UNL     1      22.138   1.565  52.736  1.00  0.00     0.076 A 
HETATM   12  C15 UNL     1      23.102   0.754  52.948  1.00  0.00     0.027 A 
HETATM   13  C16 UNL     1      23.637  -0.523  53.415  1.00  0.00     0.022 C 
HETATM   14  N4  UNL     1      20.879   2.119  52.608  1.00  0.00    -0.378 N 
HETATM   15  H14 UNL     1      20.371   2.902  52.966  1.00  0.00     0.160 HD
ENDROOT
BRANCH   7  16
HETATM   16  C7  UNL     1      25.406   3.905  49.856  1.00  0.00     0.010 A 
HETATM   17  C8  UNL     1      25.095   5.185  49.453  1.00  0.00     0.017 A 
HETATM   18  C9  UNL     1      25.953   6.039  48.818  1.00  0.00     0.020 A 
HETATM   19  C10 UNL     1      27.216   5.570  48.571  1.00  0.00     0.116 A 
HETATM   20  N2  UNL     1      27.522   4.327  48.961  1.00  0.00    -0.272 NA
HETATM   21  C11 UNL     1      26.680   3.492  49.582  1.00  0.00     0.130 A 
ENDBRANCH   7  16
TORSDOF 1
ENDMDL
MODEL 7
REMARK VINA RESULT:      -6.9      8.775      9.962
REMARK  1 active torsions:
REMARK  status: ('A' for Active; 'I' for Inactive)
REMARK    1  A    between atoms: C6_7  and  C7_8 
ROOT
HETATM    1  C1  UNL     1      34.192   5.329  42.920  1.00  0.00     0.070 C 
HETATM    2  C2  UNL     1      33.892   5.326  44.368  1.00  0.00     0.033 C 
HETATM    3  C3  UNL     1      34.037   6.557  44.763  1.00  0.00     0.108 C 
HETATM    4  N1  UNL     1      33.465   6.811  45.852  1.00  0.00    -0.257 NA
HETATM    5  C4  UNL     1      32.084   6.923  45.978  1.00  0.00     0.119 C 
HETATM    6  C5  UNL     1      30.978   6.635  46.708  1.00  0.00     0.051 C 
HETATM    7  C6  UNL     1      30.413   5.970  47.930  1.00  0.00     0.065 C 
HETATM    8  N3  UNL     1      31.172   5.122  48.699  1.00  0.00    -0.274 NA
HETATM    9  C12 UNL     1      32.482   5.031  48.112  1.00  0.00     0.098 A 
HETATM   10  C13 UNL     1      32.094   4.614  46.909  1.00  0.00     0.060 A 
HETATM   11  C14 UNL     1      33.524   4.748  46.734  1.00  0.00     0.076 A 
HETATM   12  C15 UNL     1      33.888   5.120  47.902  1.00  0.00     0.027 A 
HETATM   13  C16 UNL     1      34.907   5.506  48.875  1.00  0.00     0.022 C 
HETATM   14  N4  UNL     1      33.516   4.428  45.391  1.00  0.00    -0.378 N 
HETATM   15  H14 UNL     1      33.279   3.646  44.814  1.00  0.00     0.160 HD
ENDROOT
BRANCH   7  16
HETATM   16  C7  UNL     1      29.015   6.080  48.268  1.00  0.00     0.010 A 
HETATM   17  C8  UNL     1      28.134   5.051  48.516  1.00  0.00     0.017 A 
HETATM   18  C9  UNL     1      26.817   5.209  48.848  1.00  0.00     0.020 A 
HETATM   19  C10 UNL     1      26.354   6.495  48.937  1.00  0.00     0.116 A 
HETATM   20  N2  UNL     1      27.209   7.497  48.695  1.00  0.00    -0.272 NA
HETATM   21  C11 UNL     1      28.498   7.340  48.371  1.00  0.00     0.130 A 
ENDBRANCH   7  16
TORSDOF 1
ENDMDL
MODEL 8
REMARK VINA RESULT:      -6.8      2.138      6.677
REMARK  1 active torsions:
REMARK  status: ('A' for Active; 'I' for Inactive)
REMARK    1  A    between atoms: C6_7  and  C7_8 
ROOT
HETATM    1  C1  UNL     1      26.729   8.470  50.090  1.00  0.00     0.070 C 
HETATM    2  C2  UNL     1      25.703   7.411  50.217  1.00  0.00     0.033 C 
HETATM    3  C3  UNL     1      25.697   6.785  49.077  1.00  0.00     0.108 C 
HETATM    4  N1  UNL     1      25.180   5.642  49.129  1.00  0.00    -0.257 NA
HETATM    5  C4  UNL     1      25.797   4.553  49.736  1.00  0.00     0.119 C 
HETATM    6  C5  UNL     1      25.664   3.465  50.534  1.00  0.00     0.051 C 
HETATM    7  C6  UNL     1      24.746   2.620  51.370  1.00  0.00     0.065 C 
HETATM    8  N3  UNL     1      23.482   3.043  51.695  1.00  0.00    -0.274 NA
HETATM    9  C12 UNL     1      23.279   4.345  51.117  1.00  0.00     0.098 A 
HETATM   10  C13 UNL     1      24.314   4.947  51.697  1.00  0.00     0.060 A 
HETATM   11  C14 UNL     1      23.789   5.999  50.855  1.00  0.00     0.076 A 
HETATM   12  C15 UNL     1      22.779   5.420  50.327  1.00  0.00     0.027 A 
HETATM   13  C16 UNL     1      21.607   5.409  49.455  1.00  0.00     0.022 C 
HETATM   14  N4  UNL     1      24.780   6.910  51.161  1.00  0.00    -0.378 N 
HETATM   15  H14 UNL     1      25.119   7.398  51.966  1.00  0.00     0.160 HD
ENDROOT
BRANCH   7  16
HETATM   16  C7  UNL     1      25.200   1.396  51.982  1.00  0.00     0.010 A 
HETATM   17  C8  UNL     1      24.479   0.556  52.802  1.00  0.00     0.017 A 
HETATM   18  C9  UNL     1      24.953  -0.605  53.348  1.00  0.00     0.020 A 
HETATM   19  C10 UNL     1      26.245  -0.945  53.046  1.00  0.00     0.116 A 
HETATM   20  N2  UNL     1      26.948  -0.130  52.249  1.00  0.00    -0.272 NA
HETATM   21  C11 UNL     1      26.482   1.005  51.716  1.00  0.00     0.130 A 
ENDBRANCH   7  16
TORSDOF 1
ENDMDL
MODEL 9
REMARK VINA RESULT:      -6.8      2.315      4.080
REMARK  1 active torsions:
REMARK  status: ('A' for Active; 'I' for Inactive)
REMARK    1  A    between atoms: C6_7  and  C7_8 
ROOT
HETATM    1  C1  UNL     1      21.126   0.243  54.498  1.00  0.00     0.070 C 
HETATM    2  C2  UNL     1      22.457   0.292  53.856  1.00  0.00     0.033 C 
HETATM    3  C3  UNL     1      22.306  -0.253  52.685  1.00  0.00     0.108 C 
HETATM    4  N1  UNL     1      23.214   0.041  51.867  1.00  0.00    -0.257 NA
HETATM    5  C4  UNL     1      23.332   1.296  51.279  1.00  0.00     0.119 C 
HETATM    6  C5  UNL     1      24.154   2.305  50.898  1.00  0.00     0.051 C 
HETATM    7  C6  UNL     1      25.561   2.827  50.831  1.00  0.00     0.065 C 
HETATM    8  N3  UNL     1      26.583   2.220  51.518  1.00  0.00    -0.274 NA
HETATM    9  C12 UNL     1      26.039   1.101  52.241  1.00  0.00     0.098 A 
HETATM   10  C13 UNL     1      25.128   1.779  52.935  1.00  0.00     0.060 A 
HETATM   11  C14 UNL     1      24.863   0.418  53.342  1.00  0.00     0.076 A 
HETATM   12  C15 UNL     1      25.761  -0.220  52.694  1.00  0.00     0.027 A 
HETATM   13  C16 UNL     1      26.454  -1.450  52.317  1.00  0.00     0.022 C 
HETATM   14  N4  UNL     1      23.772   0.733  54.127  1.00  0.00    -0.378 N 
HETATM   15  H14 UNL     1      23.576   1.268  54.949  1.00  0.00     0.160 HD
ENDROOT
BRANCH   7  16
HETATM   16  C7  UNL     1      25.872   4.064  50.159  1.00  0.00     0.010 A 
HETATM   17  C8  UNL     1      26.883   4.288  49.250  1.00  0.00     0.017 A 
HETATM   18  C9  UNL     1      27.129   5.480  48.628  1.00  0.00     0.020 A 
HETATM   19  C10 UNL     1      26.296   6.523  48.943  1.00  0.00     0.116 A 
HETATM   20  N2  UNL     1      25.314   6.308  49.826  1.00  0.00    -0.272 NA
HETATM   21  C11 UNL     1      25.075   5.139  50.434  1.00  0.00     0.130 A 
ENDBRANCH   7  16
TORSDOF 1
ENDMDL
