MODEL 1
REMARK VINA RESULT:      -7.8      0.000      0.000
REMARK  5 active torsions:
REMARK  status: ('A' for Active; 'I' for Inactive)
REMARK    1  A    between atoms: C2_2  and  C7_9 
REMARK    2  A    between atoms: C3_3  and  C4_4 
REMARK    3  A    between atoms: C9_12  and  N3_13 
REMARK    4  A    between atoms: N3_13  and  C10_14 
REMARK    5  A    between atoms: C10_14  and  C11_15 
ROOT
HETATM    1  C7  UNL     1      24.259   1.861  51.726  1.00  0.00     0.072 A 
HETATM    2  C8  UNL     1      23.047   1.915  50.953  1.00  0.00     0.085 A 
HETATM    3  S1  UNL     1      23.265   3.410  50.053  1.00  0.00    -0.062 SA
HETATM    4  C9  UNL     1      24.958   3.785  50.824  1.00  0.00     0.167 A 
HETATM    5  N4  UNL     1      25.106   2.845  51.562  1.00  0.00    -0.224 NA
ENDROOT
BRANCH   1   6
HETATM    6  C2  UNL     1      24.491   0.745  52.637  1.00  0.00    -0.034 C 
HETATM    7  C1  UNL     1      23.394  -0.099  53.178  1.00  0.00     0.050 C 
HETATM    8  C3  UNL     1      25.734   0.478  52.994  1.00  0.00     0.009 C 
BRANCH   8   9
HETATM    9  C4  UNL     1      26.307  -0.533  53.861  1.00  0.00     0.129 C 
HETATM   10  C5  UNL     1      27.222   0.169  54.873  1.00  0.00     0.079 C 
HETATM   11  C6  UNL     1      28.590  -0.228  54.509  1.00  0.00     0.113 C 
HETATM   12  N1  UNL     1      28.555  -1.134  53.607  1.00  0.00    -0.195 NA
HETATM   13  N2  UNL     1      27.223  -1.454  53.261  1.00  0.00    -0.306 N 
HETATM   14  H9  UNL     1      27.255  -2.312  52.635  1.00  0.00     0.183 HD
ENDBRANCH   8   9
ENDBRANCH   1   6
BRANCH   4  15
HETATM   15  N3  UNL     1      25.630   4.967  50.417  1.00  0.00    -0.365 N 
HETATM   16  H11 UNL     1      26.170   5.375  51.207  1.00  0.00     0.162 HD
BRANCH  15  17
HETATM   17  C10 UNL     1      25.518   5.472  49.039  1.00  0.00     0.160 C 
BRANCH  17  18
HETATM   18  C11 UNL     1      26.840   5.873  48.561  1.00  0.00    -0.041 A 
HETATM   19  C12 UNL     1      27.915   5.020  48.588  1.00  0.00     0.009 A 
HETATM   20  C13 UNL     1      29.158   5.394  48.141  1.00  0.00     0.001 A 
HETATM   21  C14 UNL     1      29.370   6.664  47.638  1.00  0.00     0.000 A 
HETATM   22  C15 UNL     1      28.317   7.576  47.584  1.00  0.00     0.001 A 
HETATM   23  C16 UNL     1      27.072   7.151  48.051  1.00  0.00     0.009 A 
ENDBRANCH  17  18
ENDBRANCH  15  17
ENDBRANCH   4  15
TORSDOF 5
ENDMDL
MODEL 2
REMARK VINA RESULT:      -7.7      2.328      7.492
REMARK  5 active torsions:
REMARK  status: ('A' for Active; 'I' for Inactive)
REMARK    1  A    between atoms: C2_2  and  C7_9 
REMARK    2  A    between atoms: C3_3  and  C4_4 
REMARK    3  A    between atoms: C9_12  and  N3_13 
REMARK    4  A    between atoms: N3_13  and  C10_14 
REMARK    5  A    between atoms: C10_14  and  C11_15 
ROOT
HETATM    1  C7  UNL     1      26.360   4.669  49.292  1.00  0.00     0.072 A 
HETATM    2  C8  UNL     1      24.929   4.745  49.169  1.00  0.00     0.085 A 
HETATM    3  S1  UNL     1      24.415   3.362  50.126  1.00  0.00    -0.062 SA
HETATM    4  C9  UNL     1      26.185   2.847  50.578  1.00  0.00     0.167 A 
HETATM    5  N4  UNL     1      26.838   3.687  50.013  1.00  0.00    -0.224 NA
ENDROOT
BRANCH   1   6
HETATM    6  C2  UNL     1      27.201   5.660  48.629  1.00  0.00    -0.034 C 
HETATM    7  C1  UNL     1      26.664   6.925  48.061  1.00  0.00     0.050 C 
HETATM    8  C3  UNL     1      28.495   5.417  48.530  1.00  0.00     0.009 C 
BRANCH   8   9
HETATM    9  C4  UNL     1      29.590   6.169  47.948  1.00  0.00     0.129 C 
HETATM   10  C5  UNL     1      30.756   5.202  47.706  1.00  0.00     0.079 C 
HETATM   11  C6  UNL     1      31.796   5.590  48.670  1.00  0.00     0.113 C 
HETATM   12  N1  UNL     1      31.464   6.678  49.254  1.00  0.00    -0.195 NA
HETATM   13  N2  UNL     1      30.217   7.147  48.783  1.00  0.00    -0.306 N 
HETATM   14  H9  UNL     1      30.073   8.121  49.182  1.00  0.00     0.183 HD
ENDBRANCH   8   9
ENDBRANCH   1   6
BRANCH   4  15
HETATM   15  N3  UNL     1      26.358   1.703  51.400  1.00  0.00    -0.365 N 
HETATM   16  H11 UNL     1      25.981   0.853  50.931  1.00  0.00     0.162 HD
BRANCH  15  17
HETATM   17  C10 UNL     1      26.996   1.802  52.721  1.00  0.00     0.160 C 
BRANCH  17  18
HETATM   18  C11 UNL     1      27.810   0.611  52.957  1.00  0.00    -0.041 A 
HETATM   19  C12 UNL     1      29.102   0.689  53.415  1.00  0.00     0.009 A 
HETATM   20  C13 UNL     1      29.870  -0.428  53.637  1.00  0.00     0.001 A 
HETATM   21  C14 UNL     1      29.355  -1.689  53.403  1.00  0.00     0.000 A 
HETATM   22  C15 UNL     1      28.050  -1.835  52.939  1.00  0.00     0.001 A 
HETATM   23  C16 UNL     1      27.308  -0.671  52.726  1.00  0.00     0.009 A 
ENDBRANCH  17  18
ENDBRANCH  15  17
ENDBRANCH   4  15
TORSDOF 5
ENDMDL
MODEL 3
REMARK VINA RESULT:      -7.2      2.741      6.893
REMARK  5 active torsions:
REMARK  status: ('A' for Active; 'I' for Inactive)
REMARK    1  A    between atoms: C2_2  and  C7_9 
REMARK    2  A    between atoms: C3_3  and  C4_4 
REMARK    3  A    between atoms: C9_12  and  N3_13 
REMARK    4  A    between atoms: N3_13  and  C10_14 
REMARK    5  A    between atoms: C10_14  and  C11_15 
ROOT
HETATM    1  C7  UNL     1      24.130   3.054  50.282  1.00  0.00     0.072 A 
HETATM    2  C8  UNL     1      23.695   4.041  49.331  1.00  0.00     0.085 A 
HETATM    3  S1  UNL     1      21.951   3.822  49.361  1.00  0.00    -0.062 SA
HETATM    4  C9  UNL     1      22.013   2.429  50.649  1.00  0.00     0.167 A 
HETATM    5  N4  UNL     1      23.197   2.335  50.852  1.00  0.00    -0.224 NA
ENDROOT
BRANCH   1   6
HETATM    6  C2  UNL     1      25.552   2.896  50.568  1.00  0.00    -0.034 C 
HETATM    7  C1  UNL     1      26.618   3.310  49.619  1.00  0.00     0.050 C 
HETATM    8  C3  UNL     1      25.901   2.361  51.724  1.00  0.00     0.009 C 
BRANCH   8   9
HETATM    9  C4  UNL     1      27.192   2.066  52.314  1.00  0.00     0.129 C 
HETATM   10  C5  UNL     1      27.283   0.550  52.531  1.00  0.00     0.079 C 
HETATM   11  C6  UNL     1      27.246   0.357  53.988  1.00  0.00     0.113 C 
HETATM   12  N1  UNL     1      27.322   1.488  54.579  1.00  0.00    -0.195 NA
HETATM   13  N2  UNL     1      27.418   2.544  53.644  1.00  0.00    -0.306 N 
HETATM   14  H9  UNL     1      27.637   3.430  54.188  1.00  0.00     0.183 HD
ENDBRANCH   8   9
ENDBRANCH   1   6
BRANCH   4  15
HETATM   15  N3  UNL     1      20.787   1.847  51.063  1.00  0.00    -0.365 N 
HETATM   16  H11 UNL     1      20.294   1.413  50.256  1.00  0.00     0.162 HD
BRANCH  15  17
HETATM   17  C10 UNL     1      20.353   1.900  52.468  1.00  0.00     0.160 C 
BRANCH  17  18
HETATM   18  C11 UNL     1      20.738   0.661  53.141  1.00  0.00    -0.041 A 
HETATM   19  C12 UNL     1      19.856  -0.376  53.318  1.00  0.00     0.009 A 
HETATM   20  C13 UNL     1      20.213  -1.542  53.951  1.00  0.00     0.001 A 
HETATM   21  C14 UNL     1      21.497  -1.711  54.436  1.00  0.00     0.000 A 
HETATM   22  C15 UNL     1      22.438  -0.695  54.285  1.00  0.00     0.001 A 
HETATM   23  C16 UNL     1      22.029   0.472  53.637  1.00  0.00     0.009 A 
ENDBRANCH  17  18
ENDBRANCH  15  17
ENDBRANCH   4  15
TORSDOF 5
ENDMDL
MODEL 4
REMARK VINA RESULT:      -7.1      3.185      7.742
REMARK  5 active torsions:
REMARK  status: ('A' for Active; 'I' for Inactive)
REMARK    1  A    between atoms: C2_2  and  C7_9 
REMARK    2  A    between atoms: C3_3  and  C4_4 
REMARK    3  A    between atoms: C9_12  and  N3_13 
REMARK    4  A    between atoms: N3_13  and  C10_14 
REMARK    5  A    between atoms: C10_14  and  C11_15 
ROOT
HETATM    1  C7  UNL     1      28.400   5.749  48.286  1.00  0.00     0.072 A 
HETATM    2  C8  UNL     1      27.437   6.816  48.242  1.00  0.00     0.085 A 
HETATM    3  S1  UNL     1      26.014   6.040  48.923  1.00  0.00    -0.062 SA
HETATM    4  C9  UNL     1      26.883   4.373  49.185  1.00  0.00     0.167 A 
HETATM    5  N4  UNL     1      27.991   4.605  48.773  1.00  0.00    -0.224 NA
ENDROOT
BRANCH   1   6
HETATM    6  C2  UNL     1      29.757   5.974  47.800  1.00  0.00    -0.034 C 
HETATM    7  C1  UNL     1      30.212   7.276  47.246  1.00  0.00     0.050 C 
HETATM    8  C3  UNL     1      30.616   4.972  47.856  1.00  0.00     0.009 C 
BRANCH   8   9
HETATM    9  C4  UNL     1      32.008   4.854  47.469  1.00  0.00     0.129 C 
HETATM   10  C5  UNL     1      32.084   3.954  46.229  1.00  0.00     0.079 C 
HETATM   11  C6  UNL     1      32.729   2.712  46.682  1.00  0.00     0.113 C 
HETATM   12  N1  UNL     1      33.156   2.856  47.879  1.00  0.00    -0.195 NA
HETATM   13  N2  UNL     1      32.871   4.151  48.368  1.00  0.00    -0.306 N 
HETATM   14  H9  UNL     1      33.383   4.260  49.292  1.00  0.00     0.183 HD
ENDBRANCH   8   9
ENDBRANCH   1   6
BRANCH   4  15
HETATM   15  N3  UNL     1      26.131   3.310  49.751  1.00  0.00    -0.365 N 
HETATM   16  H11 UNL     1      25.273   3.128  49.192  1.00  0.00     0.162 HD
BRANCH  15  17
HETATM   17  C10 UNL     1      26.586   2.618  50.967  1.00  0.00     0.160 C 
BRANCH  17  18
HETATM   18  C11 UNL     1      25.463   1.896  51.563  1.00  0.00    -0.041 A 
HETATM   19  C12 UNL     1      25.638   0.967  52.557  1.00  0.00     0.009 A 
HETATM   20  C13 UNL     1      24.585   0.287  53.119  1.00  0.00     0.001 A 
HETATM   21  C14 UNL     1      23.292   0.523  52.693  1.00  0.00     0.000 A 
HETATM   22  C15 UNL     1      23.048   1.456  51.687  1.00  0.00     0.001 A 
HETATM   23  C16 UNL     1      24.150   2.122  51.145  1.00  0.00     0.009 A 
ENDBRANCH  17  18
ENDBRANCH  15  17
ENDBRANCH   4  15
TORSDOF 5
ENDMDL
MODEL 5
REMARK VINA RESULT:      -7.1      4.444      8.196
REMARK  5 active torsions:
REMARK  status: ('A' for Active; 'I' for Inactive)
REMARK    1  A    between atoms: C2_2  and  C7_9 
REMARK    2  A    between atoms: C3_3  and  C4_4 
REMARK    3  A    between atoms: C9_12  and  N3_13 
REMARK    4  A    between atoms: N3_13  and  C10_14 
REMARK    5  A    between atoms: C10_14  and  C11_15 
ROOT
HETATM    1  C7  UNL     1      23.593   0.255  53.347  1.00  0.00     0.072 A 
HETATM    2  C8  UNL     1      23.686  -0.831  54.286  1.00  0.00     0.085 A 
HETATM    3  S1  UNL     1      21.990  -1.176  54.600  1.00  0.00    -0.062 SA
HETATM    4  C9  UNL     1      21.359   0.181  53.433  1.00  0.00     0.167 A 
HETATM    5  N4  UNL     1      22.389   0.648  53.018  1.00  0.00    -0.224 NA
ENDROOT
BRANCH   1   6
HETATM    6  C2  UNL     1      24.808   0.859  52.812  1.00  0.00    -0.034 C 
HETATM    7  C1  UNL     1      24.807   1.780  51.644  1.00  0.00     0.050 C 
HETATM    8  C3  UNL     1      25.958   0.572  53.394  1.00  0.00     0.009 C 
BRANCH   8   9
HETATM    9  C4  UNL     1      27.321   0.987  53.125  1.00  0.00     0.129 C 
HETATM   10  C5  UNL     1      28.238  -0.225  53.328  1.00  0.00     0.079 C 
HETATM   11  C6  UNL     1      29.023   0.072  54.536  1.00  0.00     0.113 C 
HETATM   12  N1  UNL     1      28.811   1.277  54.906  1.00  0.00    -0.195 NA
HETATM   13  N2  UNL     1      27.901   1.923  54.039  1.00  0.00    -0.306 N 
HETATM   14  H9  UNL     1      27.890   2.953  54.301  1.00  0.00     0.183 HD
ENDBRANCH   8   9
ENDBRANCH   1   6
BRANCH   4  15
HETATM   15  N3  UNL     1      19.955   0.348  53.301  1.00  0.00    -0.365 N 
HETATM   16  H11 UNL     1      19.713   1.354  53.191  1.00  0.00     0.162 HD
BRANCH  15  17
HETATM   17  C10 UNL     1      19.044  -0.807  53.329  1.00  0.00     0.160 C 
BRANCH  17  18
HETATM   18  C11 UNL     1      18.064  -0.676  52.252  1.00  0.00    -0.041 A 
HETATM   19  C12 UNL     1      18.344  -0.003  51.089  1.00  0.00     0.009 A 
HETATM   20  C13 UNL     1      17.425   0.122  50.075  1.00  0.00     0.001 A 
HETATM   21  C14 UNL     1      16.168  -0.439  50.196  1.00  0.00     0.000 A 
HETATM   22  C15 UNL     1      15.824  -1.136  51.352  1.00  0.00     0.001 A 
HETATM   23  C16 UNL     1      16.790  -1.236  52.356  1.00  0.00     0.009 A 
ENDBRANCH  17  18
ENDBRANCH  15  17
ENDBRANCH   4  15
TORSDOF 5
ENDMDL
MODEL 6
REMARK VINA RESULT:      -6.9      3.523      7.679
REMARK  5 active torsions:
REMARK  status: ('A' for Active; 'I' for Inactive)
REMARK    1  A    between atoms: C2_2  and  C7_9 
REMARK    2  A    between atoms: C3_3  and  C4_4 
REMARK    3  A    between atoms: C9_12  and  N3_13 
REMARK    4  A    between atoms: N3_13  and  C10_14 
REMARK    5  A    between atoms: C10_14  and  C11_15 
ROOT
HETATM    1  C7  UNL     1      29.141   6.152  47.937  1.00  0.00     0.072 A 
HETATM    2  C8  UNL     1      28.465   7.417  47.827  1.00  0.00     0.085 A 
HETATM    3  S1  UNL     1      26.879   7.032  48.482  1.00  0.00    -0.062 SA
HETATM    4  C9  UNL     1      27.314   5.216  48.826  1.00  0.00     0.167 A 
HETATM    5  N4  UNL     1      28.455   5.160  48.445  1.00  0.00    -0.224 NA
ENDROOT
BRANCH   1   6
HETATM    6  C2  UNL     1      30.525   6.026  47.491  1.00  0.00    -0.034 C 
HETATM    7  C1  UNL     1      31.290   7.155  46.900  1.00  0.00     0.050 C 
HETATM    8  C3  UNL     1      31.119   4.854  47.621  1.00  0.00     0.009 C 
BRANCH   8   9
HETATM    9  C4  UNL     1      32.453   4.392  47.290  1.00  0.00     0.129 C 
HETATM   10  C5  UNL     1      32.325   3.275  46.245  1.00  0.00     0.079 C 
HETATM   11  C6  UNL     1      32.720   2.040  46.938  1.00  0.00     0.113 C 
HETATM   12  N1  UNL     1      33.190   2.321  48.094  1.00  0.00    -0.195 NA
HETATM   13  N2  UNL     1      33.176   3.715  48.322  1.00  0.00    -0.306 N 
HETATM   14  H9  UNL     1      33.718   3.895  49.219  1.00  0.00     0.183 HD
ENDBRANCH   8   9
ENDBRANCH   1   6
BRANCH   4  15
HETATM   15  N3  UNL     1      26.314   4.387  49.399  1.00  0.00    -0.365 N 
HETATM   16  H11 UNL     1      25.437   4.924  49.557  1.00  0.00     0.162 HD
BRANCH  15  17
HETATM   17  C10 UNL     1      26.575   2.970  49.693  1.00  0.00     0.160 C 
BRANCH  17  18
HETATM   18  C11 UNL     1      26.220   2.690  51.083  1.00  0.00    -0.041 A 
HETATM   19  C12 UNL     1      24.941   2.853  51.555  1.00  0.00     0.009 A 
HETATM   20  C13 UNL     1      24.603   2.591  52.861  1.00  0.00     0.001 A 
HETATM   21  C14 UNL     1      25.558   2.147  53.756  1.00  0.00     0.000 A 
HETATM   22  C15 UNL     1      26.874   1.961  53.337  1.00  0.00     0.001 A 
HETATM   23  C16 UNL     1      27.170   2.241  52.001  1.00  0.00     0.009 A 
ENDBRANCH  17  18
ENDBRANCH  15  17
ENDBRANCH   4  15
TORSDOF 5
ENDMDL
MODEL 7
REMARK VINA RESULT:      -6.9      2.567      4.837
REMARK  5 active torsions:
REMARK  status: ('A' for Active; 'I' for Inactive)
REMARK    1  A    between atoms: C2_2  and  C7_9 
REMARK    2  A    between atoms: C3_3  and  C4_4 
REMARK    3  A    between atoms: C9_12  and  N3_13 
REMARK    4  A    between atoms: N3_13  and  C10_14 
REMARK    5  A    between atoms: C10_14  and  C11_15 
ROOT
HETATM    1  C7  UNL     1      24.322   1.095  52.357  1.00  0.00     0.072 A 
HETATM    2  C8  UNL     1      25.368   0.230  52.833  1.00  0.00     0.085 A 
HETATM    3  S1  UNL     1      26.807   1.067  52.266  1.00  0.00    -0.062 SA
HETATM    4  C9  UNL     1      25.831   2.479  51.457  1.00  0.00     0.167 A 
HETATM    5  N4  UNL     1      24.694   2.162  51.698  1.00  0.00    -0.224 NA
ENDROOT
BRANCH   1   6
HETATM    6  C2  UNL     1      22.926   0.760  52.620  1.00  0.00    -0.034 C 
HETATM    7  C1  UNL     1      22.507  -0.162  53.708  1.00  0.00     0.050 C 
HETATM    8  C3  UNL     1      21.998   1.303  51.853  1.00  0.00     0.009 C 
BRANCH   8   9
HETATM    9  C4  UNL     1      20.552   1.190  51.839  1.00  0.00     0.129 C 
HETATM   10  C5  UNL     1      20.046   1.718  50.490  1.00  0.00     0.079 C 
HETATM   11  C6  UNL     1      19.344   2.973  50.798  1.00  0.00     0.113 C 
HETATM   12  N1  UNL     1      19.241   3.115  52.064  1.00  0.00    -0.195 NA
HETATM   13  N2  UNL     1      19.831   2.027  52.746  1.00  0.00    -0.306 N 
HETATM   14  H9  UNL     1      19.575   2.121  53.774  1.00  0.00     0.183 HD
ENDBRANCH   8   9
ENDBRANCH   1   6
BRANCH   4  15
HETATM   15  N3  UNL     1      26.561   3.507  50.805  1.00  0.00    -0.365 N 
HETATM   16  H11 UNL     1      26.855   4.237  51.485  1.00  0.00     0.162 HD
BRANCH  15  17
HETATM   17  C10 UNL     1      26.818   3.459  49.357  1.00  0.00     0.160 C 
BRANCH  17  18
HETATM   18  C11 UNL     1      27.075   4.811  48.866  1.00  0.00    -0.041 A 
HETATM   19  C12 UNL     1      26.094   5.770  48.819  1.00  0.00     0.009 A 
HETATM   20  C13 UNL     1      26.332   7.041  48.358  1.00  0.00     0.001 A 
HETATM   21  C14 UNL     1      27.592   7.402  47.918  1.00  0.00     0.000 A 
HETATM   22  C15 UNL     1      28.631   6.474  47.942  1.00  0.00     0.001 A 
HETATM   23  C16 UNL     1      28.341   5.194  48.418  1.00  0.00     0.009 A 
ENDBRANCH  17  18
ENDBRANCH  15  17
ENDBRANCH   4  15
TORSDOF 5
ENDMDL
MODEL 8
REMARK VINA RESULT:      -6.9      5.255      9.003
REMARK  5 active torsions:
REMARK  status: ('A' for Active; 'I' for Inactive)
REMARK    1  A    between atoms: C2_2  and  C7_9 
REMARK    2  A    between atoms: C3_3  and  C4_4 
REMARK    3  A    between atoms: C9_12  and  N3_13 
REMARK    4  A    between atoms: N3_13  and  C10_14 
REMARK    5  A    between atoms: C10_14  and  C11_15 
ROOT
HETATM    1  C7  UNL     1      32.443   8.065  48.081  1.00  0.00     0.072 A 
HETATM    2  C8  UNL     1      32.249   9.437  47.697  1.00  0.00     0.085 A 
HETATM    3  S1  UNL     1      30.523   9.642  47.967  1.00  0.00    -0.062 SA
HETATM    4  C9  UNL     1      30.268   7.858  48.564  1.00  0.00     0.167 A 
HETATM    5  N4  UNL     1      31.384   7.411  48.486  1.00  0.00    -0.224 NA
ENDROOT
BRANCH   1   6
HETATM    6  C2  UNL     1      33.773   7.470  48.007  1.00  0.00    -0.034 C 
HETATM    7  C1  UNL     1      35.022   8.260  48.173  1.00  0.00     0.050 C 
HETATM    8  C3  UNL     1      33.866   6.172  47.783  1.00  0.00     0.009 C 
BRANCH   8   9
HETATM    9  C4  UNL     1      35.003   5.281  47.654  1.00  0.00     0.129 C 
HETATM   10  C5  UNL     1      34.757   4.366  46.447  1.00  0.00     0.079 C 
HETATM   11  C6  UNL     1      34.534   3.025  47.008  1.00  0.00     0.113 C 
HETATM   12  N1  UNL     1      34.783   3.032  48.263  1.00  0.00    -0.195 NA
HETATM   13  N2  UNL     1      35.188   4.316  48.693  1.00  0.00    -0.306 N 
HETATM   14  H9  UNL     1      35.529   4.221  49.695  1.00  0.00     0.183 HD
ENDBRANCH   8   9
ENDBRANCH   1   6
BRANCH   4  15
HETATM   15  N3  UNL     1      28.958   7.461  48.938  1.00  0.00    -0.365 N 
HETATM   16  H11 UNL     1      28.817   7.575  49.963  1.00  0.00     0.162 HD
BRANCH  15  17
HETATM   17  C10 UNL     1      27.997   6.967  47.940  1.00  0.00     0.160 C 
BRANCH  17  18
HETATM   18  C11 UNL     1      27.096   6.003  48.570  1.00  0.00    -0.041 A 
HETATM   19  C12 UNL     1      25.817   6.335  48.942  1.00  0.00     0.009 A 
HETATM   20  C13 UNL     1      24.969   5.432  49.535  1.00  0.00     0.001 A 
HETATM   21  C14 UNL     1      25.383   4.136  49.777  1.00  0.00     0.000 A 
HETATM   22  C15 UNL     1      26.670   3.738  49.421  1.00  0.00     0.001 A 
HETATM   23  C16 UNL     1      27.497   4.690  48.823  1.00  0.00     0.009 A 
ENDBRANCH  17  18
ENDBRANCH  15  17
ENDBRANCH   4  15
TORSDOF 5
ENDMDL
MODEL 9
REMARK VINA RESULT:      -6.8      3.040      3.437
REMARK  5 active torsions:
REMARK  status: ('A' for Active; 'I' for Inactive)
REMARK    1  A    between atoms: C2_2  and  C7_9 
REMARK    2  A    between atoms: C3_3  and  C4_4 
REMARK    3  A    between atoms: C9_12  and  N3_13 
REMARK    4  A    between atoms: N3_13  and  C10_14 
REMARK    5  A    between atoms: C10_14  and  C11_15 
ROOT
HETATM    1  C7  UNL     1      22.832   3.060  51.081  1.00  0.00     0.072 A 
HETATM    2  C8  UNL     1      22.214   4.353  51.207  1.00  0.00     0.085 A 
HETATM    3  S1  UNL     1      23.590   5.428  51.002  1.00  0.00    -0.062 SA
HETATM    4  C9  UNL     1      24.833   4.012  50.771  1.00  0.00     0.167 A 
HETATM    5  N4  UNL     1      24.123   3.043  50.869  1.00  0.00    -0.224 NA
ENDROOT
BRANCH   1   6
HETATM    6  C2  UNL     1      22.021   1.853  51.190  1.00  0.00    -0.034 C 
HETATM    7  C1  UNL     1      20.904   1.542  50.259  1.00  0.00     0.050 C 
HETATM    8  C3  UNL     1      22.295   1.001  52.161  1.00  0.00     0.009 C 
BRANCH   8   9
HETATM    9  C4  UNL     1      21.703  -0.265  52.548  1.00  0.00     0.129 C 
HETATM   10  C5  UNL     1      20.752  -0.007  53.724  1.00  0.00     0.079 C 
HETATM   11  C6  UNL     1      21.389  -0.635  54.891  1.00  0.00     0.113 C 
HETATM   12  N1  UNL     1      22.406  -1.314  54.518  1.00  0.00    -0.195 NA
HETATM   13  N2  UNL     1      22.580  -1.240  53.118  1.00  0.00    -0.306 N 
HETATM   14  H9  UNL     1      23.332  -1.943  52.855  1.00  0.00     0.183 HD
ENDBRANCH   8   9
ENDBRANCH   1   6
BRANCH   4  15
HETATM   15  N3  UNL     1      26.195   4.347  50.555  1.00  0.00    -0.365 N 
HETATM   16  H11 UNL     1      26.587   4.844  51.381  1.00  0.00     0.162 HD
BRANCH  15  17
HETATM   17  C10 UNL     1      26.876   3.997  49.299  1.00  0.00     0.160 C 
BRANCH  17  18
HETATM   18  C11 UNL     1      27.385   5.213  48.668  1.00  0.00    -0.041 A 
HETATM   19  C12 UNL     1      28.697   5.342  48.285  1.00  0.00     0.009 A 
HETATM   20  C13 UNL     1      29.179   6.484  47.693  1.00  0.00     0.001 A 
HETATM   21  C14 UNL     1      28.342   7.558  47.458  1.00  0.00     0.000 A 
HETATM   22  C15 UNL     1      26.999   7.488  47.823  1.00  0.00     0.001 A 
HETATM   23  C16 UNL     1      26.555   6.308  48.424  1.00  0.00     0.009 A 
ENDBRANCH  17  18
ENDBRANCH  15  17
ENDBRANCH   4  15
TORSDOF 5
ENDMDL
