MODEL 1
REMARK VINA RESULT:      -8.2      0.000      0.000
REMARK  2 active torsions:
REMARK  status: ('A' for Active; 'I' for Inactive)
REMARK    1  A    between atoms: N1_2  and  C3_4 
REMARK    2  A    between atoms: C3_4  and  C4_5 
ROOT
HETATM    1  C4  UNL     1      22.808   1.748  50.730  1.00  0.00    -0.023 A 
HETATM    2  C5  UNL     1      21.585   1.290  50.763  1.00  0.00    -0.017 A 
HETATM    3  C6  UNL     1      20.980   0.309  51.684  1.00  0.00     0.032 A 
HETATM    4  C7  UNL     1      21.916  -0.235  52.716  1.00  0.00     0.039 A 
HETATM    5  C8  UNL     1      23.294   0.318  52.638  1.00  0.00    -0.064 A 
HETATM    6  C9  UNL     1      23.713   1.218  51.741  1.00  0.00    -0.024 A 
HETATM    7  C10 UNL     1      25.096   1.672  51.780  1.00  0.00     0.042 A 
HETATM    8  C11 UNL     1      25.953   1.219  52.680  1.00  0.00     0.040 A 
HETATM    9  N2  UNL     1      27.290   1.688  52.681  1.00  0.00    -0.364 N 
HETATM   10  C12 UNL     1      28.161   2.293  53.627  1.00  0.00     0.107 C 
HETATM   11  C13 UNL     1      29.267   1.817  54.173  1.00  0.00     0.135 C 
HETATM   12  N3  UNL     1      29.607   0.511  53.728  1.00  0.00    -0.255 NA
HETATM   13  C14 UNL     1      28.760  -0.418  54.102  1.00  0.00     0.206 C 
HETATM   14  N4  UNL     1      27.613  -0.089  54.887  1.00  0.00    -0.360 N 
HETATM   15  C15 UNL     1      26.245  -0.260  54.540  1.00  0.00     0.098 C 
HETATM   16  C16 UNL     1      25.480   0.255  53.626  1.00  0.00    -0.012 A 
HETATM   17  C17 UNL     1      24.111  -0.290  53.717  1.00  0.00     0.077 A 
HETATM   18  H15 UNL     1      27.686   1.527  51.728  1.00  0.00     0.165 HD
HETATM   19  H19 UNL     1      28.016   0.303  55.767  1.00  0.00     0.166 HD
ENDROOT
BRANCH   1  20
HETATM   20  C3  UNL     1      23.349   2.727  49.784  1.00  0.00     0.310 C 
BRANCH  20  21
HETATM   21  N1  UNL     1      22.607   3.972  49.730  1.00  0.00     0.084 N 
HETATM   22  C1  UNL     1      23.248   4.832  50.740  1.00  0.00     0.309 C 
HETATM   23  C2  UNL     1      22.855   4.638  48.442  1.00  0.00     0.309 C 
ENDBRANCH  20  21
ENDBRANCH   1  20
TORSDOF 2
ENDMDL
MODEL 2
REMARK VINA RESULT:      -8.2      2.217      5.914
REMARK  2 active torsions:
REMARK  status: ('A' for Active; 'I' for Inactive)
REMARK    1  A    between atoms: N1_2  and  C3_4 
REMARK    2  A    between atoms: C3_4  and  C4_5 
ROOT
HETATM    1  C4  UNL     1      26.387  -0.029  52.904  1.00  0.00    -0.023 A 
HETATM    2  C5  UNL     1      25.584  -0.840  53.541  1.00  0.00    -0.017 A 
HETATM    3  C6  UNL     1      24.122  -0.757  53.718  1.00  0.00     0.032 A 
HETATM    4  C7  UNL     1      23.485   0.435  53.079  1.00  0.00     0.039 A 
HETATM    5  C8  UNL     1      24.438   1.325  52.366  1.00  0.00    -0.064 A 
HETATM    6  C9  UNL     1      25.759   1.127  52.280  1.00  0.00    -0.024 A 
HETATM    7  C10 UNL     1      26.577   2.085  51.548  1.00  0.00     0.042 A 
HETATM    8  C11 UNL     1      26.050   3.149  50.965  1.00  0.00     0.040 A 
HETATM    9  N2  UNL     1      26.883   4.055  50.264  1.00  0.00    -0.364 N 
HETATM   10  C12 UNL     1      26.926   4.601  48.952  1.00  0.00     0.107 C 
HETATM   11  C13 UNL     1      26.742   5.849  48.557  1.00  0.00     0.135 C 
HETATM   12  N3  UNL     1      26.467   6.750  49.621  1.00  0.00    -0.255 NA
HETATM   13  C14 UNL     1      25.318   6.538  50.217  1.00  0.00     0.206 C 
HETATM   14  N4  UNL     1      24.459   5.479  49.792  1.00  0.00    -0.360 N 
HETATM   15  C15 UNL     1      24.025   4.357  50.549  1.00  0.00     0.098 C 
HETATM   16  C16 UNL     1      24.635   3.339  51.075  1.00  0.00    -0.012 A 
HETATM   17  C17 UNL     1      23.681   2.454  51.770  1.00  0.00     0.077 A 
HETATM   18  H15 UNL     1      27.636   4.367  50.916  1.00  0.00     0.165 HD
HETATM   19  H19 UNL     1      24.228   5.725  48.804  1.00  0.00     0.166 HD
ENDROOT
BRANCH   1  20
HETATM   20  C3  UNL     1      27.839  -0.168  52.764  1.00  0.00     0.310 C 
BRANCH  20  21
HETATM   21  N1  UNL     1      28.558  -0.166  54.024  1.00  0.00     0.084 N 
HETATM   22  C1  UNL     1      29.751  -0.992  53.774  1.00  0.00     0.309 C 
HETATM   23  C2  UNL     1      29.074   1.185  54.295  1.00  0.00     0.309 C 
ENDBRANCH  20  21
ENDBRANCH   1  20
TORSDOF 2
ENDMDL
MODEL 3
REMARK VINA RESULT:      -7.9      1.299      1.615
REMARK  2 active torsions:
REMARK  status: ('A' for Active; 'I' for Inactive)
REMARK    1  A    between atoms: N1_2  and  C3_4 
REMARK    2  A    between atoms: C3_4  and  C4_5 
ROOT
HETATM    1  C4  UNL     1      21.649   0.681  52.029  1.00  0.00    -0.023 A 
HETATM    2  C5  UNL     1      20.549   0.077  52.393  1.00  0.00    -0.017 A 
HETATM    3  C6  UNL     1      20.331  -0.882  53.493  1.00  0.00     0.032 A 
HETATM    4  C7  UNL     1      21.556  -1.205  54.288  1.00  0.00     0.039 A 
HETATM    5  C8  UNL     1      22.780  -0.493  53.836  1.00  0.00    -0.064 A 
HETATM    6  C9  UNL     1      22.836   0.366  52.811  1.00  0.00    -0.024 A 
HETATM    7  C10 UNL     1      24.108   0.993  52.476  1.00  0.00     0.042 A 
HETATM    8  C11 UNL     1      25.212   0.737  53.159  1.00  0.00     0.040 A 
HETATM    9  N2  UNL     1      26.427   1.370  52.798  1.00  0.00    -0.364 N 
HETATM   10  C12 UNL     1      27.402   2.165  53.459  1.00  0.00     0.107 C 
HETATM   11  C13 UNL     1      28.664   1.885  53.739  1.00  0.00     0.135 C 
HETATM   12  N3  UNL     1      29.073   0.597  53.300  1.00  0.00    -0.255 NA
HETATM   13  C14 UNL     1      28.485  -0.393  53.928  1.00  0.00     0.206 C 
HETATM   14  N4  UNL     1      27.524  -0.140  54.954  1.00  0.00    -0.360 N 
HETATM   15  C15 UNL     1      26.153  -0.515  54.970  1.00  0.00     0.098 C 
HETATM   16  C16 UNL     1      25.124  -0.187  54.248  1.00  0.00    -0.012 A 
HETATM   17  C17 UNL     1      23.911  -0.890  54.710  1.00  0.00     0.077 A 
HETATM   18  H15 UNL     1      26.603   1.172  51.788  1.00  0.00     0.165 HD
HETATM   19  H19 UNL     1      28.064   0.380  55.681  1.00  0.00     0.166 HD
ENDROOT
BRANCH   1  20
HETATM   20  C3  UNL     1      21.800   1.628  50.922  1.00  0.00     0.310 C 
BRANCH  20  21
HETATM   21  N1  UNL     1      20.864   2.736  50.959  1.00  0.00     0.084 N 
HETATM   22  C1  UNL     1      21.437   3.676  51.938  1.00  0.00     0.309 C 
HETATM   23  C2  UNL     1      20.897   3.452  49.673  1.00  0.00     0.309 C 
ENDBRANCH  20  21
ENDBRANCH   1  20
TORSDOF 2
ENDMDL
MODEL 4
REMARK VINA RESULT:      -7.7      2.468      4.474
REMARK  2 active torsions:
REMARK  status: ('A' for Active; 'I' for Inactive)
REMARK    1  A    between atoms: N1_2  and  C3_4 
REMARK    2  A    between atoms: C3_4  and  C4_5 
ROOT
HETATM    1  C4  UNL     1      20.991   0.317  53.066  1.00  0.00    -0.023 A 
HETATM    2  C5  UNL     1      20.930  -0.689  53.897  1.00  0.00    -0.017 A 
HETATM    3  C6  UNL     1      22.024  -1.383  54.604  1.00  0.00     0.032 A 
HETATM    4  C7  UNL     1      23.391  -0.853  54.309  1.00  0.00     0.039 A 
HETATM    5  C8  UNL     1      23.407   0.291  53.360  1.00  0.00    -0.064 A 
HETATM    6  C9  UNL     1      22.324   0.832  52.787  1.00  0.00    -0.024 A 
HETATM    7  C10 UNL     1      22.488   1.953  51.871  1.00  0.00     0.042 A 
HETATM    8  C11 UNL     1      23.679   2.453  51.588  1.00  0.00     0.040 A 
HETATM    9  N2  UNL     1      23.791   3.545  50.692  1.00  0.00    -0.364 N 
HETATM   10  C12 UNL     1      24.365   4.844  50.728  1.00  0.00     0.107 C 
HETATM   11  C13 UNL     1      25.389   5.329  50.047  1.00  0.00     0.135 C 
HETATM   12  N3  UNL     1      25.977   4.391  49.157  1.00  0.00    -0.255 NA
HETATM   13  C14 UNL     1      26.569   3.385  49.754  1.00  0.00     0.206 C 
HETATM   14  N4  UNL     1      26.589   3.291  51.180  1.00  0.00    -0.360 N 
HETATM   15  C15 UNL     1      26.032   2.264  51.990  1.00  0.00     0.098 C 
HETATM   16  C16 UNL     1      24.820   1.855  52.212  1.00  0.00    -0.012 A 
HETATM   17  C17 UNL     1      24.812   0.727  53.164  1.00  0.00     0.077 A 
HETATM   18  H15 UNL     1      23.319   3.275  49.800  1.00  0.00     0.165 HD
HETATM   19  H19 UNL     1      27.106   4.147  51.480  1.00  0.00     0.166 HD
ENDROOT
BRANCH   1  20
HETATM   20  C3  UNL     1      19.861   0.964  52.394  1.00  0.00     0.310 C 
BRANCH  20  21
HETATM   21  N1  UNL     1      19.330   0.213  51.272  1.00  0.00     0.084 N 
HETATM   22  C1  UNL     1      17.985  -0.203  51.706  1.00  0.00     0.309 C 
HETATM   23  C2  UNL     1      19.106   1.119  50.135  1.00  0.00     0.309 C 
ENDBRANCH  20  21
ENDBRANCH   1  20
TORSDOF 2
ENDMDL
MODEL 5
REMARK VINA RESULT:      -7.6      2.001      6.716
REMARK  2 active torsions:
REMARK  status: ('A' for Active; 'I' for Inactive)
REMARK    1  A    between atoms: N1_2  and  C3_4 
REMARK    2  A    between atoms: C3_4  and  C4_5 
ROOT
HETATM    1  C4  UNL     1      23.453  -0.072  53.515  1.00  0.00    -0.023 A 
HETATM    2  C5  UNL     1      22.982  -0.814  54.482  1.00  0.00    -0.017 A 
HETATM    3  C6  UNL     1      21.614  -1.327  54.683  1.00  0.00     0.032 A 
HETATM    4  C7  UNL     1      20.637  -0.925  53.625  1.00  0.00     0.039 A 
HETATM    5  C8  UNL     1      21.220  -0.083  52.547  1.00  0.00    -0.064 A 
HETATM    6  C9  UNL     1      22.497   0.312  52.486  1.00  0.00    -0.024 A 
HETATM    7  C10 UNL     1      22.934   1.139  51.369  1.00  0.00     0.042 A 
HETATM    8  C11 UNL     1      22.101   1.512  50.411  1.00  0.00     0.040 A 
HETATM    9  N2  UNL     1      22.569   2.317  49.343  1.00  0.00    -0.364 N 
HETATM   10  C12 UNL     1      22.573   2.233  47.924  1.00  0.00     0.107 C 
HETATM   11  C13 UNL     1      21.942   2.983  47.037  1.00  0.00     0.135 C 
HETATM   12  N3  UNL     1      21.154   4.013  47.619  1.00  0.00    -0.255 NA
HETATM   13  C14 UNL     1      20.128   3.577  48.308  1.00  0.00     0.206 C 
HETATM   14  N4  UNL     1      19.871   2.177  48.430  1.00  0.00    -0.360 N 
HETATM   15  C15 UNL     1      19.843   1.401  49.621  1.00  0.00     0.098 C 
HETATM   16  C16 UNL     1      20.740   1.078  50.503  1.00  0.00    -0.012 A 
HETATM   17  C17 UNL     1      20.156   0.233  51.563  1.00  0.00     0.077 A 
HETATM   18  H15 UNL     1      23.010   3.169  49.755  1.00  0.00     0.165 HD
HETATM   19  H19 UNL     1      19.710   1.864  47.447  1.00  0.00     0.166 HD
ENDROOT
BRANCH   1  20
HETATM   20  C3  UNL     1      24.830   0.407  53.373  1.00  0.00     0.310 C 
BRANCH  20  21
HETATM   21  N1  UNL     1      25.826  -0.469  53.960  1.00  0.00     0.084 N 
HETATM   22  C1  UNL     1      26.541  -1.045  52.808  1.00  0.00     0.309 C 
HETATM   23  C2  UNL     1      26.830   0.335  54.674  1.00  0.00     0.309 C 
ENDBRANCH  20  21
ENDBRANCH   1  20
TORSDOF 2
ENDMDL
MODEL 6
REMARK VINA RESULT:      -7.3      1.895      3.734
REMARK  2 active torsions:
REMARK  status: ('A' for Active; 'I' for Inactive)
REMARK    1  A    between atoms: N1_2  and  C3_4 
REMARK    2  A    between atoms: C3_4  and  C4_5 
ROOT
HETATM    1  C4  UNL     1      21.828   1.148  51.796  1.00  0.00    -0.023 A 
HETATM    2  C5  UNL     1      21.140   2.123  51.263  1.00  0.00    -0.017 A 
HETATM    3  C6  UNL     1      21.602   3.444  50.796  1.00  0.00     0.032 A 
HETATM    4  C7  UNL     1      23.066   3.689  50.972  1.00  0.00     0.039 A 
HETATM    5  C8  UNL     1      23.805   2.551  51.580  1.00  0.00    -0.064 A 
HETATM    6  C9  UNL     1      23.254   1.392  51.960  1.00  0.00    -0.024 A 
HETATM    7  C10 UNL     1      24.099   0.360  52.546  1.00  0.00     0.042 A 
HETATM    8  C11 UNL     1      25.400   0.537  52.714  1.00  0.00     0.040 A 
HETATM    9  N2  UNL     1      26.184  -0.494  53.289  1.00  0.00    -0.364 N 
HETATM   10  C12 UNL     1      27.349  -1.220  52.920  1.00  0.00     0.107 C 
HETATM   11  C13 UNL     1      28.550  -1.216  53.472  1.00  0.00     0.135 C 
HETATM   12  N3  UNL     1      28.658  -0.353  54.595  1.00  0.00    -0.255 NA
HETATM   13  C14 UNL     1      28.547   0.921  54.303  1.00  0.00     0.206 C 
HETATM   14  N4  UNL     1      28.336   1.347  52.956  1.00  0.00    -0.360 N 
HETATM   15  C15 UNL     1      27.224   2.063  52.437  1.00  0.00     0.098 C 
HETATM   16  C16 UNL     1      25.962   1.787  52.302  1.00  0.00    -0.012 A 
HETATM   17  C17 UNL     1      25.239   2.917  51.687  1.00  0.00     0.077 A 
HETATM   18  H15 UNL     1      25.757  -0.745  54.207  1.00  0.00     0.165 HD
HETATM   19  H19 UNL     1      29.185   1.010  52.451  1.00  0.00     0.166 HD
ENDROOT
BRANCH   1  20
HETATM   20  C3  UNL     1      21.307  -0.147  52.242  1.00  0.00     0.310 C 
BRANCH  20  21
HETATM   21  N1  UNL     1      20.571  -0.091  53.490  1.00  0.00     0.084 N 
HETATM   22  C1  UNL     1      19.229  -0.597  53.155  1.00  0.00     0.309 C 
HETATM   23  C2  UNL     1      21.128  -1.071  54.435  1.00  0.00     0.309 C 
ENDBRANCH  20  21
ENDBRANCH   1  20
TORSDOF 2
ENDMDL
MODEL 7
REMARK VINA RESULT:      -7.3      1.748      6.077
REMARK  2 active torsions:
REMARK  status: ('A' for Active; 'I' for Inactive)
REMARK    1  A    between atoms: N1_2  and  C3_4 
REMARK    2  A    between atoms: C3_4  and  C4_5 
ROOT
HETATM    1  C4  UNL     1      24.595   0.582  53.448  1.00  0.00    -0.023 A 
HETATM    2  C5  UNL     1      23.960  -0.542  53.646  1.00  0.00    -0.017 A 
HETATM    3  C6  UNL     1      22.622  -0.954  53.181  1.00  0.00     0.032 A 
HETATM    4  C7  UNL     1      21.899   0.079  52.376  1.00  0.00     0.039 A 
HETATM    5  C8  UNL     1      22.662   1.339  52.177  1.00  0.00    -0.064 A 
HETATM    6  C9  UNL     1      23.887   1.581  52.659  1.00  0.00    -0.024 A 
HETATM    7  C10 UNL     1      24.519   2.865  52.387  1.00  0.00     0.042 A 
HETATM    8  C11 UNL     1      23.914   3.802  51.675  1.00  0.00     0.040 A 
HETATM    9  N2  UNL     1      24.565   5.038  51.436  1.00  0.00    -0.364 N 
HETATM   10  C12 UNL     1      24.913   5.806  50.292  1.00  0.00     0.107 C 
HETATM   11  C13 UNL     1      24.460   6.986  49.905  1.00  0.00     0.135 C 
HETATM   12  N3  UNL     1      23.488   7.539  50.781  1.00  0.00    -0.255 NA
HETATM   13  C14 UNL     1      22.359   6.873  50.817  1.00  0.00     0.206 C 
HETATM   14  N4  UNL     1      22.178   5.699  50.024  1.00  0.00    -0.360 N 
HETATM   15  C15 UNL     1      21.922   4.376  50.477  1.00  0.00     0.098 C 
HETATM   16  C16 UNL     1      22.603   3.518  51.174  1.00  0.00    -0.012 A 
HETATM   17  C17 UNL     1      21.844   2.267  51.358  1.00  0.00     0.077 A 
HETATM   18  H15 UNL     1      24.837   5.440  52.360  1.00  0.00     0.165 HD
HETATM   19  H19 UNL     1      22.277   6.041  49.042  1.00  0.00     0.166 HD
ENDROOT
BRANCH   1  20
HETATM   20  C3  UNL     1      25.930   0.931  53.940  1.00  0.00     0.310 C 
BRANCH  20  21
HETATM   21  N1  UNL     1      26.854  -0.187  53.988  1.00  0.00     0.084 N 
HETATM   22  C1  UNL     1      27.371  -0.302  52.613  1.00  0.00     0.309 C 
HETATM   23  C2  UNL     1      28.020   0.173  54.810  1.00  0.00     0.309 C 
ENDBRANCH  20  21
ENDBRANCH   1  20
TORSDOF 2
ENDMDL
MODEL 8
REMARK VINA RESULT:      -7.0      3.871      7.711
REMARK  2 active torsions:
REMARK  status: ('A' for Active; 'I' for Inactive)
REMARK    1  A    between atoms: N1_2  and  C3_4 
REMARK    2  A    between atoms: C3_4  and  C4_5 
ROOT
HETATM    1  C4  UNL     1      22.690   0.588  52.233  1.00  0.00    -0.023 A 
HETATM    2  C5  UNL     1      23.642   0.211  53.045  1.00  0.00    -0.017 A 
HETATM    3  C6  UNL     1      23.568  -0.667  54.228  1.00  0.00     0.032 A 
HETATM    4  C7  UNL     1      22.198  -1.185  54.533  1.00  0.00     0.039 A 
HETATM    5  C8  UNL     1      21.150  -0.730  53.581  1.00  0.00    -0.064 A 
HETATM    6  C9  UNL     1      21.360   0.076  52.533  1.00  0.00    -0.024 A 
HETATM    7  C10 UNL     1      20.237   0.443  51.681  1.00  0.00     0.042 A 
HETATM    8  C11 UNL     1      19.012   0.002  51.915  1.00  0.00     0.040 A 
HETATM    9  N2  UNL     1      17.949   0.386  51.060  1.00  0.00    -0.364 N 
HETATM   10  C12 UNL     1      16.963  -0.287  50.288  1.00  0.00     0.107 C 
HETATM   11  C13 UNL     1      15.650  -0.312  50.441  1.00  0.00     0.135 C 
HETATM   12  N3  UNL     1      15.190   0.456  51.544  1.00  0.00    -0.255 NA
HETATM   13  C14 UNL     1      15.556  -0.015  52.713  1.00  0.00     0.206 C 
HETATM   14  N4  UNL     1      16.348  -1.199  52.808  1.00  0.00    -0.360 N 
HETATM   15  C15 UNL     1      17.650  -1.330  53.365  1.00  0.00     0.098 C 
HETATM   16  C16 UNL     1      18.815  -0.856  53.043  1.00  0.00    -0.012 A 
HETATM   17  C17 UNL     1      19.851  -1.321  53.986  1.00  0.00     0.077 A 
HETATM   18  H15 UNL     1      17.929   1.429  51.023  1.00  0.00     0.165 HD
HETATM   19  H19 UNL     1      15.749  -1.937  52.377  1.00  0.00     0.166 HD
ENDROOT
BRANCH   1  20
HETATM   20  C3  UNL     1      22.830   1.467  51.070  1.00  0.00     0.310 C 
BRANCH  20  21
HETATM   21  N1  UNL     1      23.490   2.726  51.356  1.00  0.00     0.084 N 
HETATM   22  C1  UNL     1      23.889   3.247  50.037  1.00  0.00     0.309 C 
HETATM   23  C2  UNL     1      22.507   3.692  51.871  1.00  0.00     0.309 C 
ENDBRANCH  20  21
ENDBRANCH   1  20
TORSDOF 2
ENDMDL
MODEL 9
REMARK VINA RESULT:      -7.0      2.024      4.069
REMARK  2 active torsions:
REMARK  status: ('A' for Active; 'I' for Inactive)
REMARK    1  A    between atoms: N1_2  and  C3_4 
REMARK    2  A    between atoms: C3_4  and  C4_5 
ROOT
HETATM    1  C4  UNL     1      23.537   5.186  50.523  1.00  0.00    -0.023 A 
HETATM    2  C5  UNL     1      23.934   5.968  49.554  1.00  0.00    -0.017 A 
HETATM    3  C6  UNL     1      25.186   5.927  48.775  1.00  0.00     0.032 A 
HETATM    4  C7  UNL     1      26.129   4.836  49.170  1.00  0.00     0.039 A 
HETATM    5  C8  UNL     1      25.633   3.974  50.275  1.00  0.00    -0.064 A 
HETATM    6  C9  UNL     1      24.458   4.123  50.899  1.00  0.00    -0.024 A 
HETATM    7  C10 UNL     1      24.099   3.203  51.971  1.00  0.00     0.042 A 
HETATM    8  C11 UNL     1      24.904   2.222  52.346  1.00  0.00     0.040 A 
HETATM    9  N2  UNL     1      24.514   1.351  53.393  1.00  0.00    -0.364 N 
HETATM   10  C12 UNL     1      24.372  -0.053  53.556  1.00  0.00     0.107 C 
HETATM   11  C13 UNL     1      25.060  -0.884  54.320  1.00  0.00     0.135 C 
HETATM   12  N3  UNL     1      26.082  -0.248  55.076  1.00  0.00    -0.255 NA
HETATM   13  C14 UNL     1      27.058   0.242  54.350  1.00  0.00     0.206 C 
HETATM   14  N4  UNL     1      27.043   0.119  52.927  1.00  0.00    -0.360 N 
HETATM   15  C15 UNL     1      27.019   1.167  51.966  1.00  0.00     0.098 C 
HETATM   16  C16 UNL     1      26.155   2.088  51.664  1.00  0.00    -0.012 A 
HETATM   17  C17 UNL     1      26.650   2.931  50.559  1.00  0.00     0.077 A 
HETATM   18  H15 UNL     1      24.286   1.937  54.227  1.00  0.00     0.165 HD
HETATM   19  H19 UNL     1      27.054  -0.912  52.764  1.00  0.00     0.166 HD
ENDROOT
BRANCH   1  20
HETATM   20  C3  UNL     1      22.275   5.280  51.260  1.00  0.00     0.310 C 
BRANCH  20  21
HETATM   21  N1  UNL     1      21.144   4.681  50.577  1.00  0.00     0.084 N 
HETATM   22  C1  UNL     1      20.381   4.006  51.640  1.00  0.00     0.309 C 
HETATM   23  C2  UNL     1      20.254   5.740  50.075  1.00  0.00     0.309 C 
ENDBRANCH  20  21
ENDBRANCH   1  20
TORSDOF 2
ENDMDL
