MODEL 1
REMARK VINA RESULT:      -7.5      0.000      0.000
REMARK  6 active torsions:
REMARK  status: ('A' for Active; 'I' for Inactive)
REMARK    1  A    between atoms: C2_2  and  O1_3 
REMARK    2  A    between atoms: C2_2  and  C4_5 
REMARK    3  A    between atoms: C4_5  and  O3_22 
REMARK    4  A    between atoms: C5_6  and  C6_7 
REMARK    5  A    between atoms: C9_12  and  O2_13 
REMARK    6  A    between atoms: O2_13  and  C10_14 
ROOT
HETATM    1  C6  UNL     1      24.325  -0.460  54.336  1.00  0.00     0.037 A 
HETATM    2  C7  UNL     1      23.967  -1.226  55.448  1.00  0.00     0.134 A 
HETATM    3  N1  UNL     1      22.725  -1.780  55.492  1.00  0.00    -0.253 NA
HETATM    4  C8  UNL     1      21.891  -1.567  54.464  1.00  0.00     0.235 A 
HETATM    5  N2  UNL     1      22.246  -0.829  53.401  1.00  0.00    -0.217 NA
HETATM    6  C9  UNL     1      23.443  -0.246  53.267  1.00  0.00     0.182 A 
ENDROOT
BRANCH   6   7
HETATM    7  O2  UNL     1      24.038   0.529  52.323  1.00  0.00    -0.291 OA
BRANCH   7   8
HETATM    8  C10 UNL     1      23.445   1.677  51.835  1.00  0.00     0.081 A 
HETATM    9  C11 UNL     1      22.640   1.951  50.766  1.00  0.00     0.039 A 
HETATM   10  C12 UNL     1      22.197   3.236  50.539  1.00  0.00     0.025 A 
HETATM   11  C13 UNL     1      22.544   4.291  51.370  1.00  0.00     0.049 A 
HETATM   12 BR1  UNL     1      21.894   6.040  50.991  1.00  0.00    -0.048 Br
HETATM   13  C14 UNL     1      23.369   4.024  52.469  1.00  0.00     0.136 A 
HETATM   14  F1  UNL     1      23.655   5.106  53.225  1.00  0.00    -0.205 F 
HETATM   15  C15 UNL     1      23.817   2.718  52.699  1.00  0.00     0.081 A 
ENDBRANCH   7   8
ENDBRANCH   6   7
BRANCH   1  16
HETATM   16  C5  UNL     1      25.665   0.054  54.424  1.00  0.00     0.057 C 
HETATM   17  C4  UNL     1      26.782  -0.557  54.081  1.00  0.00     0.101 C 
BRANCH  17  18
HETATM   18  C2  UNL     1      27.996   0.215  54.284  1.00  0.00     0.092 C 
HETATM   19  C1  UNL     1      29.179  -0.365  54.232  1.00  0.00     0.053 C 
BRANCH  18  20
HETATM   20  O1  UNL     1      28.673   1.368  54.534  1.00  0.00    -0.354 OA
HETATM   21  C3  UNL     1      28.717   2.491  53.680  1.00  0.00     0.210 C 
ENDBRANCH  18  20
ENDBRANCH  17  18
BRANCH  17  22
HETATM   22  O3  UNL     1      26.899  -1.811  53.568  1.00  0.00    -0.353 OA
HETATM   23  C16 UNL     1      26.772  -2.053  52.190  1.00  0.00     0.210 C 
ENDBRANCH  17  22
ENDBRANCH   1  16
TORSDOF 6
ENDMDL
MODEL 2
REMARK VINA RESULT:      -7.4      3.393      4.796
REMARK  6 active torsions:
REMARK  status: ('A' for Active; 'I' for Inactive)
REMARK    1  A    between atoms: C2_2  and  O1_3 
REMARK    2  A    between atoms: C2_2  and  C4_5 
REMARK    3  A    between atoms: C4_5  and  O3_22 
REMARK    4  A    between atoms: C5_6  and  C6_7 
REMARK    5  A    between atoms: C9_12  and  O2_13 
REMARK    6  A    between atoms: O2_13  and  C10_14 
ROOT
HETATM    1  C6  UNL     1      25.298   2.232  51.745  1.00  0.00     0.037 A 
HETATM    2  C7  UNL     1      26.022   2.985  50.817  1.00  0.00     0.134 A 
HETATM    3  N1  UNL     1      25.483   4.143  50.346  1.00  0.00    -0.253 NA
HETATM    4  C8  UNL     1      24.276   4.516  50.793  1.00  0.00     0.235 A 
HETATM    5  N2  UNL     1      23.589   3.784  51.685  1.00  0.00    -0.217 NA
HETATM    6  C9  UNL     1      24.036   2.635  52.204  1.00  0.00     0.182 A 
ENDROOT
BRANCH   6   7
HETATM    7  O2  UNL     1      23.556   1.729  53.095  1.00  0.00    -0.291 OA
BRANCH   7   8
HETATM    8  C10 UNL     1      22.282   1.205  52.995  1.00  0.00     0.081 A 
HETATM    9  C11 UNL     1      21.145   1.587  52.340  1.00  0.00     0.039 A 
HETATM   10  C12 UNL     1      19.998   0.831  52.439  1.00  0.00     0.025 A 
HETATM   11  C13 UNL     1      19.945  -0.330  53.195  1.00  0.00     0.049 A 
HETATM   12 BR1  UNL     1      18.321  -1.322  53.284  1.00  0.00    -0.048 Br
HETATM   13  C14 UNL     1      21.103  -0.733  53.871  1.00  0.00     0.136 A 
HETATM   14  F1  UNL     1      20.963  -1.874  54.581  1.00  0.00    -0.205 F 
HETATM   15  C15 UNL     1      22.267   0.035  53.769  1.00  0.00     0.081 A 
ENDBRANCH   7   8
ENDBRANCH   6   7
BRANCH   1  16
HETATM   16  C5  UNL     1      25.992   1.042  52.157  1.00  0.00     0.057 C 
HETATM   17  C4  UNL     1      26.914   0.936  53.094  1.00  0.00     0.101 C 
BRANCH  17  18
HETATM   18  C2  UNL     1      27.442  -0.403  53.291  1.00  0.00     0.092 C 
HETATM   19  C1  UNL     1      26.853  -1.447  52.739  1.00  0.00     0.053 C 
BRANCH  18  20
HETATM   20  O1  UNL     1      28.333  -1.292  53.806  1.00  0.00    -0.354 OA
HETATM   21  C3  UNL     1      29.731  -1.256  53.607  1.00  0.00     0.210 C 
ENDBRANCH  18  20
ENDBRANCH  17  18
BRANCH  17  22
HETATM   22  O3  UNL     1      27.402   1.939  53.873  1.00  0.00    -0.353 OA
HETATM   23  C16 UNL     1      28.698   2.447  53.685  1.00  0.00     0.210 C 
ENDBRANCH  17  22
ENDBRANCH   1  16
TORSDOF 6
ENDMDL
MODEL 3
REMARK VINA RESULT:      -7.2      2.091      2.686
REMARK  6 active torsions:
REMARK  status: ('A' for Active; 'I' for Inactive)
REMARK    1  A    between atoms: C2_2  and  O1_3 
REMARK    2  A    between atoms: C2_2  and  C4_5 
REMARK    3  A    between atoms: C4_5  and  O3_22 
REMARK    4  A    between atoms: C5_6  and  C6_7 
REMARK    5  A    between atoms: C9_12  and  O2_13 
REMARK    6  A    between atoms: O2_13  and  C10_14 
ROOT
HETATM    1  C6  UNL     1      23.332  -0.415  53.703  1.00  0.00     0.037 A 
HETATM    2  C7  UNL     1      22.767  -1.074  54.797  1.00  0.00     0.134 A 
HETATM    3  N1  UNL     1      21.507  -0.740  55.187  1.00  0.00    -0.253 NA
HETATM    4  C8  UNL     1      20.855   0.210  54.503  1.00  0.00     0.235 A 
HETATM    5  N2  UNL     1      21.408   0.837  53.453  1.00  0.00    -0.217 NA
HETATM    6  C9  UNL     1      22.639   0.577  52.996  1.00  0.00     0.182 A 
ENDROOT
BRANCH   6   7
HETATM    7  O2  UNL     1      23.412   1.051  51.984  1.00  0.00    -0.291 OA
BRANCH   7   8
HETATM    8  C10 UNL     1      22.875   1.452  50.776  1.00  0.00     0.081 A 
HETATM    9  C11 UNL     1      21.836   1.013  50.005  1.00  0.00     0.039 A 
HETATM   10  C12 UNL     1      21.540   1.640  48.814  1.00  0.00     0.025 A 
HETATM   11  C13 UNL     1      22.270   2.724  48.352  1.00  0.00     0.049 A 
HETATM   12 BR1  UNL     1      21.801   3.539  46.696  1.00  0.00    -0.048 Br
HETATM   13  C14 UNL     1      23.338   3.184  49.133  1.00  0.00     0.136 A 
HETATM   14  F1  UNL     1      23.993   4.243  48.610  1.00  0.00    -0.205 F 
HETATM   15  C15 UNL     1      23.637   2.547  50.342  1.00  0.00     0.081 A 
ENDBRANCH   7   8
ENDBRANCH   6   7
BRANCH   1  16
HETATM   16  C5  UNL     1      24.661  -0.875  53.402  1.00  0.00     0.057 C 
HETATM   17  C4  UNL     1      25.801  -0.316  53.756  1.00  0.00     0.101 C 
BRANCH  17  18
HETATM   18  C2  UNL     1      26.995  -1.011  53.305  1.00  0.00     0.092 C 
HETATM   19  C1  UNL     1      26.925  -1.920  52.351  1.00  0.00     0.053 C 
BRANCH  18  20
HETATM   20  O1  UNL     1      28.330  -1.273  53.332  1.00  0.00    -0.354 OA
HETATM   21  C3  UNL     1      29.318  -0.429  53.884  1.00  0.00     0.210 C 
ENDBRANCH  18  20
ENDBRANCH  17  18
BRANCH  17  22
HETATM   22  O3  UNL     1      25.959   0.821  54.486  1.00  0.00    -0.353 OA
HETATM   23  C16 UNL     1      26.256   2.049  53.872  1.00  0.00     0.210 C 
ENDBRANCH  17  22
ENDBRANCH   1  16
TORSDOF 6
ENDMDL
MODEL 4
REMARK VINA RESULT:      -7.1      1.883      2.495
REMARK  6 active torsions:
REMARK  status: ('A' for Active; 'I' for Inactive)
REMARK    1  A    between atoms: C2_2  and  O1_3 
REMARK    2  A    between atoms: C2_2  and  C4_5 
REMARK    3  A    between atoms: C4_5  and  O3_22 
REMARK    4  A    between atoms: C5_6  and  C6_7 
REMARK    5  A    between atoms: C9_12  and  O2_13 
REMARK    6  A    between atoms: O2_13  and  C10_14 
ROOT
HETATM    1  C6  UNL     1      23.303  -0.390  53.653  1.00  0.00     0.037 A 
HETATM    2  C7  UNL     1      22.702  -1.049  54.729  1.00  0.00     0.134 A 
HETATM    3  N1  UNL     1      21.432  -0.709  55.081  1.00  0.00    -0.253 NA
HETATM    4  C8  UNL     1      20.806   0.245  54.379  1.00  0.00     0.235 A 
HETATM    5  N2  UNL     1      21.393   0.871  53.347  1.00  0.00    -0.217 NA
HETATM    6  C9  UNL     1      22.636   0.607  52.928  1.00  0.00     0.182 A 
ENDROOT
BRANCH   6   7
HETATM    7  O2  UNL     1      23.441   1.079  51.941  1.00  0.00    -0.291 OA
BRANCH   7   8
HETATM    8  C10 UNL     1      23.658   2.431  51.755  1.00  0.00     0.081 A 
HETATM    9  C11 UNL     1      23.248   3.558  52.407  1.00  0.00     0.039 A 
HETATM   10  C12 UNL     1      23.646   4.801  51.965  1.00  0.00     0.025 A 
HETATM   11  C13 UNL     1      24.466   4.962  50.859  1.00  0.00     0.049 A 
HETATM   12 BR1  UNL     1      24.974   6.713  50.309  1.00  0.00    -0.048 Br
HETATM   13  C14 UNL     1      24.894   3.813  50.181  1.00  0.00     0.136 A 
HETATM   14  F1  UNL     1      25.689   4.060  49.118  1.00  0.00    -0.205 F 
HETATM   15  C15 UNL     1      24.489   2.552  50.631  1.00  0.00     0.081 A 
ENDBRANCH   7   8
ENDBRANCH   6   7
BRANCH   1  16
HETATM   16  C5  UNL     1      24.638  -0.855  53.393  1.00  0.00     0.057 C 
HETATM   17  C4  UNL     1      25.770  -0.271  53.732  1.00  0.00     0.101 C 
BRANCH  17  18
HETATM   18  C2  UNL     1      26.974  -0.979  53.331  1.00  0.00     0.092 C 
HETATM   19  C1  UNL     1      26.951  -1.828  52.321  1.00  0.00     0.053 C 
BRANCH  18  20
HETATM   20  O1  UNL     1      28.294  -1.290  53.443  1.00  0.00    -0.354 OA
HETATM   21  C3  UNL     1      29.293  -0.437  53.963  1.00  0.00     0.210 C 
ENDBRANCH  18  20
ENDBRANCH  17  18
BRANCH  17  22
HETATM   22  O3  UNL     1      25.912   0.901  54.406  1.00  0.00    -0.353 OA
HETATM   23  C16 UNL     1      26.524   2.018  53.812  1.00  0.00     0.210 C 
ENDBRANCH  17  22
ENDBRANCH   1  16
TORSDOF 6
ENDMDL
MODEL 5
REMARK VINA RESULT:      -7.1      3.253      4.640
REMARK  6 active torsions:
REMARK  status: ('A' for Active; 'I' for Inactive)
REMARK    1  A    between atoms: C2_2  and  O1_3 
REMARK    2  A    between atoms: C2_2  and  C4_5 
REMARK    3  A    between atoms: C4_5  and  O3_22 
REMARK    4  A    between atoms: C5_6  and  C6_7 
REMARK    5  A    between atoms: C9_12  and  O2_13 
REMARK    6  A    between atoms: O2_13  and  C10_14 
ROOT
HETATM    1  C6  UNL     1      25.783   2.529  51.331  1.00  0.00     0.037 A 
HETATM    2  C7  UNL     1      26.555   3.045  50.288  1.00  0.00     0.134 A 
HETATM    3  N1  UNL     1      26.189   4.228  49.723  1.00  0.00    -0.253 NA
HETATM    4  C8  UNL     1      25.100   4.852  50.191  1.00  0.00     0.235 A 
HETATM    5  N2  UNL     1      24.365   4.347  51.194  1.00  0.00    -0.217 NA
HETATM    6  C9  UNL     1      24.645   3.193  51.812  1.00  0.00     0.182 A 
ENDROOT
BRANCH   6   7
HETATM    7  O2  UNL     1      24.083   2.480  52.822  1.00  0.00    -0.291 OA
BRANCH   7   8
HETATM    8  C10 UNL     1      22.962   1.696  52.632  1.00  0.00     0.081 A 
HETATM    9  C11 UNL     1      22.751   0.352  52.507  1.00  0.00     0.039 A 
HETATM   10  C12 UNL     1      21.477  -0.138  52.321  1.00  0.00     0.025 A 
HETATM   11  C13 UNL     1      20.371   0.695  52.251  1.00  0.00     0.049 A 
HETATM   12 BR1  UNL     1      18.640  -0.056  51.991  1.00  0.00    -0.048 Br
HETATM   13  C14 UNL     1      20.573   2.075  52.377  1.00  0.00     0.136 A 
HETATM   14  F1  UNL     1      19.444   2.812  52.299  1.00  0.00    -0.205 F 
HETATM   15  C15 UNL     1      21.867   2.571  52.567  1.00  0.00     0.081 A 
ENDBRANCH   7   8
ENDBRANCH   6   7
BRANCH   1  16
HETATM   16  C5  UNL     1      26.291   1.281  51.834  1.00  0.00     0.057 C 
HETATM   17  C4  UNL     1      27.038   1.093  52.903  1.00  0.00     0.101 C 
BRANCH  17  18
HETATM   18  C2  UNL     1      27.404  -0.288  53.166  1.00  0.00     0.092 C 
HETATM   19  C1  UNL     1      26.570  -1.270  52.883  1.00  0.00     0.053 C 
BRANCH  18  20
HETATM   20  O1  UNL     1      28.252  -1.257  53.605  1.00  0.00    -0.354 OA
HETATM   21  C3  UNL     1      29.661  -1.166  53.614  1.00  0.00     0.210 C 
ENDBRANCH  18  20
ENDBRANCH  17  18
BRANCH  17  22
HETATM   22  O3  UNL     1      27.487   2.048  53.762  1.00  0.00    -0.353 OA
HETATM   23  C16 UNL     1      28.826   2.473  53.751  1.00  0.00     0.210 C 
ENDBRANCH  17  22
ENDBRANCH   1  16
TORSDOF 6
ENDMDL
MODEL 6
REMARK VINA RESULT:      -6.9      3.731      6.749
REMARK  6 active torsions:
REMARK  status: ('A' for Active; 'I' for Inactive)
REMARK    1  A    between atoms: C2_2  and  O1_3 
REMARK    2  A    between atoms: C2_2  and  C4_5 
REMARK    3  A    between atoms: C4_5  and  O3_22 
REMARK    4  A    between atoms: C5_6  and  C6_7 
REMARK    5  A    between atoms: C9_12  and  O2_13 
REMARK    6  A    between atoms: O2_13  and  C10_14 
ROOT
HETATM    1  C6  UNL     1      22.437   1.367  50.813  1.00  0.00     0.037 A 
HETATM    2  C7  UNL     1      21.789   1.477  49.580  1.00  0.00     0.134 A 
HETATM    3  N1  UNL     1      22.318   2.295  48.630  1.00  0.00    -0.253 NA
HETATM    4  C8  UNL     1      23.443   2.965  48.914  1.00  0.00     0.235 A 
HETATM    5  N2  UNL     1      24.058   2.852  50.102  1.00  0.00    -0.217 NA
HETATM    6  C9  UNL     1      23.615   2.074  51.097  1.00  0.00     0.182 A 
ENDROOT
BRANCH   6   7
HETATM    7  O2  UNL     1      24.034   1.788  52.357  1.00  0.00    -0.291 OA
BRANCH   7   8
HETATM    8  C10 UNL     1      25.237   1.155  52.604  1.00  0.00     0.081 A 
HETATM    9  C11 UNL     1      25.654  -0.145  52.561  1.00  0.00     0.039 A 
HETATM   10  C12 UNL     1      26.957  -0.468  52.872  1.00  0.00     0.025 A 
HETATM   11  C13 UNL     1      27.886   0.493  53.237  1.00  0.00     0.049 A 
HETATM   12 BR1  UNL     1      29.669  -0.031  53.654  1.00  0.00    -0.048 Br
HETATM   13  C14 UNL     1      27.472   1.830  53.287  1.00  0.00     0.136 A 
HETATM   14  F1  UNL     1      28.439   2.699  53.650  1.00  0.00    -0.205 F 
HETATM   15  C15 UNL     1      26.149   2.157  52.970  1.00  0.00     0.081 A 
ENDBRANCH   7   8
ENDBRANCH   6   7
BRANCH   1  16
HETATM   16  C5  UNL     1      21.771   0.465  51.713  1.00  0.00     0.057 C 
HETATM   17  C4  UNL     1      20.752   0.731  52.505  1.00  0.00     0.101 C 
BRANCH  17  18
HETATM   18  C2  UNL     1      20.287  -0.386  53.309  1.00  0.00     0.092 C 
HETATM   19  C1  UNL     1      21.018  -0.851  54.304  1.00  0.00     0.053 C 
BRANCH  18  20
HETATM   20  O1  UNL     1      19.386  -1.350  53.641  1.00  0.00    -0.354 OA
HETATM   21  C3  UNL     1      18.009  -1.324  53.329  1.00  0.00     0.210 C 
ENDBRANCH  18  20
ENDBRANCH  17  18
BRANCH  17  22
HETATM   22  O3  UNL     1      20.113   1.924  52.636  1.00  0.00    -0.353 OA
HETATM   23  C16 UNL     1      19.003   2.252  51.839  1.00  0.00     0.210 C 
ENDBRANCH  17  22
ENDBRANCH   1  16
TORSDOF 6
ENDMDL
MODEL 7
REMARK VINA RESULT:      -6.8      3.658      5.782
REMARK  6 active torsions:
REMARK  status: ('A' for Active; 'I' for Inactive)
REMARK    1  A    between atoms: C2_2  and  O1_3 
REMARK    2  A    between atoms: C2_2  and  C4_5 
REMARK    3  A    between atoms: C4_5  and  O3_22 
REMARK    4  A    between atoms: C5_6  and  C6_7 
REMARK    5  A    between atoms: C9_12  and  O2_13 
REMARK    6  A    between atoms: O2_13  and  C10_14 
ROOT
HETATM    1  C6  UNL     1      25.727   1.700  52.325  1.00  0.00     0.037 A 
HETATM    2  C7  UNL     1      25.933   1.313  53.652  1.00  0.00     0.134 A 
HETATM    3  N1  UNL     1      27.140   1.560  54.229  1.00  0.00    -0.253 NA
HETATM    4  C8  UNL     1      28.087   2.166  53.500  1.00  0.00     0.235 A 
HETATM    5  N2  UNL     1      27.879   2.533  52.226  1.00  0.00    -0.217 NA
HETATM    6  C9  UNL     1      26.727   2.334  51.574  1.00  0.00     0.182 A 
ENDROOT
BRANCH   6   7
HETATM    7  O2  UNL     1      26.269   2.601  50.324  1.00  0.00    -0.291 OA
BRANCH   7   8
HETATM    8  C10 UNL     1      26.439   3.835  49.727  1.00  0.00     0.081 A 
HETATM    9  C11 UNL     1      27.424   4.395  48.964  1.00  0.00     0.039 A 
HETATM   10  C12 UNL     1      27.298   5.688  48.504  1.00  0.00     0.025 A 
HETATM   11  C13 UNL     1      26.187   6.466  48.791  1.00  0.00     0.049 A 
HETATM   12 BR1  UNL     1      26.084   8.245  48.120  1.00  0.00    -0.048 Br
HETATM   13  C14 UNL     1      25.170   5.904  49.573  1.00  0.00     0.136 A 
HETATM   14  F1  UNL     1      24.125   6.729  49.802  1.00  0.00    -0.205 F 
HETATM   15  C15 UNL     1      25.299   4.591  50.038  1.00  0.00     0.081 A 
ENDBRANCH   7   8
ENDBRANCH   6   7
BRANCH   1  16
HETATM   16  C5  UNL     1      24.407   1.383  51.852  1.00  0.00     0.057 C 
HETATM   17  C4  UNL     1      23.309   2.097  52.004  1.00  0.00     0.101 C 
BRANCH  17  18
HETATM   18  C2  UNL     1      22.112   1.521  51.414  1.00  0.00     0.092 C 
HETATM   19  C1  UNL     1      22.050   1.276  50.120  1.00  0.00     0.053 C 
BRANCH  18  20
HETATM   20  O1  UNL     1      20.845   1.028  51.476  1.00  0.00    -0.354 OA
HETATM   21  C3  UNL     1      20.198   0.581  52.648  1.00  0.00     0.210 C 
ENDBRANCH  18  20
ENDBRANCH  17  18
BRANCH  17  22
HETATM   22  O3  UNL     1      23.196   3.292  52.644  1.00  0.00    -0.353 OA
HETATM   23  C16 UNL     1      22.309   4.283  52.193  1.00  0.00     0.210 C 
ENDBRANCH  17  22
ENDBRANCH   1  16
TORSDOF 6
ENDMDL
MODEL 8
REMARK VINA RESULT:      -6.8      3.256      6.005
REMARK  6 active torsions:
REMARK  status: ('A' for Active; 'I' for Inactive)
REMARK    1  A    between atoms: C2_2  and  O1_3 
REMARK    2  A    between atoms: C2_2  and  C4_5 
REMARK    3  A    between atoms: C4_5  and  O3_22 
REMARK    4  A    between atoms: C5_6  and  C6_7 
REMARK    5  A    between atoms: C9_12  and  O2_13 
REMARK    6  A    between atoms: O2_13  and  C10_14 
ROOT
HETATM    1  C6  UNL     1      22.212   0.863  52.203  1.00  0.00     0.037 A 
HETATM    2  C7  UNL     1      20.933   0.331  52.024  1.00  0.00     0.134 A 
HETATM    3  N1  UNL     1      20.407  -0.458  53.000  1.00  0.00    -0.253 NA
HETATM    4  C8  UNL     1      21.138  -0.693  54.098  1.00  0.00     0.235 A 
HETATM    5  N2  UNL     1      22.366  -0.176  54.260  1.00  0.00    -0.217 NA
HETATM    6  C9  UNL     1      22.966   0.609  53.358  1.00  0.00     0.182 A 
ENDROOT
BRANCH   6   7
HETATM    7  O2  UNL     1      24.164   1.244  53.278  1.00  0.00    -0.291 OA
BRANCH   7   8
HETATM    8  C10 UNL     1      25.361   0.553  53.265  1.00  0.00     0.081 A 
HETATM    9  C11 UNL     1      25.719  -0.722  52.933  1.00  0.00     0.039 A 
HETATM   10  C12 UNL     1      27.034  -1.123  53.028  1.00  0.00     0.025 A 
HETATM   11  C13 UNL     1      28.035  -0.266  53.458  1.00  0.00     0.049 A 
HETATM   12 BR1  UNL     1      29.830  -0.892  53.565  1.00  0.00    -0.048 Br
HETATM   13  C14 UNL     1      27.681   1.045  53.802  1.00  0.00     0.136 A 
HETATM   14  F1  UNL     1      28.716   1.812  54.207  1.00  0.00    -0.205 F 
HETATM   15  C15 UNL     1      26.346   1.451  53.704  1.00  0.00     0.081 A 
ENDBRANCH   7   8
ENDBRANCH   6   7
BRANCH   1  16
HETATM   16  C5  UNL     1      22.634   1.680  51.098  1.00  0.00     0.057 C 
HETATM   17  C4  UNL     1      22.609   2.995  51.018  1.00  0.00     0.101 C 
BRANCH  17  18
HETATM   18  C2  UNL     1      23.102   3.547  49.767  1.00  0.00     0.092 C 
HETATM   19  C1  UNL     1      23.014   2.858  48.646  1.00  0.00     0.053 C 
BRANCH  18  20
HETATM   20  O1  UNL     1      23.685   4.520  49.016  1.00  0.00    -0.354 OA
HETATM   21  C3  UNL     1      23.042   5.269  48.007  1.00  0.00     0.210 C 
ENDBRANCH  18  20
ENDBRANCH  17  18
BRANCH  17  22
HETATM   22  O3  UNL     1      22.178   3.861  51.974  1.00  0.00    -0.353 OA
HETATM   23  C16 UNL     1      23.071   4.707  52.653  1.00  0.00     0.210 C 
ENDBRANCH  17  22
ENDBRANCH   1  16
TORSDOF 6
ENDMDL
MODEL 9
REMARK VINA RESULT:      -6.8      3.929      6.841
REMARK  6 active torsions:
REMARK  status: ('A' for Active; 'I' for Inactive)
REMARK    1  A    between atoms: C2_2  and  O1_3 
REMARK    2  A    between atoms: C2_2  and  C4_5 
REMARK    3  A    between atoms: C4_5  and  O3_22 
REMARK    4  A    between atoms: C5_6  and  C6_7 
REMARK    5  A    between atoms: C9_12  and  O2_13 
REMARK    6  A    between atoms: O2_13  and  C10_14 
ROOT
HETATM    1  C6  UNL     1      22.688   2.342  52.320  1.00  0.00     0.037 A 
HETATM    2  C7  UNL     1      21.954   3.527  52.222  1.00  0.00     0.134 A 
HETATM    3  N1  UNL     1      22.528   4.609  51.629  1.00  0.00    -0.253 NA
HETATM    4  C8  UNL     1      23.778   4.495  51.160  1.00  0.00     0.235 A 
HETATM    5  N2  UNL     1      24.474   3.352  51.260  1.00  0.00    -0.217 NA
HETATM    6  C9  UNL     1      23.995   2.237  51.824  1.00  0.00     0.182 A 
ENDROOT
BRANCH   6   7
HETATM    7  O2  UNL     1      24.476   0.986  52.047  1.00  0.00    -0.291 OA
BRANCH   7   8
HETATM    8  C10 UNL     1      25.773   0.762  52.464  1.00  0.00     0.081 A 
HETATM    9  C11 UNL     1      26.797   1.572  52.866  1.00  0.00     0.039 A 
HETATM   10  C12 UNL     1      28.010   1.031  53.232  1.00  0.00     0.025 A 
HETATM   11  C13 UNL     1      28.244  -0.335  53.207  1.00  0.00     0.049 A 
HETATM   12 BR1  UNL     1      29.949  -1.008  53.726  1.00  0.00    -0.048 Br
HETATM   13  C14 UNL     1      27.204  -1.177  52.796  1.00  0.00     0.136 A 
HETATM   14  F1  UNL     1      27.516  -2.491  52.804  1.00  0.00    -0.205 F 
HETATM   15  C15 UNL     1      25.972  -0.627  52.426  1.00  0.00     0.081 A 
ENDBRANCH   7   8
ENDBRANCH   6   7
BRANCH   1  16
HETATM   16  C5  UNL     1      21.954   1.285  52.961  1.00  0.00     0.057 C 
HETATM   17  C4  UNL     1      21.167   0.395  52.389  1.00  0.00     0.101 C 
BRANCH  17  18
HETATM   18  C2  UNL     1      20.554  -0.560  53.297  1.00  0.00     0.092 C 
HETATM   19  C1  UNL     1      21.259  -1.122  54.259  1.00  0.00     0.053 C 
BRANCH  18  20
HETATM   20  O1  UNL     1      19.505  -1.292  53.761  1.00  0.00    -0.354 OA
HETATM   21  C3  UNL     1      18.198  -1.277  53.227  1.00  0.00     0.210 C 
ENDBRANCH  18  20
ENDBRANCH  17  18
BRANCH  17  22
HETATM   22  O3  UNL     1      20.885   0.289  51.063  1.00  0.00    -0.353 OA
HETATM   23  C16 UNL     1      19.737   0.880  50.509  1.00  0.00     0.210 C 
ENDBRANCH  17  22
ENDBRANCH   1  16
TORSDOF 6
ENDMDL
