MODEL 1
REMARK VINA RESULT:      -8.6      0.000      0.000
REMARK  1 active torsions:
REMARK  status: ('A' for Active; 'I' for Inactive)
REMARK    1  A    between atoms: C2_3  and  C3_4 
ROOT
HETATM    1  N1  UNL     1      27.287   0.742  54.952  1.00  0.00    -0.197 NA
HETATM    2  C1  UNL     1      26.522   0.143  54.346  1.00  0.00     0.063 C 
HETATM    3  C2  UNL     1      25.533  -0.629  53.557  1.00  0.00     0.161 C 
ENDROOT
BRANCH   3   4
HETATM    4  C3  UNL     1      24.493   0.308  53.055  1.00  0.00    -0.032 C 
HETATM    5  C4  UNL     1      23.217   0.251  53.421  1.00  0.00     0.121 C 
HETATM    6  N2  UNL     1      22.101   1.079  53.028  1.00  0.00    -0.274 NA
HETATM    7  C5  UNL     1      21.985   1.810  51.973  1.00  0.00     0.119 C 
HETATM    8  C6  UNL     1      23.069   1.930  50.900  1.00  0.00     0.155 C 
HETATM    9  C7  UNL     1      22.621   2.789  49.804  1.00  0.00    -0.022 A 
HETATM   10  N3  UNL     1      24.353   2.200  51.536  1.00  0.00    -0.381 N 
HETATM   11  C8  UNL     1      22.664   2.086  48.567  1.00  0.00     0.010 A 
HETATM   12  C12 UNL     1      22.113   4.105  49.571  1.00  0.00    -0.026 A 
HETATM   13  C9  UNL     1      22.316   2.427  47.241  1.00  0.00     0.001 A 
HETATM   14  C10 UNL     1      21.837   3.712  47.145  1.00  0.00     0.001 A 
HETATM   15  C11 UNL     1      21.756   4.481  48.279  1.00  0.00     0.010 A 
HETATM   16  C13 UNL     1      21.874   5.275  50.493  1.00  0.00     0.208 C 
HETATM   17  O1  UNL     1      23.221   5.745  50.978  1.00  0.00    -0.369 OA
HETATM   18  C14 UNL     1      23.849   4.591  51.603  1.00  0.00     0.108 A 
HETATM   19  C15 UNL     1      23.103   4.740  52.749  1.00  0.00    -0.002 A 
HETATM   20  C19 UNL     1      24.453   4.681  50.406  1.00  0.00     0.118 A 
HETATM   21  C16 UNL     1      23.910   3.656  52.630  1.00  0.00     0.082 A 
HETATM   22  C17 UNL     1      24.578   3.623  51.473  1.00  0.00     0.088 A 
HETATM   23  C18 UNL     1      25.273   3.599  50.254  1.00  0.00     0.013 A 
HETATM   24 CL1  UNL     1      24.947   5.289  48.884  1.00  0.00    -0.108 Cl
HETATM   25  C20 UNL     1      25.223   1.201  52.142  1.00  0.00     0.156 C 
ENDBRANCH   3   4
TORSDOF 1
ENDMDL
MODEL 2
REMARK VINA RESULT:      -8.3      2.598      5.114
REMARK  1 active torsions:
REMARK  status: ('A' for Active; 'I' for Inactive)
REMARK    1  A    between atoms: C2_3  and  C3_4 
ROOT
HETATM    1  N1  UNL     1      28.211   4.732  48.587  1.00  0.00    -0.197 NA
HETATM    2  C1  UNL     1      27.319   5.450  48.582  1.00  0.00     0.063 C 
HETATM    3  C2  UNL     1      26.165   6.381  48.583  1.00  0.00     0.161 C 
ENDROOT
BRANCH   3   4
HETATM    4  C3  UNL     1      25.182   5.914  49.597  1.00  0.00    -0.032 C 
HETATM    5  C4  UNL     1      24.918   6.575  50.718  1.00  0.00     0.121 C 
HETATM    6  N2  UNL     1      24.002   6.258  51.788  1.00  0.00    -0.274 NA
HETATM    7  C5  UNL     1      23.510   5.108  52.101  1.00  0.00     0.119 C 
HETATM    8  C6  UNL     1      23.833   3.814  51.350  1.00  0.00     0.155 C 
HETATM    9  C7  UNL     1      23.166   2.672  51.974  1.00  0.00    -0.022 A 
HETATM   10  N3  UNL     1      23.676   4.034  49.917  1.00  0.00    -0.381 N 
HETATM   11  C8  UNL     1      24.117   1.687  52.362  1.00  0.00     0.010 A 
HETATM   12  C12 UNL     1      21.861   2.233  52.360  1.00  0.00    -0.026 A 
HETATM   13  C9  UNL     1      24.016   0.440  53.019  1.00  0.00     0.001 A 
HETATM   14  C10 UNL     1      22.716   0.131  53.342  1.00  0.00     0.001 A 
HETATM   15  C11 UNL     1      21.717   1.011  53.011  1.00  0.00     0.010 A 
HETATM   16  C13 UNL     1      20.494   2.848  52.188  1.00  0.00     0.208 C 
HETATM   17  O1  UNL     1      20.192   2.859  50.712  1.00  0.00    -0.369 OA
HETATM   18  C14 UNL     1      21.277   3.595  50.083  1.00  0.00     0.108 A 
HETATM   19  C15 UNL     1      20.745   4.806  50.458  1.00  0.00    -0.002 A 
HETATM   20  C19 UNL     1      21.567   2.307  49.828  1.00  0.00     0.118 A 
HETATM   21  C16 UNL     1      21.960   4.784  49.856  1.00  0.00     0.082 A 
HETATM   22  C17 UNL     1      22.370   3.551  49.544  1.00  0.00     0.088 A 
HETATM   23  C18 UNL     1      22.790   2.251  49.222  1.00  0.00     0.013 A 
HETATM   24 CL1  UNL     1      21.409   0.607  49.703  1.00  0.00    -0.108 Cl
HETATM   25  C20 UNL     1      24.664   4.654  49.043  1.00  0.00     0.156 C 
ENDBRANCH   3   4
TORSDOF 1
ENDMDL
MODEL 3
REMARK VINA RESULT:      -8.1      1.892      3.025
REMARK  1 active torsions:
REMARK  status: ('A' for Active; 'I' for Inactive)
REMARK    1  A    between atoms: C2_3  and  C3_4 
ROOT
HETATM    1  N1  UNL     1      24.350  -0.749  54.189  1.00  0.00    -0.197 NA
HETATM    2  C1  UNL     1      23.297  -0.507  53.809  1.00  0.00     0.063 C 
HETATM    3  C2  UNL     1      21.936  -0.196  53.312  1.00  0.00     0.161 C 
ENDROOT
BRANCH   3   4
HETATM    4  C3  UNL     1      22.057   0.704  52.134  1.00  0.00    -0.032 C 
HETATM    5  C4  UNL     1      21.702   0.351  50.903  1.00  0.00     0.121 C 
HETATM    6  N2  UNL     1      21.757   1.101  49.671  1.00  0.00    -0.274 NA
HETATM    7  C5  UNL     1      22.490   2.124  49.393  1.00  0.00     0.119 C 
HETATM    8  C6  UNL     1      23.482   2.749  50.376  1.00  0.00     0.155 C 
HETATM    9  C7  UNL     1      24.201   3.858  49.752  1.00  0.00    -0.022 A 
HETATM   10  N3  UNL     1      22.823   2.961  51.659  1.00  0.00    -0.381 N 
HETATM   11  C8  UNL     1      25.606   3.631  49.791  1.00  0.00     0.010 A 
HETATM   12  C12 UNL     1      23.952   5.092  49.073  1.00  0.00    -0.026 A 
HETATM   13  C9  UNL     1      26.723   4.350  49.312  1.00  0.00     0.001 A 
HETATM   14  C10 UNL     1      26.356   5.513  48.676  1.00  0.00     0.001 A 
HETATM   15  C11 UNL     1      25.025   5.831  48.583  1.00  0.00     0.010 A 
HETATM   16  C13 UNL     1      22.676   5.835  48.759  1.00  0.00     0.208 C 
HETATM   17  O1  UNL     1      22.092   6.292  50.071  1.00  0.00    -0.369 OA
HETATM   18  C14 UNL     1      21.921   5.093  50.876  1.00  0.00     0.108 A 
HETATM   19  C15 UNL     1      20.776   4.740  50.201  1.00  0.00    -0.002 A 
HETATM   20  C19 UNL     1      23.028   5.666  51.379  1.00  0.00     0.118 A 
HETATM   21  C16 UNL     1      21.282   3.883  51.122  1.00  0.00     0.082 A 
HETATM   22  C17 UNL     1      22.396   4.337  51.706  1.00  0.00     0.088 A 
HETATM   23  C18 UNL     1      23.565   4.825  52.311  1.00  0.00     0.013 A 
HETATM   24 CL1  UNL     1      24.257   6.817  51.688  1.00  0.00    -0.108 Cl
HETATM   25  C20 UNL     1      22.622   1.945  52.685  1.00  0.00     0.156 C 
ENDBRANCH   3   4
TORSDOF 1
ENDMDL
MODEL 4
REMARK VINA RESULT:      -7.7      2.053      3.636
REMARK  1 active torsions:
REMARK  status: ('A' for Active; 'I' for Inactive)
REMARK    1  A    between atoms: C2_3  and  C3_4 
ROOT
HETATM    1  N1  UNL     1      26.474  -1.092  53.477  1.00  0.00    -0.197 NA
HETATM    2  C1  UNL     1      26.318   0.023  53.680  1.00  0.00     0.063 C 
HETATM    3  C2  UNL     1      26.109   1.468  53.940  1.00  0.00     0.161 C 
ENDROOT
BRANCH   3   4
HETATM    4  C3  UNL     1      25.856   2.150  52.644  1.00  0.00    -0.032 C 
HETATM    5  C4  UNL     1      26.714   2.139  51.630  1.00  0.00     0.121 C 
HETATM    6  N2  UNL     1      26.615   2.746  50.323  1.00  0.00    -0.274 NA
HETATM    7  C5  UNL     1      25.871   3.733  49.958  1.00  0.00     0.119 C 
HETATM    8  C6  UNL     1      24.916   4.469  50.900  1.00  0.00     0.155 C 
HETATM    9  C7  UNL     1      24.253   5.573  50.206  1.00  0.00    -0.022 A 
HETATM   10  N3  UNL     1      24.108   3.498  51.627  1.00  0.00    -0.381 N 
HETATM   11  C8  UNL     1      24.508   6.807  50.869  1.00  0.00     0.010 A 
HETATM   12  C12 UNL     1      23.456   5.827  49.047  1.00  0.00    -0.026 A 
HETATM   13  C9  UNL     1      24.144   8.147  50.606  1.00  0.00     0.001 A 
HETATM   14  C10 UNL     1      23.385   8.263  49.466  1.00  0.00     0.001 A 
HETATM   15  C11 UNL     1      23.077   7.133  48.750  1.00  0.00     0.010 A 
HETATM   16  C13 UNL     1      22.875   4.911  47.997  1.00  0.00     0.208 C 
HETATM   17  O1  UNL     1      21.839   4.053  48.677  1.00  0.00    -0.369 OA
HETATM   18  C14 UNL     1      22.527   3.378  49.766  1.00  0.00     0.108 A 
HETATM   19  C15 UNL     1      23.092   2.460  48.911  1.00  0.00    -0.002 A 
HETATM   20  C19 UNL     1      21.844   4.363  50.374  1.00  0.00     0.118 A 
HETATM   21  C16 UNL     1      23.457   2.448  50.218  1.00  0.00     0.082 A 
HETATM   22  C17 UNL     1      22.843   3.388  50.944  1.00  0.00     0.088 A 
HETATM   23  C18 UNL     1      22.192   4.378  51.695  1.00  0.00     0.013 A 
HETATM   24 CL1  UNL     1      20.743   5.648  50.633  1.00  0.00    -0.108 Cl
HETATM   25  C20 UNL     1      24.530   2.765  52.813  1.00  0.00     0.156 C 
ENDBRANCH   3   4
TORSDOF 1
ENDMDL
MODEL 5
REMARK VINA RESULT:      -7.7      1.699      2.078
REMARK  1 active torsions:
REMARK  status: ('A' for Active; 'I' for Inactive)
REMARK    1  A    between atoms: C2_3  and  C3_4 
ROOT
HETATM    1  N1  UNL     1      23.831  -0.869  54.615  1.00  0.00    -0.197 NA
HETATM    2  C1  UNL     1      22.911  -0.781  53.939  1.00  0.00     0.063 C 
HETATM    3  C2  UNL     1      21.724  -0.664  53.060  1.00  0.00     0.161 C 
ENDROOT
BRANCH   3   4
HETATM    4  C3  UNL     1      21.587   0.754  52.635  1.00  0.00    -0.032 C 
HETATM    5  C4  UNL     1      20.536   1.510  52.932  1.00  0.00     0.121 C 
HETATM    6  N2  UNL     1      20.259   2.887  52.596  1.00  0.00    -0.274 NA
HETATM    7  C5  UNL     1      20.760   3.590  51.639  1.00  0.00     0.119 C 
HETATM    8  C6  UNL     1      21.788   3.053  50.641  1.00  0.00     0.155 C 
HETATM    9  C7  UNL     1      22.121   4.070  49.644  1.00  0.00    -0.022 A 
HETATM   10  N3  UNL     1      22.863   2.386  51.364  1.00  0.00    -0.381 N 
HETATM   11  C8  UNL     1      21.851   3.593  48.331  1.00  0.00     0.010 A 
HETATM   12  C12 UNL     1      22.599   5.415  49.558  1.00  0.00    -0.026 A 
HETATM   13  C9  UNL     1      21.958   4.166  47.044  1.00  0.00     0.001 A 
HETATM   14  C10 UNL     1      22.423   5.459  47.091  1.00  0.00     0.001 A 
HETATM   15  C11 UNL     1      22.718   6.019  48.309  1.00  0.00     0.010 A 
HETATM   16  C13 UNL     1      23.055   6.397  50.609  1.00  0.00     0.208 C 
HETATM   17  O1  UNL     1      24.324   5.850  51.211  1.00  0.00    -0.369 OA
HETATM   18  C14 UNL     1      23.994   4.525  51.712  1.00  0.00     0.108 A 
HETATM   19  C15 UNL     1      23.387   5.042  52.832  1.00  0.00    -0.002 A 
HETATM   20  C19 UNL     1      24.651   4.285  50.564  1.00  0.00     0.118 A 
HETATM   21  C16 UNL     1      23.325   3.705  52.613  1.00  0.00     0.082 A 
HETATM   22  C17 UNL     1      23.948   3.327  51.493  1.00  0.00     0.088 A 
HETATM   23  C18 UNL     1      24.606   2.943  50.313  1.00  0.00     0.013 A 
HETATM   24 CL1  UNL     1      25.594   4.531  49.157  1.00  0.00    -0.108 Cl
HETATM   25  C20 UNL     1      22.819   1.023  51.877  1.00  0.00     0.156 C 
ENDBRANCH   3   4
TORSDOF 1
ENDMDL
MODEL 6
REMARK VINA RESULT:      -7.2      2.834      4.951
REMARK  1 active torsions:
REMARK  status: ('A' for Active; 'I' for Inactive)
REMARK    1  A    between atoms: C2_3  and  C3_4 
ROOT
HETATM    1  N1  UNL     1      26.833   9.143  49.333  1.00  0.00    -0.197 NA
HETATM    2  C1  UNL     1      26.935   8.177  48.728  1.00  0.00     0.063 C 
HETATM    3  C2  UNL     1      27.061   6.925  47.944  1.00  0.00     0.161 C 
ENDROOT
BRANCH   3   4
HETATM    4  C3  UNL     1      26.473   5.811  48.734  1.00  0.00    -0.032 C 
HETATM    5  C4  UNL     1      27.190   4.816  49.243  1.00  0.00     0.121 C 
HETATM    6  N2  UNL     1      26.772   3.675  50.023  1.00  0.00    -0.274 NA
HETATM    7  C5  UNL     1      25.598   3.147  50.096  1.00  0.00     0.119 C 
HETATM    8  C6  UNL     1      24.384   3.668  49.324  1.00  0.00     0.155 C 
HETATM    9  C7  UNL     1      23.213   2.829  49.573  1.00  0.00    -0.022 A 
HETATM   10  N3  UNL     1      24.278   5.111  49.506  1.00  0.00    -0.381 N 
HETATM   11  C8  UNL     1      22.703   2.306  48.351  1.00  0.00     0.010 A 
HETATM   12  C12 UNL     1      22.427   2.326  50.656  1.00  0.00    -0.026 A 
HETATM   13  C9  UNL     1      21.635   1.436  48.034  1.00  0.00     0.001 A 
HETATM   14  C10 UNL     1      20.959   1.017  49.156  1.00  0.00     0.001 A 
HETATM   15  C11 UNL     1      21.367   1.464  50.388  1.00  0.00     0.010 A 
HETATM   16  C13 UNL     1      22.491   2.555  52.146  1.00  0.00     0.208 C 
HETATM   17  O1  UNL     1      22.134   3.999  52.391  1.00  0.00    -0.369 OA
HETATM   18  C14 UNL     1      23.075   4.785  51.608  1.00  0.00     0.108 A 
HETATM   19  C15 UNL     1      24.073   4.612  52.538  1.00  0.00    -0.002 A 
HETATM   20  C19 UNL     1      21.943   4.819  50.885  1.00  0.00     0.118 A 
HETATM   21  C16 UNL     1      24.366   5.243  51.373  1.00  0.00     0.082 A 
HETATM   22  C17 UNL     1      23.315   5.346  50.553  1.00  0.00     0.088 A 
HETATM   23  C18 UNL     1      22.205   5.448  49.701  1.00  0.00     0.013 A 
HETATM   24 CL1  UNL     1      20.299   4.636  50.441  1.00  0.00    -0.108 Cl
HETATM   25  C20 UNL     1      25.034   6.114  48.768  1.00  0.00     0.156 C 
ENDBRANCH   3   4
TORSDOF 1
ENDMDL
MODEL 7
REMARK VINA RESULT:      -7.1      8.363     10.205
REMARK  1 active torsions:
REMARK  status: ('A' for Active; 'I' for Inactive)
REMARK    1  A    between atoms: C2_3  and  C3_4 
ROOT
HETATM    1  N1  UNL     1      34.842   5.419  43.440  1.00  0.00    -0.197 NA
HETATM    2  C1  UNL     1      34.662   4.822  44.400  1.00  0.00     0.063 C 
HETATM    3  C2  UNL     1      34.422   4.050  45.642  1.00  0.00     0.161 C 
ENDROOT
BRANCH   3   4
HETATM    4  C3  UNL     1      33.695   4.918  46.606  1.00  0.00    -0.032 C 
HETATM    5  C4  UNL     1      34.001   4.998  47.896  1.00  0.00     0.121 C 
HETATM    6  N2  UNL     1      33.398   5.784  48.946  1.00  0.00    -0.274 NA
HETATM    7  C5  UNL     1      32.215   6.295  48.980  1.00  0.00     0.119 C 
HETATM    8  C6  UNL     1      31.194   6.144  47.850  1.00  0.00     0.155 C 
HETATM    9  C7  UNL     1      29.930   6.787  48.205  1.00  0.00    -0.022 A 
HETATM   10  N3  UNL     1      31.827   6.473  46.578  1.00  0.00    -0.381 N 
HETATM   11  C8  UNL     1      28.859   5.850  48.156  1.00  0.00     0.010 A 
HETATM   12  C12 UNL     1      29.417   8.053  48.627  1.00  0.00    -0.026 A 
HETATM   13  C9  UNL     1      27.477   5.936  48.433  1.00  0.00     0.001 A 
HETATM   14  C10 UNL     1      27.106   7.198  48.832  1.00  0.00     0.001 A 
HETATM   15  C11 UNL     1      28.060   8.181  48.912  1.00  0.00     0.010 A 
HETATM   16  C13 UNL     1      30.076   9.395  48.834  1.00  0.00     0.208 C 
HETATM   17  O1  UNL     1      30.525   9.885  47.481  1.00  0.00    -0.369 OA
HETATM   18  C14 UNL     1      31.395   8.850  46.945  1.00  0.00     0.108 A 
HETATM   19  C15 UNL     1      32.451   9.262  47.724  1.00  0.00    -0.002 A 
HETATM   20  C19 UNL     1      30.235   8.669  46.292  1.00  0.00     0.118 A 
HETATM   21  C16 UNL     1      32.589   8.138  46.978  1.00  0.00     0.082 A 
HETATM   22  C17 UNL     1      31.495   7.841  46.269  1.00  0.00     0.088 A 
HETATM   23  C18 UNL     1      30.340   7.540  45.530  1.00  0.00     0.013 A 
HETATM   24 CL1  UNL     1      28.649   8.936  45.705  1.00  0.00    -0.108 Cl
HETATM   25  C20 UNL     1      32.660   5.573  45.791  1.00  0.00     0.156 C 
ENDBRANCH   3   4
TORSDOF 1
ENDMDL
MODEL 8
REMARK VINA RESULT:      -7.1      2.647      5.629
REMARK  1 active torsions:
REMARK  status: ('A' for Active; 'I' for Inactive)
REMARK    1  A    between atoms: C2_3  and  C3_4 
ROOT
HETATM    1  N1  UNL     1      16.633   3.089  51.395  1.00  0.00    -0.197 NA
HETATM    2  C1  UNL     1      17.154   3.509  50.466  1.00  0.00     0.063 C 
HETATM    3  C2  UNL     1      17.831   4.047  49.261  1.00  0.00     0.161 C 
ENDROOT
BRANCH   3   4
HETATM    4  C3  UNL     1      19.220   3.520  49.224  1.00  0.00    -0.032 C 
HETATM    5  C4  UNL     1      19.694   2.773  48.233  1.00  0.00     0.121 C 
HETATM    6  N2  UNL     1      21.003   2.192  48.053  1.00  0.00    -0.274 NA
HETATM    7  C5  UNL     1      21.893   1.939  48.951  1.00  0.00     0.119 C 
HETATM    8  C6  UNL     1      21.699   2.226  50.442  1.00  0.00     0.155 C 
HETATM    9  C7  UNL     1      22.860   1.780  51.210  1.00  0.00    -0.022 A 
HETATM   10  N3  UNL     1      21.213   3.589  50.614  1.00  0.00    -0.381 N 
HETATM   11  C8  UNL     1      22.472   0.839  52.206  1.00  0.00     0.010 A 
HETATM   12  C12 UNL     1      24.279   1.952  51.265  1.00  0.00    -0.026 A 
HETATM   13  C9  UNL     1      23.183   0.092  53.171  1.00  0.00     0.001 A 
HETATM   14  C10 UNL     1      24.535   0.340  53.123  1.00  0.00     0.001 A 
HETATM   15  C11 UNL     1      25.018   1.233  52.200  1.00  0.00     0.010 A 
HETATM   16  C13 UNL     1      25.224   2.825  50.477  1.00  0.00     0.208 C 
HETATM   17  O1  UNL     1      24.909   4.256  50.830  1.00  0.00    -0.369 OA
HETATM   18  C14 UNL     1      23.500   4.446  50.524  1.00  0.00     0.108 A 
HETATM   19  C15 UNL     1      23.755   4.569  49.178  1.00  0.00    -0.002 A 
HETATM   20  C19 UNL     1      23.527   4.315  51.861  1.00  0.00     0.118 A 
HETATM   21  C16 UNL     1      22.466   4.546  49.600  1.00  0.00     0.082 A 
HETATM   22  C17 UNL     1      22.350   4.419  50.926  1.00  0.00     0.088 A 
HETATM   23  C18 UNL     1      22.241   4.286  52.319  1.00  0.00     0.013 A 
HETATM   24 CL1  UNL     1      24.116   4.198  53.464  1.00  0.00    -0.108 Cl
HETATM   25  C20 UNL     1      19.828   4.018  50.468  1.00  0.00     0.156 C 
ENDBRANCH   3   4
TORSDOF 1
ENDMDL
MODEL 9
REMARK VINA RESULT:      -7.0      8.950     11.544
REMARK  1 active torsions:
REMARK  status: ('A' for Active; 'I' for Inactive)
REMARK    1  A    between atoms: C2_3  and  C3_4 
ROOT
HETATM    1  N1  UNL     1      30.128  13.314  45.728  1.00  0.00    -0.197 NA
HETATM    2  C1  UNL     1      29.454  12.408  45.916  1.00  0.00     0.063 C 
HETATM    3  C2  UNL     1      28.582  11.235  46.165  1.00  0.00     0.161 C 
ENDROOT
BRANCH   3   4
HETATM    4  C3  UNL     1      29.283  10.314  47.098  1.00  0.00    -0.032 C 
HETATM    5  C4  UNL     1      29.190  10.400  48.420  1.00  0.00     0.121 C 
HETATM    6  N2  UNL     1      29.801   9.591  49.448  1.00  0.00    -0.274 NA
HETATM    7  C5  UNL     1      30.853   8.851  49.359  1.00  0.00     0.119 C 
HETATM    8  C6  UNL     1      31.677   8.698  48.078  1.00  0.00     0.155 C 
HETATM    9  C7  UNL     1      32.836   7.837  48.308  1.00  0.00    -0.022 A 
HETATM   10  N3  UNL     1      30.786   8.409  46.961  1.00  0.00    -0.381 N 
HETATM   11  C8  UNL     1      34.042   8.526  47.994  1.00  0.00     0.010 A 
HETATM   12  C12 UNL     1      33.161   6.529  48.785  1.00  0.00    -0.026 A 
HETATM   13  C9  UNL     1      35.409   8.178  48.067  1.00  0.00     0.001 A 
HETATM   14  C10 UNL     1      35.594   6.902  48.543  1.00  0.00     0.001 A 
HETATM   15  C11 UNL     1      34.497   6.147  48.874  1.00  0.00     0.010 A 
HETATM   16  C13 UNL     1      32.302   5.373  49.236  1.00  0.00     0.208 C 
HETATM   17  O1  UNL     1      31.545   4.883  48.028  1.00  0.00    -0.369 OA
HETATM   18  C14 UNL     1      30.811   6.030  47.519  1.00  0.00     0.108 A 
HETATM   19  C15 UNL     1      29.844   5.908  48.489  1.00  0.00    -0.002 A 
HETATM   20  C19 UNL     1      31.856   5.916  46.682  1.00  0.00     0.118 A 
HETATM   21  C16 UNL     1      29.799   6.974  47.652  1.00  0.00     0.082 A 
HETATM   22  C17 UNL     1      30.793   6.982  46.758  1.00  0.00     0.088 A 
HETATM   23  C18 UNL     1      31.841   6.979  45.825  1.00  0.00     0.013 A 
HETATM   24 CL1  UNL     1      33.239   5.282  45.896  1.00  0.00    -0.108 Cl
HETATM   25  C20 UNL     1      30.019   9.397  46.213  1.00  0.00     0.156 C 
ENDBRANCH   3   4
TORSDOF 1
ENDMDL
