MODEL 1
REMARK VINA RESULT:      -9.5      0.000      0.000
REMARK  5 active torsions:
REMARK  status: ('A' for Active; 'I' for Inactive)
REMARK    1  A    between atoms: N1_1  and  C1_2 
REMARK    2  A    between atoms: N2_5  and  C4_6 
REMARK    3  A    between atoms: C4_6  and  C5_7 
REMARK    4  A    between atoms: C10_15  and  N6_16 
REMARK    5  A    between atoms: N6_16  and  C11_17 
ROOT
HETATM    1  C5  UNL     1      22.998   0.484  52.810  1.00  0.00    -0.032 A 
HETATM    2  C6  UNL     1      23.545  -0.221  53.778  1.00  0.00     0.044 A 
HETATM    3  C7  UNL     1      22.637  -0.740  54.795  1.00  0.00     0.060 A 
HETATM    4  C8  UNL     1      21.453  -0.316  54.406  1.00  0.00     0.010 A 
HETATM    5  C9  UNL     1      21.545   0.473  53.156  1.00  0.00     0.066 A 
HETATM    6  N3  UNL     1      23.199  -1.495  55.855  1.00  0.00    -0.284 N 
HETATM    7  N4  UNL     1      24.586  -1.724  55.900  1.00  0.00    -0.217 N 
HETATM    8  N5  UNL     1      25.374  -1.197  54.892  1.00  0.00    -0.140 NA
HETATM    9  C10 UNL     1      24.960  -0.505  53.899  1.00  0.00     0.162 A 
HETATM   10  H13 UNL     1      22.544  -1.862  56.580  1.00  0.00     0.188 HD
HETATM   11  H14 UNL     1      24.987  -2.285  56.689  1.00  0.00     0.210 HD
ENDROOT
BRANCH   1  12
HETATM   12  C4  UNL     1      23.276   1.231  51.589  1.00  0.00     0.308 C 
BRANCH  12  13
HETATM   13  N2  UNL     1      24.360   2.220  51.771  1.00  0.00     0.092 N 
HETATM   14  C3  UNL     1      24.570   3.008  50.576  1.00  0.00     0.275 C 
HETATM   15  C2  UNL     1      24.931   4.451  50.855  1.00  0.00     0.065 C 
HETATM   16  C1  UNL     1      23.751   5.198  51.440  1.00  0.00     0.221 C 
HETATM   17  C18 UNL     1      23.134   4.259  52.460  1.00  0.00     0.065 C 
HETATM   18  C17 UNL     1      24.054   3.152  52.846  1.00  0.00     0.275 C 
BRANCH  16  19
HETATM   19  N1  UNL     1      24.215   6.396  52.089  1.00  0.00     0.083 N 
HETATM   20  H1  UNL     1      24.478   6.199  53.066  1.00  0.00     0.313 HD
HETATM   21  H2  UNL     1      23.407   7.083  52.111  1.00  0.00     0.313 HD
ENDBRANCH  16  19
ENDBRANCH  12  13
ENDBRANCH   1  12
BRANCH   9  22
HETATM   22  N6  UNL     1      25.963  -0.110  52.985  1.00  0.00    -0.339 N 
HETATM   23  H15 UNL     1      25.612   0.338  52.117  1.00  0.00     0.167 HD
BRANCH  22  24
HETATM   24  C11 UNL     1      27.383  -0.311  53.173  1.00  0.00     0.033 A 
HETATM   25  C12 UNL     1      28.041  -1.496  53.011  1.00  0.00     0.029 A 
HETATM   26  C13 UNL     1      29.423  -1.586  53.213  1.00  0.00     0.002 A 
HETATM   27  C14 UNL     1      30.143  -0.444  53.589  1.00  0.00     0.000 A 
HETATM   28  C15 UNL     1      29.473   0.756  53.754  1.00  0.00     0.002 A 
HETATM   29  C16 UNL     1      28.116   0.816  53.548  1.00  0.00     0.029 A 
ENDBRANCH  22  24
ENDBRANCH   9  22
TORSDOF 5
ENDMDL
MODEL 2
REMARK VINA RESULT:      -8.7      1.952      2.636
REMARK  5 active torsions:
REMARK  status: ('A' for Active; 'I' for Inactive)
REMARK    1  A    between atoms: N1_1  and  C1_2 
REMARK    2  A    between atoms: N2_5  and  C4_6 
REMARK    3  A    between atoms: C4_6  and  C5_7 
REMARK    4  A    between atoms: C10_15  and  N6_16 
REMARK    5  A    between atoms: N6_16  and  C11_17 
ROOT
HETATM    1  C5  UNL     1      22.782   0.166  52.915  1.00  0.00    -0.032 A 
HETATM    2  C6  UNL     1      23.433  -0.421  53.897  1.00  0.00     0.044 A 
HETATM    3  C7  UNL     1      22.618  -1.044  54.934  1.00  0.00     0.060 A 
HETATM    4  C8  UNL     1      21.382  -0.816  54.543  1.00  0.00     0.010 A 
HETATM    5  C9  UNL     1      21.349  -0.056  53.271  1.00  0.00     0.066 A 
HETATM    6  N3  UNL     1      23.291  -1.676  56.009  1.00  0.00    -0.284 N 
HETATM    7  N4  UNL     1      24.697  -1.691  56.050  1.00  0.00    -0.217 N 
HETATM    8  N5  UNL     1      25.393  -1.078  55.024  1.00  0.00    -0.140 NA
HETATM    9  C10 UNL     1      24.875  -0.484  54.015  1.00  0.00     0.162 A 
HETATM   10  H13 UNL     1      22.702  -2.118  56.748  1.00  0.00     0.188 HD
HETATM   11  H14 UNL     1      25.182  -2.163  56.851  1.00  0.00     0.210 HD
ENDROOT
BRANCH   1  12
HETATM   12  C4  UNL     1      22.940   0.913  51.673  1.00  0.00     0.308 C 
BRANCH  12  13
HETATM   13  N2  UNL     1      21.655   1.447  51.172  1.00  0.00     0.092 N 
HETATM   14  C3  UNL     1      21.694   2.886  51.029  1.00  0.00     0.275 C 
HETATM   15  C2  UNL     1      20.917   3.399  49.836  1.00  0.00     0.065 C 
HETATM   16  C1  UNL     1      21.595   3.003  48.541  1.00  0.00     0.221 C 
HETATM   17  C18 UNL     1      22.023   1.559  48.725  1.00  0.00     0.065 C 
HETATM   18  C17 UNL     1      21.326   0.898  49.865  1.00  0.00     0.275 C 
BRANCH  16  19
HETATM   19  N1  UNL     1      20.655   3.107  47.456  1.00  0.00     0.083 N 
HETATM   20  H1  UNL     1      20.784   2.328  46.793  1.00  0.00     0.313 HD
HETATM   21  H2  UNL     1      20.866   4.006  46.934  1.00  0.00     0.313 HD
ENDBRANCH  16  19
ENDBRANCH  12  13
ENDBRANCH   1  12
BRANCH   9  22
HETATM   22  N6  UNL     1      25.804   0.034  53.084  1.00  0.00    -0.339 N 
HETATM   23  H15 UNL     1      25.387   0.395  52.204  1.00  0.00     0.167 HD
BRANCH  22  24
HETATM   24  C11 UNL     1      27.238   0.062  53.270  1.00  0.00     0.033 A 
HETATM   25  C12 UNL     1      27.968   1.159  53.622  1.00  0.00     0.029 A 
HETATM   26  C13 UNL     1      29.356   1.080  53.782  1.00  0.00     0.002 A 
HETATM   27  C14 UNL     1      30.008  -0.142  53.576  1.00  0.00     0.000 A 
HETATM   28  C15 UNL     1      29.265  -1.255  53.218  1.00  0.00     0.002 A 
HETATM   29  C16 UNL     1      27.903  -1.149  53.069  1.00  0.00     0.029 A 
ENDBRANCH  22  24
ENDBRANCH   9  22
TORSDOF 5
ENDMDL
MODEL 3
REMARK VINA RESULT:      -8.6      2.085      5.173
REMARK  5 active torsions:
REMARK  status: ('A' for Active; 'I' for Inactive)
REMARK    1  A    between atoms: N1_1  and  C1_2 
REMARK    2  A    between atoms: N2_5  and  C4_6 
REMARK    3  A    between atoms: C4_6  and  C5_7 
REMARK    4  A    between atoms: C10_15  and  N6_16 
REMARK    5  A    between atoms: N6_16  and  C11_17 
ROOT
HETATM    1  C5  UNL     1      23.610  -0.429  53.510  1.00  0.00    -0.032 A 
HETATM    2  C6  UNL     1      22.323  -0.292  53.270  1.00  0.00     0.044 A 
HETATM    3  C7  UNL     1      21.415  -0.855  54.263  1.00  0.00     0.060 A 
HETATM    4  C8  UNL     1      22.219  -1.368  55.170  1.00  0.00     0.010 A 
HETATM    5  C9  UNL     1      23.642  -1.163  54.810  1.00  0.00     0.066 A 
HETATM    6  N3  UNL     1      20.023  -0.731  54.027  1.00  0.00    -0.284 N 
HETATM    7  N4  UNL     1      19.559  -0.079  52.870  1.00  0.00    -0.217 N 
HETATM    8  N5  UNL     1      20.490   0.428  51.981  1.00  0.00    -0.140 NA
HETATM    9  C10 UNL     1      21.762   0.364  52.107  1.00  0.00     0.162 A 
HETATM   10  H13 UNL     1      19.379  -1.138  54.740  1.00  0.00     0.188 HD
HETATM   11  H14 UNL     1      18.527   0.006  52.709  1.00  0.00     0.210 HD
ENDROOT
BRANCH   1  12
HETATM   12  C4  UNL     1      24.945  -0.142  52.998  1.00  0.00     0.308 C 
BRANCH  12  13
HETATM   13  N2  UNL     1      25.897   0.200  54.076  1.00  0.00     0.092 N 
HETATM   14  C3  UNL     1      27.167  -0.471  53.901  1.00  0.00     0.275 C 
HETATM   15  C2  UNL     1      28.359   0.364  54.316  1.00  0.00     0.065 C 
HETATM   16  C1  UNL     1      28.559   1.527  53.368  1.00  0.00     0.221 C 
HETATM   17  C18 UNL     1      27.174   2.087  53.104  1.00  0.00     0.065 C 
HETATM   18  C17 UNL     1      26.172   1.629  54.109  1.00  0.00     0.275 C 
BRANCH  16  19
HETATM   19  N1  UNL     1      29.384   2.524  53.999  1.00  0.00     0.083 N 
HETATM   20  H1  UNL     1      29.470   3.355  53.395  1.00  0.00     0.313 HD
HETATM   21  H2  UNL     1      30.356   2.113  54.111  1.00  0.00     0.313 HD
ENDBRANCH  16  19
ENDBRANCH  12  13
ENDBRANCH   1  12
BRANCH   9  22
HETATM   22  N6  UNL     1      22.498   0.991  51.077  1.00  0.00    -0.339 N 
HETATM   23  H15 UNL     1      22.630   0.417  50.222  1.00  0.00     0.167 HD
BRANCH  22  24
HETATM   24  C11 UNL     1      23.074   2.316  51.155  1.00  0.00     0.033 A 
HETATM   25  C12 UNL     1      23.083   3.109  52.265  1.00  0.00     0.029 A 
HETATM   26  C13 UNL     1      23.672   4.378  52.240  1.00  0.00     0.002 A 
HETATM   27  C14 UNL     1      24.261   4.843  51.057  1.00  0.00     0.000 A 
HETATM   28  C15 UNL     1      24.250   4.037  49.931  1.00  0.00     0.002 A 
HETATM   29  C16 UNL     1      23.665   2.795  49.984  1.00  0.00     0.029 A 
ENDBRANCH  22  24
ENDBRANCH   9  22
TORSDOF 5
ENDMDL
MODEL 4
REMARK VINA RESULT:      -8.3      2.623      4.662
REMARK  5 active torsions:
REMARK  status: ('A' for Active; 'I' for Inactive)
REMARK    1  A    between atoms: N1_1  and  C1_2 
REMARK    2  A    between atoms: N2_5  and  C4_6 
REMARK    3  A    between atoms: C4_6  and  C5_7 
REMARK    4  A    between atoms: C10_15  and  N6_16 
REMARK    5  A    between atoms: N6_16  and  C11_17 
ROOT
HETATM    1  C5  UNL     1      22.365  -0.630  53.303  1.00  0.00    -0.032 A 
HETATM    2  C6  UNL     1      23.507  -0.618  53.956  1.00  0.00     0.044 A 
HETATM    3  C7  UNL     1      23.543  -1.353  55.216  1.00  0.00     0.060 A 
HETATM    4  C8  UNL     1      22.327  -1.845  55.327  1.00  0.00     0.010 A 
HETATM    5  C9  UNL     1      21.479  -1.460  54.174  1.00  0.00     0.066 A 
HETATM    6  N3  UNL     1      24.757  -1.350  55.946  1.00  0.00    -0.284 N 
HETATM    7  N4  UNL     1      25.877  -0.659  55.449  1.00  0.00    -0.217 N 
HETATM    8  N5  UNL     1      25.758   0.010  54.244  1.00  0.00    -0.140 NA
HETATM    9  C10 UNL     1      24.707   0.065  53.516  1.00  0.00     0.162 A 
HETATM   10  H13 UNL     1      24.775  -1.875  56.847  1.00  0.00     0.188 HD
HETATM   11  H14 UNL     1      26.769  -0.667  55.999  1.00  0.00     0.210 HD
ENDROOT
BRANCH   1  12
HETATM   12  C4  UNL     1      21.683  -0.156  52.105  1.00  0.00     0.308 C 
BRANCH  12  13
HETATM   13  N2  UNL     1      20.425   0.554  52.419  1.00  0.00     0.092 N 
HETATM   14  C3  UNL     1      20.631   1.982  52.534  1.00  0.00     0.275 C 
HETATM   15  C2  UNL     1      19.478   2.807  52.002  1.00  0.00     0.065 C 
HETATM   16  C1  UNL     1      19.382   2.690  50.496  1.00  0.00     0.221 C 
HETATM   17  C18 UNL     1      19.598   1.222  50.181  1.00  0.00     0.065 C 
HETATM   18  C17 UNL     1      19.427   0.351  51.379  1.00  0.00     0.275 C 
BRANCH  16  19
HETATM   19  N1  UNL     1      18.072   3.101  50.065  1.00  0.00     0.083 N 
HETATM   20  H1  UNL     1      18.023   4.128  49.988  1.00  0.00     0.313 HD
HETATM   21  H2  UNL     1      17.381   2.808  50.815  1.00  0.00     0.313 HD
ENDBRANCH  16  19
ENDBRANCH  12  13
ENDBRANCH   1  12
BRANCH   9  22
HETATM   22  N6  UNL     1      24.851   0.786  52.310  1.00  0.00    -0.339 N 
HETATM   23  H15 UNL     1      25.413   0.308  51.579  1.00  0.00     0.167 HD
BRANCH  22  24
HETATM   24  C11 UNL     1      24.308   2.103  52.060  1.00  0.00     0.033 A 
HETATM   25  C12 UNL     1      24.185   3.096  52.987  1.00  0.00     0.029 A 
HETATM   26  C13 UNL     1      23.649   4.342  52.642  1.00  0.00     0.002 A 
HETATM   27  C14 UNL     1      23.231   4.575  51.326  1.00  0.00     0.000 A 
HETATM   28  C15 UNL     1      23.356   3.566  50.386  1.00  0.00     0.002 A 
HETATM   29  C16 UNL     1      23.887   2.352  50.752  1.00  0.00     0.029 A 
ENDBRANCH  22  24
ENDBRANCH   9  22
TORSDOF 5
ENDMDL
MODEL 5
REMARK VINA RESULT:      -8.3      2.163      3.199
REMARK  5 active torsions:
REMARK  status: ('A' for Active; 'I' for Inactive)
REMARK    1  A    between atoms: N1_1  and  C1_2 
REMARK    2  A    between atoms: N2_5  and  C4_6 
REMARK    3  A    between atoms: C4_6  and  C5_7 
REMARK    4  A    between atoms: C10_15  and  N6_16 
REMARK    5  A    between atoms: N6_16  and  C11_17 
ROOT
HETATM    1  C5  UNL     1      21.279   1.247  51.032  1.00  0.00    -0.032 A 
HETATM    2  C6  UNL     1      21.066   0.696  52.208  1.00  0.00     0.044 A 
HETATM    3  C7  UNL     1      19.787   0.016  52.384  1.00  0.00     0.060 A 
HETATM    4  C8  UNL     1      19.187   0.169  51.222  1.00  0.00     0.010 A 
HETATM    5  C9  UNL     1      20.031   0.932  50.274  1.00  0.00     0.066 A 
HETATM    6  N3  UNL     1      19.525  -0.579  53.643  1.00  0.00    -0.284 N 
HETATM    7  N4  UNL     1      20.483  -0.505  54.671  1.00  0.00    -0.217 N 
HETATM    8  N5  UNL     1      21.671   0.157  54.419  1.00  0.00    -0.140 NA
HETATM    9  C10 UNL     1      21.996   0.723  53.318  1.00  0.00     0.162 A 
HETATM   10  H13 UNL     1      18.608  -1.061  53.763  1.00  0.00     0.188 HD
HETATM   11  H14 UNL     1      20.276  -0.950  55.597  1.00  0.00     0.210 HD
ENDROOT
BRANCH   1  12
HETATM   12  C4  UNL     1      22.237   2.009  50.240  1.00  0.00     0.308 C 
BRANCH  12  13
HETATM   13  N2  UNL     1      21.961   3.461  50.272  1.00  0.00     0.092 N 
HETATM   14  C3  UNL     1      21.622   3.913  51.604  1.00  0.00     0.275 C 
HETATM   15  C2  UNL     1      22.151   5.293  51.931  1.00  0.00     0.065 C 
HETATM   16  C1  UNL     1      23.659   5.278  52.050  1.00  0.00     0.221 C 
HETATM   17  C18 UNL     1      24.155   4.424  50.898  1.00  0.00     0.065 C 
HETATM   18  C17 UNL     1      23.120   4.231  49.844  1.00  0.00     0.275 C 
BRANCH  16  19
HETATM   19  N1  UNL     1      24.164   6.620  51.925  1.00  0.00     0.083 N 
HETATM   20  H1  UNL     1      23.664   7.125  51.178  1.00  0.00     0.313 HD
HETATM   21  H2  UNL     1      25.183   6.553  51.634  1.00  0.00     0.313 HD
ENDBRANCH  16  19
ENDBRANCH  12  13
ENDBRANCH   1  12
BRANCH   9  22
HETATM   22  N6  UNL     1      23.284   1.304  53.302  1.00  0.00    -0.339 N 
HETATM   23  H15 UNL     1      23.309   2.321  53.510  1.00  0.00     0.167 HD
BRANCH  22  24
HETATM   24  C11 UNL     1      24.510   0.598  52.997  1.00  0.00     0.033 A 
HETATM   25  C12 UNL     1      24.859  -0.626  53.487  1.00  0.00     0.029 A 
HETATM   26  C13 UNL     1      26.069  -1.228  53.126  1.00  0.00     0.002 A 
HETATM   27  C14 UNL     1      26.937  -0.565  52.249  1.00  0.00     0.000 A 
HETATM   28  C15 UNL     1      26.581   0.677  51.752  1.00  0.00     0.002 A 
HETATM   29  C16 UNL     1      25.386   1.245  52.123  1.00  0.00     0.029 A 
ENDBRANCH  22  24
ENDBRANCH   9  22
TORSDOF 5
ENDMDL
MODEL 6
REMARK VINA RESULT:      -8.1      2.028      6.617
REMARK  5 active torsions:
REMARK  status: ('A' for Active; 'I' for Inactive)
REMARK    1  A    between atoms: N1_1  and  C1_2 
REMARK    2  A    between atoms: N2_5  and  C4_6 
REMARK    3  A    between atoms: C4_6  and  C5_7 
REMARK    4  A    between atoms: C10_15  and  N6_16 
REMARK    5  A    between atoms: N6_16  and  C11_17 
ROOT
HETATM    1  C5  UNL     1      25.868   2.335  51.703  1.00  0.00    -0.032 A 
HETATM    2  C6  UNL     1      24.677   2.579  51.198  1.00  0.00     0.044 A 
HETATM    3  C7  UNL     1      24.647   3.158  49.859  1.00  0.00     0.060 A 
HETATM    4  C8  UNL     1      25.918   3.268  49.535  1.00  0.00     0.010 A 
HETATM    5  C9  UNL     1      26.798   2.777  50.622  1.00  0.00     0.066 A 
HETATM    6  N3  UNL     1      23.380   3.442  49.293  1.00  0.00    -0.284 N 
HETATM    7  N4  UNL     1      22.205   3.162  50.015  1.00  0.00    -0.217 N 
HETATM    8  N5  UNL     1      22.325   2.610  51.278  1.00  0.00    -0.140 NA
HETATM    9  C10 UNL     1      23.421   2.320  51.871  1.00  0.00     0.162 A 
HETATM   10  H13 UNL     1      23.365   3.858  48.336  1.00  0.00     0.188 HD
HETATM   11  H14 UNL     1      21.275   3.375  49.583  1.00  0.00     0.210 HD
ENDROOT
BRANCH   1  12
HETATM   12  C4  UNL     1      26.573   1.817  52.869  1.00  0.00     0.308 C 
BRANCH  12  13
HETATM   13  N2  UNL     1      26.223   0.410  53.158  1.00  0.00     0.092 N 
HETATM   14  C3  UNL     1      26.341  -0.423  51.981  1.00  0.00     0.275 C 
HETATM   15  C2  UNL     1      26.851  -1.819  52.273  1.00  0.00     0.065 C 
HETATM   16  C1  UNL     1      28.303  -1.784  52.699  1.00  0.00     0.221 C 
HETATM   17  C18 UNL     1      28.423  -0.613  53.657  1.00  0.00     0.065 C 
HETATM   18  C17 UNL     1      27.100  -0.158  54.171  1.00  0.00     0.275 C 
BRANCH  16  19
HETATM   19  N1  UNL     1      28.634  -3.011  53.374  1.00  0.00     0.083 N 
HETATM   20  H1  UNL     1      29.137  -2.815  54.253  1.00  0.00     0.313 HD
HETATM   21  H2  UNL     1      29.295  -3.554  52.746  1.00  0.00     0.313 HD
ENDBRANCH  16  19
ENDBRANCH  12  13
ENDBRANCH   1  12
BRANCH   9  22
HETATM   22  N6  UNL     1      23.274   1.732  53.148  1.00  0.00    -0.339 N 
HETATM   23  H15 UNL     1      23.921   2.096  53.874  1.00  0.00     0.167 HD
BRANCH  22  24
HETATM   24  C11 UNL     1      22.335   0.681  53.474  1.00  0.00     0.033 A 
HETATM   25  C12 UNL     1      20.983   0.831  53.568  1.00  0.00     0.029 A 
HETATM   26  C13 UNL     1      20.158  -0.254  53.886  1.00  0.00     0.002 A 
HETATM   27  C14 UNL     1      20.728  -1.513  54.114  1.00  0.00     0.000 A 
HETATM   28  C15 UNL     1      22.101  -1.663  54.019  1.00  0.00     0.002 A 
HETATM   29  C16 UNL     1      22.888  -0.580  53.705  1.00  0.00     0.029 A 
ENDBRANCH  22  24
ENDBRANCH   9  22
TORSDOF 5
ENDMDL
MODEL 7
REMARK VINA RESULT:      -7.9      2.004      5.023
REMARK  5 active torsions:
REMARK  status: ('A' for Active; 'I' for Inactive)
REMARK    1  A    between atoms: N1_1  and  C1_2 
REMARK    2  A    between atoms: N2_5  and  C4_6 
REMARK    3  A    between atoms: C4_6  and  C5_7 
REMARK    4  A    between atoms: C10_15  and  N6_16 
REMARK    5  A    between atoms: N6_16  and  C11_17 
ROOT
HETATM    1  C5  UNL     1      25.314   0.563  52.955  1.00  0.00    -0.032 A 
HETATM    2  C6  UNL     1      24.700  -0.167  53.862  1.00  0.00     0.044 A 
HETATM    3  C7  UNL     1      25.432  -0.416  55.099  1.00  0.00     0.060 A 
HETATM    4  C8  UNL     1      26.573   0.215  54.922  1.00  0.00     0.010 A 
HETATM    5  C9  UNL     1      26.624   0.881  53.599  1.00  0.00     0.066 A 
HETATM    6  N3  UNL     1      24.800  -1.206  56.091  1.00  0.00    -0.284 N 
HETATM    7  N4  UNL     1      23.508  -1.719  55.867  1.00  0.00    -0.217 N 
HETATM    8  N5  UNL     1      22.885  -1.432  54.666  1.00  0.00    -0.140 NA
HETATM    9  C10 UNL     1      23.374  -0.731  53.714  1.00  0.00     0.162 A 
HETATM   10  H13 UNL     1      25.329  -1.382  56.972  1.00  0.00     0.188 HD
HETATM   11  H14 UNL     1      23.052  -2.301  56.609  1.00  0.00     0.210 HD
ENDROOT
BRANCH   1  12
HETATM   12  C4  UNL     1      25.191   1.144  51.624  1.00  0.00     0.308 C 
BRANCH  12  13
HETATM   13  N2  UNL     1      25.689   2.535  51.571  1.00  0.00     0.092 N 
HETATM   14  C3  UNL     1      26.479   2.775  50.383  1.00  0.00     0.275 C 
HETATM   15  C2  UNL     1      26.299   4.161  49.802  1.00  0.00     0.065 C 
HETATM   16  C1  UNL     1      24.913   4.323  49.216  1.00  0.00     0.221 C 
HETATM   17  C18 UNL     1      23.965   3.685  50.214  1.00  0.00     0.065 C 
HETATM   18  C17 UNL     1      24.592   3.492  51.553  1.00  0.00     0.275 C 
BRANCH  16  19
HETATM   19  N1  UNL     1      24.612   5.724  49.073  1.00  0.00     0.083 N 
HETATM   20  H1  UNL     1      25.365   6.297  49.481  1.00  0.00     0.313 HD
HETATM   21  H2  UNL     1      23.729   5.920  49.628  1.00  0.00     0.313 HD
ENDBRANCH  16  19
ENDBRANCH  12  13
ENDBRANCH   1  12
BRANCH   9  22
HETATM   22  N6  UNL     1      22.522  -0.555  52.601  1.00  0.00    -0.339 N 
HETATM   23  H15 UNL     1      22.649  -1.248  51.838  1.00  0.00     0.167 HD
BRANCH  22  24
HETATM   24  C11 UNL     1      21.547   0.505  52.460  1.00  0.00     0.033 A 
HETATM   25  C12 UNL     1      21.752   1.815  52.784  1.00  0.00     0.029 A 
HETATM   26  C13 UNL     1      20.743   2.767  52.605  1.00  0.00     0.002 A 
HETATM   27  C14 UNL     1      19.503   2.373  52.088  1.00  0.00     0.000 A 
HETATM   28  C15 UNL     1      19.297   1.043  51.761  1.00  0.00     0.002 A 
HETATM   29  C16 UNL     1      20.305   0.128  51.946  1.00  0.00     0.029 A 
ENDBRANCH  22  24
ENDBRANCH   9  22
TORSDOF 5
ENDMDL
MODEL 8
REMARK VINA RESULT:      -7.8      2.275      7.859
REMARK  5 active torsions:
REMARK  status: ('A' for Active; 'I' for Inactive)
REMARK    1  A    between atoms: N1_1  and  C1_2 
REMARK    2  A    between atoms: N2_5  and  C4_6 
REMARK    3  A    between atoms: C4_6  and  C5_7 
REMARK    4  A    between atoms: C10_15  and  N6_16 
REMARK    5  A    between atoms: N6_16  and  C11_17 
ROOT
HETATM    1  C5  UNL     1      25.067   3.715  50.322  1.00  0.00    -0.032 A 
HETATM    2  C6  UNL     1      25.144   5.023  50.437  1.00  0.00     0.044 A 
HETATM    3  C7  UNL     1      26.212   5.679  49.691  1.00  0.00     0.060 A 
HETATM    4  C8  UNL     1      26.823   4.687  49.079  1.00  0.00     0.010 A 
HETATM    5  C9  UNL     1      26.191   3.384  49.395  1.00  0.00     0.066 A 
HETATM    6  N3  UNL     1      26.326   7.087  49.803  1.00  0.00    -0.284 N 
HETATM    7  N4  UNL     1      25.424   7.806  50.610  1.00  0.00    -0.217 N 
HETATM    8  N5  UNL     1      24.439   7.105  51.281  1.00  0.00    -0.140 NA
HETATM    9  C10 UNL     1      24.258   5.838  51.243  1.00  0.00     0.162 A 
HETATM   10  H13 UNL     1      27.093   7.549  49.268  1.00  0.00     0.188 HD
HETATM   11  H14 UNL     1      25.519   8.846  50.682  1.00  0.00     0.210 HD
ENDROOT
BRANCH   1  12
HETATM   12  C4  UNL     1      24.326   2.532  50.745  1.00  0.00     0.308 C 
BRANCH  12  13
HETATM   13  N2  UNL     1      24.551   2.208  52.169  1.00  0.00     0.092 N 
HETATM   14  C3  UNL     1      23.752   1.079  52.594  1.00  0.00     0.275 C 
HETATM   15  C2  UNL     1      24.451   0.180  53.591  1.00  0.00     0.065 C 
HETATM   16  C1  UNL     1      25.598  -0.560  52.937  1.00  0.00     0.221 C 
HETATM   17  C18 UNL     1      26.305   0.462  52.066  1.00  0.00     0.065 C 
HETATM   18  C17 UNL     1      25.942   1.863  52.422  1.00  0.00     0.275 C 
BRANCH  16  19
HETATM   19  N1  UNL     1      26.494  -1.050  53.951  1.00  0.00     0.083 N 
HETATM   20  H1  UNL     1      27.400  -0.561  53.898  1.00  0.00     0.313 HD
HETATM   21  H2  UNL     1      26.676  -2.076  53.750  1.00  0.00     0.313 HD
ENDBRANCH  16  19
ENDBRANCH  12  13
ENDBRANCH   1  12
BRANCH   9  22
HETATM   22  N6  UNL     1      23.157   5.368  51.993  1.00  0.00    -0.339 N 
HETATM   23  H15 UNL     1      23.353   5.198  52.999  1.00  0.00     0.167 HD
BRANCH  22  24
HETATM   24  C11 UNL     1      21.842   5.096  51.456  1.00  0.00     0.033 A 
HETATM   25  C12 UNL     1      21.241   5.792  50.448  1.00  0.00     0.029 A 
HETATM   26  C13 UNL     1      19.963   5.444  49.995  1.00  0.00     0.002 A 
HETATM   27  C14 UNL     1      19.289   4.368  50.585  1.00  0.00     0.000 A 
HETATM   28  C15 UNL     1      19.900   3.663  51.608  1.00  0.00     0.002 A 
HETATM   29  C16 UNL     1      21.156   4.025  52.033  1.00  0.00     0.029 A 
ENDBRANCH  22  24
ENDBRANCH   9  22
TORSDOF 5
ENDMDL
MODEL 9
REMARK VINA RESULT:      -7.8      2.289      5.905
REMARK  5 active torsions:
REMARK  status: ('A' for Active; 'I' for Inactive)
REMARK    1  A    between atoms: N1_1  and  C1_2 
REMARK    2  A    between atoms: N2_5  and  C4_6 
REMARK    3  A    between atoms: C4_6  and  C5_7 
REMARK    4  A    between atoms: C10_15  and  N6_16 
REMARK    5  A    between atoms: N6_16  and  C11_17 
ROOT
HETATM    1  C5  UNL     1      25.034   0.044  53.618  1.00  0.00    -0.032 A 
HETATM    2  C6  UNL     1      26.013   0.891  53.385  1.00  0.00     0.044 A 
HETATM    3  C7  UNL     1      27.066   0.960  54.393  1.00  0.00     0.060 A 
HETATM    4  C8  UNL     1      26.689   0.084  55.301  1.00  0.00     0.010 A 
HETATM    5  C9  UNL     1      25.413  -0.569  54.927  1.00  0.00     0.066 A 
HETATM    6  N3  UNL     1      28.129   1.871  54.174  1.00  0.00    -0.284 N 
HETATM    7  N4  UNL     1      28.148   2.667  53.014  1.00  0.00    -0.217 N 
HETATM    8  N5  UNL     1      27.111   2.536  52.108  1.00  0.00    -0.140 NA
HETATM    9  C10 UNL     1      26.111   1.745  52.219  1.00  0.00     0.162 A 
HETATM   10  H13 UNL     1      28.877   1.916  54.899  1.00  0.00     0.188 HD
HETATM   11  H14 UNL     1      28.941   3.335  52.864  1.00  0.00     0.210 HD
ENDROOT
BRANCH   1  12
HETATM   12  C4  UNL     1      23.781  -0.488  53.095  1.00  0.00     0.308 C 
BRANCH  12  13
HETATM   13  N2  UNL     1      22.605   0.265  53.580  1.00  0.00     0.092 N 
HETATM   14  C3  UNL     1      21.695   0.587  52.502  1.00  0.00     0.275 C 
HETATM   15  C2  UNL     1      20.236   0.533  52.902  1.00  0.00     0.065 C 
HETATM   16  C1  UNL     1      19.805  -0.893  53.175  1.00  0.00     0.221 C 
HETATM   17  C18 UNL     1      20.933  -1.519  53.973  1.00  0.00     0.065 C 
HETATM   18  C17 UNL     1      21.850  -0.502  54.560  1.00  0.00     0.275 C 
BRANCH  16  19
HETATM   19  N1  UNL     1      18.593  -0.887  53.952  1.00  0.00     0.083 N 
HETATM   20  H1  UNL     1      18.380  -1.836  54.295  1.00  0.00     0.313 HD
HETATM   21  H2  UNL     1      17.800  -0.598  53.308  1.00  0.00     0.313 HD
ENDBRANCH  16  19
ENDBRANCH  12  13
ENDBRANCH   1  12
BRANCH   9  22
HETATM   22  N6  UNL     1      25.201   1.774  51.138  1.00  0.00    -0.339 N 
HETATM   23  H15 UNL     1      25.367   1.057  50.406  1.00  0.00     0.167 HD
BRANCH  22  24
HETATM   24  C11 UNL     1      24.119   2.723  50.989  1.00  0.00     0.033 A 
HETATM   25  C12 UNL     1      23.424   2.954  49.838  1.00  0.00     0.029 A 
HETATM   26  C13 UNL     1      22.388   3.894  49.799  1.00  0.00     0.002 A 
HETATM   27  C14 UNL     1      22.059   4.610  50.958  1.00  0.00     0.000 A 
HETATM   28  C15 UNL     1      22.766   4.374  52.124  1.00  0.00     0.002 A 
HETATM   29  C16 UNL     1      23.779   3.445  52.135  1.00  0.00     0.029 A 
ENDBRANCH  22  24
ENDBRANCH   9  22
TORSDOF 5
ENDMDL
