MODEL 1
REMARK VINA RESULT:      -8.1      0.000      0.000
REMARK  0 active torsions:
REMARK  status: ('A' for Active; 'I' for Inactive)
REMARK       I    between atoms: N1_1  and  C1_2 
ROOT
HETATM    1  N1  UNL     1      29.002   1.334  53.174  1.00  0.00    -0.233 N 
HETATM    2  C1  UNL     1      27.657   1.597  53.629  1.00  0.00     0.690 C 
HETATM    3  N2  UNL     1      26.556   1.348  54.302  1.00  0.00    -0.089 NA
HETATM    4  C2  UNL     1      26.593   0.126  55.075  1.00  0.00     0.285 C 
HETATM    5  N3  UNL     1      25.732  -0.889  54.482  1.00  0.00    -0.397 N 
HETATM    6  C3  UNL     1      24.292  -0.866  54.616  1.00  0.00     0.106 C 
HETATM    7  C4  UNL     1      23.122  -1.330  55.107  1.00  0.00     0.025 C 
HETATM    8  C5  UNL     1      22.243  -0.319  54.402  1.00  0.00     0.022 C 
HETATM    9  C6  UNL     1      20.884  -0.086  54.354  1.00  0.00    -0.021 C 
HETATM   10  C7  UNL     1      20.429   1.040  53.520  1.00  0.00    -0.000 C 
HETATM   11  C8  UNL     1      20.544   2.073  52.706  1.00  0.00     0.049 C 
HETATM   12  C9  UNL     1      21.660   2.755  52.076  1.00  0.00     0.166 A 
HETATM   13  O1  UNL     1      21.524   3.766  51.300  1.00  0.00    -0.247 OA
HETATM   14  S1  UNL     1      23.120   3.448  51.404  1.00  0.00     0.117 S 
HETATM   15  O2  UNL     1      24.032   4.013  52.506  1.00  0.00    -0.236 OA
HETATM   16  C10 UNL     1      24.030   2.310  50.359  1.00  0.00     0.132 C 
HETATM   17  C11 UNL     1      25.269   2.901  49.780  1.00  0.00     0.016 C 
HETATM   18  C12 UNL     1      26.222   3.451  50.806  1.00  0.00     0.021 C 
HETATM   19  C13 UNL     1      26.569   2.360  51.756  1.00  0.00     0.138 C 
HETATM   20  N4  UNL     1      27.469   2.796  52.836  1.00  0.00    -0.225 N 
HETATM   21  H1  UNL     1      29.763   1.768  53.768  1.00  0.00     0.174 HD
HETATM   22  H2  UNL     1      29.092   0.738  52.300  1.00  0.00     0.174 HD
HETATM   23  H5  UNL     1      26.376  -1.572  53.949  1.00  0.00     0.155 HD
HETATM   24  H20 UNL     1      27.903   3.738  53.035  1.00  0.00     0.177 HD
ENDROOT
TORSDOF 0
ENDMDL
MODEL 2
REMARK VINA RESULT:      -7.9      2.962      5.854
REMARK  0 active torsions:
REMARK  status: ('A' for Active; 'I' for Inactive)
REMARK       I    between atoms: N1_1  and  C1_2 
ROOT
HETATM    1  N1  UNL     1      21.586  -1.923  54.422  1.00  0.00    -0.233 N 
HETATM    2  C1  UNL     1      22.014  -0.637  53.926  1.00  0.00     0.690 C 
HETATM    3  N2  UNL     1      21.925   0.445  53.184  1.00  0.00    -0.089 NA
HETATM    4  C2  UNL     1      20.765   0.484  52.323  1.00  0.00     0.285 C 
HETATM    5  N3  UNL     1      21.147   0.301  50.929  1.00  0.00    -0.397 N 
HETATM    6  C3  UNL     1      21.747   1.354  50.140  1.00  0.00     0.106 C 
HETATM    7  C4  UNL     1      21.728   2.284  49.161  1.00  0.00     0.025 C 
HETATM    8  C5  UNL     1      23.144   2.773  49.379  1.00  0.00     0.022 C 
HETATM    9  C6  UNL     1      23.940   3.730  48.781  1.00  0.00    -0.021 C 
HETATM   10  C7  UNL     1      25.301   3.893  49.317  1.00  0.00    -0.000 C 
HETATM   11  C8  UNL     1      26.333   3.658  50.107  1.00  0.00     0.049 C 
HETATM   12  C9  UNL     1      26.584   2.752  51.212  1.00  0.00     0.166 A 
HETATM   13  O1  UNL     1      27.696   2.701  51.847  1.00  0.00    -0.247 OA
HETATM   14  S1  UNL     1      26.706   1.594  52.519  1.00  0.00     0.117 S 
HETATM   15  O2  UNL     1      25.712   1.912  53.647  1.00  0.00    -0.236 OA
HETATM   16  C10 UNL     1      26.518  -0.106  51.979  1.00  0.00     0.132 C 
HETATM   17  C11 UNL     1      26.631  -1.094  53.089  1.00  0.00     0.016 C 
HETATM   18  C12 UNL     1      25.666  -0.858  54.219  1.00  0.00     0.021 C 
HETATM   19  C13 UNL     1      24.285  -0.863  53.665  1.00  0.00     0.138 C 
HETATM   20  N4  UNL     1      23.252  -0.596  54.679  1.00  0.00    -0.225 N 
HETATM   21  H1  UNL     1      20.981  -1.883  55.290  1.00  0.00     0.174 HD
HETATM   22  H2  UNL     1      21.917  -2.770  53.874  1.00  0.00     0.174 HD
HETATM   23  H5  UNL     1      20.917  -0.723  50.674  1.00  0.00     0.155 HD
HETATM   24  H20 UNL     1      23.334  -0.414  55.716  1.00  0.00     0.177 HD
ENDROOT
TORSDOF 0
ENDMDL
MODEL 3
REMARK VINA RESULT:      -7.6      2.904      4.742
REMARK  0 active torsions:
REMARK  status: ('A' for Active; 'I' for Inactive)
REMARK       I    between atoms: N1_1  and  C1_2 
ROOT
HETATM    1  N1  UNL     1      25.896   4.678  49.390  1.00  0.00    -0.233 N 
HETATM    2  C1  UNL     1      25.167   3.518  49.844  1.00  0.00     0.690 C 
HETATM    3  N2  UNL     1      24.088   2.828  50.140  1.00  0.00    -0.089 NA
HETATM    4  C2  UNL     1      22.848   3.540  49.927  1.00  0.00     0.285 C 
HETATM    5  N3  UNL     1      22.227   3.892  51.197  1.00  0.00    -0.397 N 
HETATM    6  C3  UNL     1      21.517   2.931  52.012  1.00  0.00     0.106 C 
HETATM    7  C4  UNL     1      20.395   2.402  52.545  1.00  0.00     0.025 C 
HETATM    8  C5  UNL     1      21.089   1.294  53.308  1.00  0.00     0.022 C 
HETATM    9  C6  UNL     1      20.662   0.278  54.139  1.00  0.00    -0.021 C 
HETATM   10  C7  UNL     1      21.698  -0.612  54.689  1.00  0.00    -0.000 C 
HETATM   11  C8  UNL     1      22.917  -1.080  54.891  1.00  0.00     0.049 C 
HETATM   12  C9  UNL     1      24.240  -0.708  54.428  1.00  0.00     0.166 A 
HETATM   13  O1  UNL     1      25.309  -1.328  54.768  1.00  0.00    -0.247 OA
HETATM   14  S1  UNL     1      25.751  -0.116  53.771  1.00  0.00     0.117 S 
HETATM   15  O2  UNL     1      25.785  -0.241  52.239  1.00  0.00    -0.236 OA
HETATM   16  C10 UNL     1      26.132   1.563  54.272  1.00  0.00     0.132 C 
HETATM   17  C11 UNL     1      27.422   2.066  53.721  1.00  0.00     0.016 C 
HETATM   18  C12 UNL     1      27.515   1.998  52.221  1.00  0.00     0.021 C 
HETATM   19  C13 UNL     1      26.377   2.765  51.646  1.00  0.00     0.138 C 
HETATM   20  N4  UNL     1      26.339   2.732  50.174  1.00  0.00    -0.225 N 
HETATM   21  H1  UNL     1      26.113   4.687  48.354  1.00  0.00     0.174 HD
HETATM   22  H2  UNL     1      26.138   5.399  50.131  1.00  0.00     0.174 HD
HETATM   23  H5  UNL     1      22.438   4.937  51.369  1.00  0.00     0.155 HD
HETATM   24  H20 UNL     1      26.983   2.266  49.479  1.00  0.00     0.177 HD
ENDROOT
TORSDOF 0
ENDMDL
MODEL 4
REMARK VINA RESULT:      -7.6      2.075      3.133
REMARK  0 active torsions:
REMARK  status: ('A' for Active; 'I' for Inactive)
REMARK       I    between atoms: N1_1  and  C1_2 
ROOT
HETATM    1  N1  UNL     1      26.783   3.624  49.332  1.00  0.00    -0.233 N 
HETATM    2  C1  UNL     1      25.986   3.320  50.497  1.00  0.00     0.690 C 
HETATM    3  N2  UNL     1      25.748   2.779  51.671  1.00  0.00    -0.089 NA
HETATM    4  C2  UNL     1      26.855   2.025  52.215  1.00  0.00     0.285 C 
HETATM    5  N3  UNL     1      26.575   0.596  52.183  1.00  0.00    -0.397 N 
HETATM    6  C3  UNL     1      25.692  -0.049  53.130  1.00  0.00     0.106 C 
HETATM    7  C4  UNL     1      25.440  -0.853  54.185  1.00  0.00     0.025 C 
HETATM    8  C5  UNL     1      23.938  -0.663  54.174  1.00  0.00     0.022 C 
HETATM    9  C6  UNL     1      22.896  -1.149  54.937  1.00  0.00    -0.021 C 
HETATM   10  C7  UNL     1      21.541  -0.696  54.581  1.00  0.00    -0.000 C 
HETATM   11  C8  UNL     1      20.619  -0.035  53.905  1.00  0.00     0.049 C 
HETATM   12  C9  UNL     1      20.641   0.881  52.780  1.00  0.00     0.166 A 
HETATM   13  O1  UNL     1      19.588   1.414  52.280  1.00  0.00    -0.247 OA
HETATM   14  S1  UNL     1      20.861   1.963  51.421  1.00  0.00     0.117 S 
HETATM   15  O2  UNL     1      21.685   3.199  51.814  1.00  0.00    -0.236 OA
HETATM   16  C10 UNL     1      21.578   1.161  49.986  1.00  0.00     0.132 C 
HETATM   17  C11 UNL     1      21.757   2.078  48.825  1.00  0.00     0.016 C 
HETATM   18  C12 UNL     1      22.580   3.300  49.132  1.00  0.00     0.021 C 
HETATM   19  C13 UNL     1      23.904   2.857  49.646  1.00  0.00     0.138 C 
HETATM   20  N4  UNL     1      24.784   3.976  50.023  1.00  0.00    -0.225 N 
HETATM   21  H1  UNL     1      27.330   4.529  49.395  1.00  0.00     0.174 HD
HETATM   22  H2  UNL     1      26.743   2.919  48.540  1.00  0.00     0.174 HD
HETATM   23  H5  UNL     1      27.116   0.190  51.341  1.00  0.00     0.155 HD
HETATM   24  H20 UNL     1      24.629   5.019  49.980  1.00  0.00     0.177 HD
ENDROOT
TORSDOF 0
ENDMDL
MODEL 5
REMARK VINA RESULT:      -7.4      1.739      5.112
REMARK  0 active torsions:
REMARK  status: ('A' for Active; 'I' for Inactive)
REMARK       I    between atoms: N1_1  and  C1_2 
ROOT
HETATM    1  N1  UNL     1      23.064  -1.551  55.709  1.00  0.00    -0.233 N 
HETATM    2  C1  UNL     1      23.516  -1.118  54.408  1.00  0.00     0.690 C 
HETATM    3  N2  UNL     1      24.404  -0.710  53.529  1.00  0.00    -0.089 NA
HETATM    4  C2  UNL     1      25.746  -0.583  54.052  1.00  0.00     0.285 C 
HETATM    5  N3  UNL     1      26.125   0.819  54.174  1.00  0.00    -0.397 N 
HETATM    6  C3  UNL     1      26.510   1.625  53.036  1.00  0.00     0.106 C 
HETATM    7  C4  UNL     1      27.411   2.293  52.285  1.00  0.00     0.025 C 
HETATM    8  C5  UNL     1      26.427   2.756  51.231  1.00  0.00     0.022 C 
HETATM    9  C6  UNL     1      26.526   3.516  50.083  1.00  0.00    -0.021 C 
HETATM   10  C7  UNL     1      25.286   3.734  49.320  1.00  0.00    -0.000 C 
HETATM   11  C8  UNL     1      24.000   3.632  49.035  1.00  0.00     0.049 C 
HETATM   12  C9  UNL     1      22.868   2.972  49.657  1.00  0.00     0.166 A 
HETATM   13  O1  UNL     1      21.677   3.014  49.184  1.00  0.00    -0.247 OA
HETATM   14  S1  UNL     1      21.625   2.116  50.544  1.00  0.00     0.117 S 
HETATM   15  O2  UNL     1      21.900   0.604  50.578  1.00  0.00    -0.236 OA
HETATM   16  C10 UNL     1      21.378   2.746  52.205  1.00  0.00     0.132 C 
HETATM   17  C11 UNL     1      20.315   2.024  52.958  1.00  0.00     0.016 C 
HETATM   18  C12 UNL     1      20.534   0.539  53.055  1.00  0.00     0.021 C 
HETATM   19  C13 UNL     1      21.861   0.301  53.683  1.00  0.00     0.138 C 
HETATM   20  N4  UNL     1      22.205  -1.127  53.791  1.00  0.00    -0.225 N 
HETATM   21  H1  UNL     1      23.075  -2.600  55.854  1.00  0.00     0.174 HD
HETATM   22  H2  UNL     1      22.771  -0.785  56.383  1.00  0.00     0.174 HD
HETATM   23  H5  UNL     1      26.026   1.080  55.217  1.00  0.00     0.155 HD
HETATM   24  H20 UNL     1      21.666  -1.989  53.504  1.00  0.00     0.177 HD
ENDROOT
TORSDOF 0
ENDMDL
MODEL 6
REMARK VINA RESULT:      -7.1      3.771      5.603
REMARK  0 active torsions:
REMARK  status: ('A' for Active; 'I' for Inactive)
REMARK       I    between atoms: N1_1  and  C1_2 
ROOT
HETATM    1  N1  UNL     1      18.179   3.229  51.583  1.00  0.00    -0.233 N 
HETATM    2  C1  UNL     1      19.389   2.482  51.331  1.00  0.00     0.690 C 
HETATM    3  N2  UNL     1      20.226   1.481  51.488  1.00  0.00    -0.089 NA
HETATM    4  C2  UNL     1      19.793   0.484  52.442  1.00  0.00     0.285 C 
HETATM    5  N3  UNL     1      20.596   0.545  53.656  1.00  0.00    -0.397 N 
HETATM    6  C3  UNL     1      21.938   0.011  53.732  1.00  0.00     0.106 C 
HETATM    7  C4  UNL     1      22.852  -0.891  54.150  1.00  0.00     0.025 C 
HETATM    8  C5  UNL     1      24.036  -0.250  53.458  1.00  0.00     0.022 C 
HETATM    9  C6  UNL     1      25.382  -0.542  53.374  1.00  0.00    -0.021 C 
HETATM   10  C7  UNL     1      26.213   0.368  52.568  1.00  0.00    -0.000 C 
HETATM   11  C8  UNL     1      26.481   1.402  51.792  1.00  0.00     0.049 C 
HETATM   12  C9  UNL     1      25.690   2.470  51.207  1.00  0.00     0.166 A 
HETATM   13  O1  UNL     1      26.183   3.391  50.465  1.00  0.00    -0.247 OA
HETATM   14  S1  UNL     1      24.583   3.678  50.592  1.00  0.00     0.117 S 
HETATM   15  O2  UNL     1      23.529   3.053  49.664  1.00  0.00    -0.236 OA
HETATM   16  C10 UNL     1      23.793   4.639  51.883  1.00  0.00     0.132 C 
HETATM   17  C11 UNL     1      22.857   5.674  51.360  1.00  0.00     0.016 C 
HETATM   18  C12 UNL     1      21.779   5.128  50.464  1.00  0.00     0.021 C 
HETATM   19  C13 UNL     1      21.027   4.087  51.216  1.00  0.00     0.138 C 
HETATM   20  N4  UNL     1      19.967   3.448  50.418  1.00  0.00    -0.225 N 
HETATM   21  H1  UNL     1      17.375   3.000  50.933  1.00  0.00     0.174 HD
HETATM   22  H2  UNL     1      18.216   3.924  52.384  1.00  0.00     0.174 HD
HETATM   23  H5  UNL     1      20.005   1.063  54.396  1.00  0.00     0.155 HD
HETATM   24  H20 UNL     1      19.660   3.612  49.422  1.00  0.00     0.177 HD
ENDROOT
TORSDOF 0
ENDMDL
MODEL 7
REMARK VINA RESULT:      -7.0      2.280      5.105
REMARK  0 active torsions:
REMARK  status: ('A' for Active; 'I' for Inactive)
REMARK       I    between atoms: N1_1  and  C1_2 
ROOT
HETATM    1  N1  UNL     1      25.917  -0.305  54.710  1.00  0.00    -0.233 N 
HETATM    2  C1  UNL     1      25.413  -0.037  53.384  1.00  0.00     0.690 C 
HETATM    3  N2  UNL     1      25.428   0.518  52.192  1.00  0.00    -0.089 NA
HETATM    4  C2  UNL     1      26.559   1.386  51.952  1.00  0.00     0.285 C 
HETATM    5  N3  UNL     1      26.145   2.782  51.925  1.00  0.00    -0.397 N 
HETATM    6  C3  UNL     1      25.471   3.374  50.790  1.00  0.00     0.106 C 
HETATM    7  C4  UNL     1      25.417   4.186  49.712  1.00  0.00     0.025 C 
HETATM    8  C5  UNL     1      23.986   3.860  49.340  1.00  0.00     0.022 C 
HETATM    9  C6  UNL     1      23.128   4.275  48.341  1.00  0.00    -0.021 C 
HETATM   10  C7  UNL     1      21.777   3.690  48.339  1.00  0.00    -0.000 C 
HETATM   11  C8  UNL     1      20.782   2.927  48.754  1.00  0.00     0.049 C 
HETATM   12  C9  UNL     1      20.607   1.981  49.840  1.00  0.00     0.166 A 
HETATM   13  O1  UNL     1      19.518   1.340  50.052  1.00  0.00    -0.247 OA
HETATM   14  S1  UNL     1      20.580   0.881  51.202  1.00  0.00     0.117 S 
HETATM   15  O2  UNL     1      21.591  -0.263  51.020  1.00  0.00    -0.236 OA
HETATM   16  C10 UNL     1      20.832   1.697  52.778  1.00  0.00     0.132 C 
HETATM   17  C11 UNL     1      20.801   0.764  53.939  1.00  0.00     0.016 C 
HETATM   18  C12 UNL     1      21.787  -0.368  53.841  1.00  0.00     0.021 C 
HETATM   19  C13 UNL     1      23.149   0.209  53.682  1.00  0.00     0.138 C 
HETATM   20  N4  UNL     1      24.198  -0.814  53.532  1.00  0.00    -0.225 N 
HETATM   21  H1  UNL     1      26.545  -1.154  54.781  1.00  0.00     0.174 HD
HETATM   22  H2  UNL     1      25.611   0.368  55.472  1.00  0.00     0.174 HD
HETATM   23  H5  UNL     1      26.415   3.207  52.879  1.00  0.00     0.155 HD
HETATM   24  H20 UNL     1      24.138  -1.868  53.526  1.00  0.00     0.177 HD
ENDROOT
TORSDOF 0
ENDMDL
MODEL 8
REMARK VINA RESULT:      -6.8      3.274      4.507
REMARK  0 active torsions:
REMARK  status: ('A' for Active; 'I' for Inactive)
REMARK       I    between atoms: N1_1  and  C1_2 
ROOT
HETATM    1  N1  UNL     1      23.993   5.776  50.909  1.00  0.00    -0.233 N 
HETATM    2  C1  UNL     1      23.267   4.883  51.780  1.00  0.00     0.690 C 
HETATM    3  N2  UNL     1      23.144   3.926  52.673  1.00  0.00    -0.089 NA
HETATM    4  C2  UNL     1      24.399   3.362  53.119  1.00  0.00     0.285 C 
HETATM    5  N3  UNL     1      24.576   2.014  52.596  1.00  0.00    -0.397 N 
HETATM    6  C3  UNL     1      23.884   0.867  53.143  1.00  0.00     0.106 C 
HETATM    7  C4  UNL     1      23.836  -0.289  53.840  1.00  0.00     0.025 C 
HETATM    8  C5  UNL     1      22.351  -0.523  53.656  1.00  0.00     0.022 C 
HETATM    9  C6  UNL     1      21.470  -1.507  54.056  1.00  0.00    -0.021 C 
HETATM   10  C7  UNL     1      20.063  -1.345  53.654  1.00  0.00    -0.000 C 
HETATM   11  C8  UNL     1      19.020  -0.769  53.085  1.00  0.00     0.049 C 
HETATM   12  C9  UNL     1      18.820   0.449  52.322  1.00  0.00     0.166 A 
HETATM   13  O1  UNL     1      17.683   0.814  51.857  1.00  0.00    -0.247 OA
HETATM   14  S1  UNL     1      18.769   1.951  51.422  1.00  0.00     0.117 S 
HETATM   15  O2  UNL     1      19.149   3.149  52.307  1.00  0.00    -0.236 OA
HETATM   16  C10 UNL     1      19.774   1.922  49.938  1.00  0.00     0.132 C 
HETATM   17  C11 UNL     1      19.725   3.196  49.167  1.00  0.00     0.016 C 
HETATM   18  C12 UNL     1      20.112   4.411  49.965  1.00  0.00     0.021 C 
HETATM   19  C13 UNL     1      21.478   4.195  50.514  1.00  0.00     0.138 C 
HETATM   20  N4  UNL     1      21.948   5.309  51.355  1.00  0.00    -0.225 N 
HETATM   21  H1  UNL     1      24.230   6.715  51.336  1.00  0.00     0.174 HD
HETATM   22  H2  UNL     1      24.216   5.406  49.939  1.00  0.00     0.174 HD
HETATM   23  H5  UNL     1      25.260   2.088  51.764  1.00  0.00     0.155 HD
HETATM   24  H20 UNL     1      21.482   6.218  51.618  1.00  0.00     0.177 HD
ENDROOT
TORSDOF 0
ENDMDL
MODEL 9
REMARK VINA RESULT:      -6.8      3.459      5.387
REMARK  0 active torsions:
REMARK  status: ('A' for Active; 'I' for Inactive)
REMARK       I    between atoms: N1_1  and  C1_2 
ROOT
HETATM    1  N1  UNL     1      22.471   5.644  48.711  1.00  0.00    -0.233 N 
HETATM    2  C1  UNL     1      22.574   4.948  49.973  1.00  0.00     0.690 C 
HETATM    3  N2  UNL     1      23.210   4.359  50.961  1.00  0.00    -0.089 NA
HETATM    4  C2  UNL     1      24.648   4.326  50.809  1.00  0.00     0.285 C 
HETATM    5  N3  UNL     1      25.108   2.975  50.518  1.00  0.00    -0.397 N 
HETATM    6  C3  UNL     1      25.208   1.949  51.533  1.00  0.00     0.106 C 
HETATM    7  C4  UNL     1      25.902   1.131  52.352  1.00  0.00     0.025 C 
HETATM    8  C5  UNL     1      24.693   0.473  52.983  1.00  0.00     0.022 C 
HETATM    9  C6  UNL     1      24.513  -0.506  53.939  1.00  0.00    -0.021 C 
HETATM   10  C7  UNL     1      23.124  -0.860  54.276  1.00  0.00    -0.000 C 
HETATM   11  C8  UNL     1      21.806  -0.804  54.214  1.00  0.00     0.049 C 
HETATM   12  C9  UNL     1      20.855  -0.017  53.452  1.00  0.00     0.166 A 
HETATM   13  O1  UNL     1      19.584  -0.141  53.564  1.00  0.00    -0.247 OA
HETATM   14  S1  UNL     1      19.860   1.016  52.449  1.00  0.00     0.117 S 
HETATM   15  O2  UNL     1      20.066   2.500  52.793  1.00  0.00    -0.236 OA
HETATM   16  C10 UNL     1      20.097   0.741  50.693  1.00  0.00     0.132 C 
HETATM   17  C11 UNL     1      19.245   1.614  49.838  1.00  0.00     0.016 C 
HETATM   18  C12 UNL     1      19.415   3.085  50.103  1.00  0.00     0.021 C 
HETATM   19  C13 UNL     1      20.851   3.431  49.921  1.00  0.00     0.138 C 
HETATM   20  N4  UNL     1      21.146   4.847  50.198  1.00  0.00    -0.225 N 
HETATM   21  H1  UNL     1      22.473   6.699  48.787  1.00  0.00     0.174 HD
HETATM   22  H2  UNL     1      22.404   5.034  47.845  1.00  0.00     0.174 HD
HETATM   23  H5  UNL     1      25.305   2.933  49.457  1.00  0.00     0.155 HD
HETATM   24  H20 UNL     1      20.513   5.638  50.493  1.00  0.00     0.177 HD
ENDROOT
TORSDOF 0
ENDMDL
