MODEL 1
REMARK VINA RESULT:      -9.0      0.000      0.000
REMARK  3 active torsions:
REMARK  status: ('A' for Active; 'I' for Inactive)
REMARK    1  A    between atoms: O1_1  and  C1_2 
REMARK    2  A    between atoms: C5_6  and  C6_7 
REMARK    3  A    between atoms: N1_20  and  C17_21 
ROOT
HETATM    1  C6  UNL     1      23.412   1.679  52.670  1.00  0.00     0.125 C 
HETATM    2  C7  UNL     1      22.770   0.346  52.650  1.00  0.00     0.035 C 
HETATM    3  C8  UNL     1      21.330   0.263  53.051  1.00  0.00     0.037 C 
HETATM    4  C9  UNL     1      20.416   0.514  51.876  1.00  0.00    -0.066 C 
HETATM    5  C10 UNL     1      20.772   0.348  50.569  1.00  0.00     0.008 C 
HETATM    6  C11 UNL     1      21.897   1.023  49.812  1.00  0.00     0.056 C 
HETATM    7  C12 UNL     1      22.265   2.179  50.446  1.00  0.00     0.147 C 
HETATM    8  O2  UNL     1      21.628   3.408  50.074  1.00  0.00    -0.309 OA
HETATM    9  C13 UNL     1      20.213   3.167  49.794  1.00  0.00     0.353 C 
HETATM   10  O3  UNL     1      19.523   3.066  51.038  1.00  0.00    -0.329 OA
HETATM   11  C14 UNL     1      18.655   1.977  51.255  1.00  0.00     0.058 A 
HETATM   12  C15 UNL     1      17.883   0.859  51.564  1.00  0.00     0.022 A 
HETATM   13  C16 UNL     1      19.094   1.007  52.334  1.00  0.00     0.096 A 
HETATM   14  N1  UNL     1      23.193   2.495  51.476  1.00  0.00    -0.319 N 
ENDROOT
BRANCH   1  15
HETATM   15  C5  UNL     1      24.877   1.468  52.797  1.00  0.00    -0.032 A 
HETATM   16  C4  UNL     1      25.475   0.360  52.185  1.00  0.00     0.009 A 
HETATM   17  C3  UNL     1      26.811   0.020  52.197  1.00  0.00     0.003 A 
HETATM   18  C2  UNL     1      27.641   0.873  52.893  1.00  0.00     0.036 A 
HETATM   19  C1  UNL     1      27.115   1.984  53.519  1.00  0.00     0.066 A 
HETATM   20  C23 UNL     1      25.768   2.267  53.468  1.00  0.00     0.045 A 
BRANCH  19  21
HETATM   21  O1  UNL     1      27.961   2.849  54.225  1.00  0.00    -0.361 OA
HETATM   22  H1  UNL     1      28.932   2.547  54.340  1.00  0.00     0.217 HD
ENDBRANCH  19  21
ENDBRANCH   1  15
BRANCH  14  23
HETATM   23  C17 UNL     1      23.790   3.710  51.125  1.00  0.00     0.037 A 
HETATM   24  C18 UNL     1      24.677   3.504  50.067  1.00  0.00     0.029 A 
HETATM   25  C19 UNL     1      25.417   4.558  49.517  1.00  0.00     0.002 A 
HETATM   26  C20 UNL     1      25.236   5.815  50.065  1.00  0.00     0.000 A 
HETATM   27  C21 UNL     1      24.368   6.054  51.111  1.00  0.00     0.002 A 
HETATM   28  C22 UNL     1      23.663   4.990  51.618  1.00  0.00     0.029 A 
ENDBRANCH  14  23
TORSDOF 3
ENDMDL
MODEL 2
REMARK VINA RESULT:      -8.9      2.311      4.947
REMARK  3 active torsions:
REMARK  status: ('A' for Active; 'I' for Inactive)
REMARK    1  A    between atoms: O1_1  and  C1_2 
REMARK    2  A    between atoms: C5_6  and  C6_7 
REMARK    3  A    between atoms: N1_20  and  C17_21 
ROOT
HETATM    1  C6  UNL     1      25.647   0.938  51.641  1.00  0.00     0.125 C 
HETATM    2  C7  UNL     1      26.221   2.187  51.091  1.00  0.00     0.035 C 
HETATM    3  C8  UNL     1      25.537   2.803  49.910  1.00  0.00     0.037 C 
HETATM    4  C9  UNL     1      24.421   3.725  50.340  1.00  0.00    -0.066 C 
HETATM    5  C10 UNL     1      24.335   4.319  51.566  1.00  0.00     0.008 C 
HETATM    6  C11 UNL     1      24.282   3.655  52.926  1.00  0.00     0.056 C 
HETATM    7  C12 UNL     1      23.871   2.356  52.801  1.00  0.00     0.147 C 
HETATM    8  O2  UNL     1      22.471   2.059  52.893  1.00  0.00    -0.309 OA
HETATM    9  C13 UNL     1      21.698   3.118  52.246  1.00  0.00     0.353 C 
HETATM   10  O3  UNL     1      21.755   2.914  50.836  1.00  0.00    -0.329 OA
HETATM   11  C14 UNL     1      22.090   3.997  49.998  1.00  0.00     0.058 A 
HETATM   12  C15 UNL     1      22.533   5.001  49.140  1.00  0.00     0.022 A 
HETATM   13  C16 UNL     1      23.408   3.861  49.265  1.00  0.00     0.096 A 
HETATM   14  N1  UNL     1      24.537   1.119  52.575  1.00  0.00    -0.319 N 
ENDROOT
BRANCH   1  15
HETATM   15  C5  UNL     1      26.731   0.235  52.376  1.00  0.00    -0.032 A 
HETATM   16  C4  UNL     1      27.600   0.964  53.198  1.00  0.00     0.009 A 
HETATM   17  C3  UNL     1      28.646   0.472  53.950  1.00  0.00     0.003 A 
HETATM   18  C2  UNL     1      28.850  -0.889  53.876  1.00  0.00     0.036 A 
HETATM   19  C1  UNL     1      28.028  -1.665  53.085  1.00  0.00     0.066 A 
HETATM   20  C23 UNL     1      26.999  -1.110  52.357  1.00  0.00     0.045 A 
BRANCH  19  21
HETATM   21  O1  UNL     1      28.239  -3.048  53.012  1.00  0.00    -0.361 OA
HETATM   22  H1  UNL     1      27.516  -3.644  53.424  1.00  0.00     0.217 HD
ENDBRANCH  19  21
ENDBRANCH   1  15
BRANCH  14  23
HETATM   23  C17 UNL     1      23.903   0.165  53.377  1.00  0.00     0.037 A 
HETATM   24  C18 UNL     1      22.826  -0.385  52.684  1.00  0.00     0.029 A 
HETATM   25  C19 UNL     1      22.010  -1.368  53.257  1.00  0.00     0.002 A 
HETATM   26  C20 UNL     1      22.315  -1.773  54.544  1.00  0.00     0.000 A 
HETATM   27  C21 UNL     1      23.373  -1.250  55.260  1.00  0.00     0.002 A 
HETATM   28  C22 UNL     1      24.145  -0.288  54.656  1.00  0.00     0.029 A 
ENDBRANCH  14  23
TORSDOF 3
ENDMDL
MODEL 3
REMARK VINA RESULT:      -8.7      1.885      4.557
REMARK  3 active torsions:
REMARK  status: ('A' for Active; 'I' for Inactive)
REMARK    1  A    between atoms: O1_1  and  C1_2 
REMARK    2  A    between atoms: C5_6  and  C6_7 
REMARK    3  A    between atoms: N1_20  and  C17_21 
ROOT
HETATM    1  C6  UNL     1      25.385   1.503  51.499  1.00  0.00     0.125 C 
HETATM    2  C7  UNL     1      25.947   2.792  51.037  1.00  0.00     0.035 C 
HETATM    3  C8  UNL     1      25.357   3.405  49.805  1.00  0.00     0.037 C 
HETATM    4  C9  UNL     1      24.158   4.260  50.137  1.00  0.00    -0.066 C 
HETATM    5  C10 UNL     1      23.917   4.817  51.359  1.00  0.00     0.008 C 
HETATM    6  C11 UNL     1      23.760   4.116  52.693  1.00  0.00     0.056 C 
HETATM    7  C12 UNL     1      23.430   2.802  52.499  1.00  0.00     0.147 C 
HETATM    8  O2  UNL     1      22.045   2.436  52.441  1.00  0.00    -0.309 OA
HETATM    9  C13 UNL     1      21.289   3.473  51.739  1.00  0.00     0.353 C 
HETATM   10  O3  UNL     1      21.499   3.309  50.339  1.00  0.00    -0.329 OA
HETATM   11  C14 UNL     1      21.862   4.428  49.563  1.00  0.00     0.058 A 
HETATM   12  C15 UNL     1      22.339   5.475  48.776  1.00  0.00     0.022 A 
HETATM   13  C16 UNL     1      23.254   4.375  48.966  1.00  0.00     0.096 A 
HETATM   14  N1  UNL     1      24.177   1.606  52.317  1.00  0.00    -0.319 N 
ENDROOT
BRANCH   1  15
HETATM   15  C5  UNL     1      26.422   0.834  52.326  1.00  0.00    -0.032 A 
HETATM   16  C4  UNL     1      26.676  -0.532  52.153  1.00  0.00     0.009 A 
HETATM   17  C3  UNL     1      27.601  -1.301  52.826  1.00  0.00     0.003 A 
HETATM   18  C2  UNL     1      28.355  -0.641  53.773  1.00  0.00     0.036 A 
HETATM   19  C1  UNL     1      28.156   0.706  53.993  1.00  0.00     0.066 A 
HETATM   20  C23 UNL     1      27.212   1.418  53.284  1.00  0.00     0.045 A 
BRANCH  19  21
HETATM   21  O1  UNL     1      28.923   1.374  54.956  1.00  0.00    -0.361 OA
HETATM   22  H1  UNL     1      28.809   1.068  55.926  1.00  0.00     0.217 HD
ENDBRANCH  19  21
ENDBRANCH   1  15
BRANCH  14  23
HETATM   23  C17 UNL     1      23.515   0.602  53.030  1.00  0.00     0.037 A 
HETATM   24  C18 UNL     1      22.544   0.016  52.217  1.00  0.00     0.029 A 
HETATM   25  C19 UNL     1      21.726  -1.020  52.683  1.00  0.00     0.002 A 
HETATM   26  C20 UNL     1      21.917  -1.441  53.986  1.00  0.00     0.000 A 
HETATM   27  C21 UNL     1      22.867  -0.885  54.818  1.00  0.00     0.002 A 
HETATM   28  C22 UNL     1      23.646   0.129  54.318  1.00  0.00     0.029 A 
ENDBRANCH  14  23
TORSDOF 3
ENDMDL
MODEL 4
REMARK VINA RESULT:      -8.5      1.826      5.821
REMARK  3 active torsions:
REMARK  status: ('A' for Active; 'I' for Inactive)
REMARK    1  A    between atoms: O1_1  and  C1_2 
REMARK    2  A    between atoms: C5_6  and  C6_7 
REMARK    3  A    between atoms: N1_20  and  C17_21 
ROOT
HETATM    1  C6  UNL     1      22.235   0.898  51.578  1.00  0.00     0.125 C 
HETATM    2  C7  UNL     1      22.586   0.532  52.969  1.00  0.00     0.035 C 
HETATM    3  C8  UNL     1      23.806  -0.309  53.178  1.00  0.00     0.037 C 
HETATM    4  C9  UNL     1      25.049   0.541  53.285  1.00  0.00    -0.066 C 
HETATM    5  C10 UNL     1      25.058   1.858  53.642  1.00  0.00     0.008 C 
HETATM    6  C11 UNL     1      24.350   3.016  52.969  1.00  0.00     0.056 C 
HETATM    7  C12 UNL     1      24.045   2.693  51.675  1.00  0.00     0.147 C 
HETATM    8  O2  UNL     1      24.986   3.010  50.640  1.00  0.00    -0.309 OA
HETATM    9  C13 UNL     1      26.348   2.794  51.129  1.00  0.00     0.353 C 
HETATM   10  O3  UNL     1      26.619   1.395  51.090  1.00  0.00    -0.329 OA
HETATM   11  C14 UNL     1      27.161   0.769  52.231  1.00  0.00     0.058 A 
HETATM   12  C15 UNL     1      27.583   0.083  53.368  1.00  0.00     0.022 A 
HETATM   13  C16 UNL     1      26.253  -0.238  52.907  1.00  0.00     0.096 A 
HETATM   14  N1  UNL     1      22.939   2.061  51.041  1.00  0.00    -0.319 N 
ENDROOT
BRANCH   1  15
HETATM   15  C5  UNL     1      20.782   1.211  51.552  1.00  0.00    -0.032 A 
HETATM   16  C4  UNL     1      19.862   0.211  51.214  1.00  0.00     0.009 A 
HETATM   17  C3  UNL     1      18.490   0.328  51.148  1.00  0.00     0.003 A 
HETATM   18  C2  UNL     1      17.978   1.572  51.451  1.00  0.00     0.036 A 
HETATM   19  C1  UNL     1      18.831   2.601  51.793  1.00  0.00     0.066 A 
HETATM   20  C23 UNL     1      20.196   2.417  51.840  1.00  0.00     0.045 A 
BRANCH  19  21
HETATM   21  O1  UNL     1      18.308   3.863  52.101  1.00  0.00    -0.361 OA
HETATM   22  H1  UNL     1      18.069   4.034  53.081  1.00  0.00     0.217 HD
ENDBRANCH  19  21
ENDBRANCH   1  15
BRANCH  14  23
HETATM   23  C17 UNL     1      22.714   2.745  49.843  1.00  0.00     0.037 A 
HETATM   24  C18 UNL     1      22.525   1.826  48.810  1.00  0.00     0.029 A 
HETATM   25  C19 UNL     1      22.283   2.242  47.496  1.00  0.00     0.002 A 
HETATM   26  C20 UNL     1      22.239   3.604  47.258  1.00  0.00     0.000 A 
HETATM   27  C21 UNL     1      22.422   4.541  48.255  1.00  0.00     0.002 A 
HETATM   28  C22 UNL     1      22.656   4.086  49.529  1.00  0.00     0.029 A 
ENDBRANCH  14  23
TORSDOF 3
ENDMDL
MODEL 5
REMARK VINA RESULT:      -8.3      2.306      5.385
REMARK  3 active torsions:
REMARK  status: ('A' for Active; 'I' for Inactive)
REMARK    1  A    between atoms: O1_1  and  C1_2 
REMARK    2  A    between atoms: C5_6  and  C6_7 
REMARK    3  A    between atoms: N1_20  and  C17_21 
ROOT
HETATM    1  C6  UNL     1      22.543   2.054  49.483  1.00  0.00     0.125 C 
HETATM    2  C7  UNL     1      21.353   1.571  50.218  1.00  0.00     0.035 C 
HETATM    3  C8  UNL     1      21.476   0.279  50.965  1.00  0.00     0.037 C 
HETATM    4  C9  UNL     1      22.017   0.498  52.357  1.00  0.00    -0.066 C 
HETATM    5  C10 UNL     1      21.945   1.678  53.040  1.00  0.00     0.008 C 
HETATM    6  C11 UNL     1      22.496   3.029  52.636  1.00  0.00     0.056 C 
HETATM    7  C12 UNL     1      23.489   2.874  51.706  1.00  0.00     0.147 C 
HETATM    8  O2  UNL     1      24.845   2.748  52.152  1.00  0.00    -0.309 OA
HETATM    9  C13 UNL     1      24.888   1.956  53.382  1.00  0.00     0.353 C 
HETATM   10  O3  UNL     1      24.766   0.580  53.030  1.00  0.00    -0.329 OA
HETATM   11  C14 UNL     1      23.827  -0.221  53.712  1.00  0.00     0.058 A 
HETATM   12  C15 UNL     1      22.834  -1.024  54.269  1.00  0.00     0.022 A 
HETATM   13  C16 UNL     1      22.678  -0.729  52.865  1.00  0.00     0.096 A 
HETATM   14  N1  UNL     1      23.516   2.792  50.286  1.00  0.00    -0.319 N 
ENDROOT
BRANCH   1  15
HETATM   15  C5  UNL     1      22.065   2.972  48.416  1.00  0.00    -0.032 A 
HETATM   16  C4  UNL     1      21.287   4.086  48.754  1.00  0.00     0.009 A 
HETATM   17  C3  UNL     1      20.771   5.035  47.898  1.00  0.00     0.003 A 
HETATM   18  C2  UNL     1      21.061   4.858  46.561  1.00  0.00     0.036 A 
HETATM   19  C1  UNL     1      21.824   3.781  46.161  1.00  0.00     0.066 A 
HETATM   20  C23 UNL     1      22.309   2.867  47.071  1.00  0.00     0.045 A 
BRANCH  19  21
HETATM   21  O1  UNL     1      22.116   3.604  44.802  1.00  0.00    -0.361 OA
HETATM   22  H1  UNL     1      21.635   4.223  44.146  1.00  0.00     0.217 HD
ENDBRANCH  19  21
ENDBRANCH   1  15
BRANCH  14  23
HETATM   23  C17 UNL     1      24.640   3.506  49.860  1.00  0.00     0.037 A 
HETATM   24  C18 UNL     1      24.335   4.866  49.806  1.00  0.00     0.029 A 
HETATM   25  C19 UNL     1      25.284   5.814  49.404  1.00  0.00     0.002 A 
HETATM   26  C20 UNL     1      26.540   5.349  49.062  1.00  0.00     0.000 A 
HETATM   27  C21 UNL     1      26.877   4.011  49.104  1.00  0.00     0.002 A 
HETATM   28  C22 UNL     1      25.914   3.118  49.504  1.00  0.00     0.029 A 
ENDBRANCH  14  23
TORSDOF 3
ENDMDL
MODEL 6
REMARK VINA RESULT:      -8.3      1.870      4.080
REMARK  3 active torsions:
REMARK  status: ('A' for Active; 'I' for Inactive)
REMARK    1  A    between atoms: O1_1  and  C1_2 
REMARK    2  A    between atoms: C5_6  and  C6_7 
REMARK    3  A    between atoms: N1_20  and  C17_21 
ROOT
HETATM    1  C6  UNL     1      22.942   2.677  49.929  1.00  0.00     0.125 C 
HETATM    2  C7  UNL     1      21.668   3.181  49.369  1.00  0.00     0.035 C 
HETATM    3  C8  UNL     1      20.596   2.178  49.073  1.00  0.00     0.037 C 
HETATM    4  C9  UNL     1      19.741   1.912  50.288  1.00  0.00    -0.066 C 
HETATM    5  C10 UNL     1      19.603   2.769  51.342  1.00  0.00     0.008 C 
HETATM    6  C11 UNL     1      20.683   3.320  52.249  1.00  0.00     0.056 C 
HETATM    7  C12 UNL     1      21.792   2.518  52.201  1.00  0.00     0.147 C 
HETATM    8  O2  UNL     1      21.914   1.445  53.144  1.00  0.00    -0.309 OA
HETATM    9  C13 UNL     1      20.603   0.838  53.374  1.00  0.00     0.353 C 
HETATM   10  O3  UNL     1      20.312  -0.022  52.275  1.00  0.00    -0.329 OA
HETATM   11  C14 UNL     1      19.060   0.081  51.635  1.00  0.00     0.058 A 
HETATM   12  C15 UNL     1      17.889   0.227  50.894  1.00  0.00     0.022 A 
HETATM   13  C16 UNL     1      19.107   0.573  50.202  1.00  0.00     0.096 A 
HETATM   14  N1  UNL     1      22.950   2.471  51.377  1.00  0.00    -0.319 N 
ENDROOT
BRANCH   1  15
HETATM   15  C5  UNL     1      23.993   3.680  49.620  1.00  0.00    -0.032 A 
HETATM   16  C4  UNL     1      23.628   4.992  49.293  1.00  0.00     0.009 A 
HETATM   17  C3  UNL     1      24.468   6.041  48.988  1.00  0.00     0.003 A 
HETATM   18  C2  UNL     1      25.817   5.756  49.012  1.00  0.00     0.036 A 
HETATM   19  C1  UNL     1      26.245   4.483  49.328  1.00  0.00     0.066 A 
HETATM   20  C23 UNL     1      25.350   3.478  49.623  1.00  0.00     0.045 A 
BRANCH  19  21
HETATM   21  O1  UNL     1      27.616   4.197  49.351  1.00  0.00    -0.361 OA
HETATM   22  H1  UNL     1      28.189   4.643  48.630  1.00  0.00     0.217 HD
ENDBRANCH  19  21
ENDBRANCH   1  15
BRANCH  14  23
HETATM   23  C17 UNL     1      24.030   2.169  52.212  1.00  0.00     0.037 A 
HETATM   24  C18 UNL     1      24.474   0.873  51.949  1.00  0.00     0.029 A 
HETATM   25  C19 UNL     1      25.547   0.310  52.650  1.00  0.00     0.002 A 
HETATM   26  C20 UNL     1      26.152   1.091  53.618  1.00  0.00     0.000 A 
HETATM   27  C21 UNL     1      25.740   2.376  53.904  1.00  0.00     0.002 A 
HETATM   28  C22 UNL     1      24.683   2.886  53.192  1.00  0.00     0.029 A 
ENDBRANCH  14  23
TORSDOF 3
ENDMDL
MODEL 7
REMARK VINA RESULT:      -8.1      1.448      1.757
REMARK  3 active torsions:
REMARK  status: ('A' for Active; 'I' for Inactive)
REMARK    1  A    between atoms: O1_1  and  C1_2 
REMARK    2  A    between atoms: C5_6  and  C6_7 
REMARK    3  A    between atoms: N1_20  and  C17_21 
ROOT
HETATM    1  C6  UNL     1      23.046   2.945  52.308  1.00  0.00     0.125 C 
HETATM    2  C7  UNL     1      21.930   1.988  52.484  1.00  0.00     0.035 C 
HETATM    3  C8  UNL     1      20.554   2.551  52.656  1.00  0.00     0.037 C 
HETATM    4  C9  UNL     1      19.888   2.794  51.323  1.00  0.00    -0.066 C 
HETATM    5  C10 UNL     1      20.229   2.165  50.160  1.00  0.00     0.008 C 
HETATM    6  C11 UNL     1      21.573   2.149  49.463  1.00  0.00     0.056 C 
HETATM    7  C12 UNL     1      22.330   3.213  49.874  1.00  0.00     0.147 C 
HETATM    8  O2  UNL     1      22.257   4.442  49.138  1.00  0.00    -0.309 OA
HETATM    9  C13 UNL     1      20.882   4.671  48.695  1.00  0.00     0.353 C 
HETATM   10  O3  UNL     1      20.134   5.169  49.802  1.00  0.00    -0.329 OA
HETATM   11  C14 UNL     1      18.894   4.577  50.114  1.00  0.00     0.058 A 
HETATM   12  C15 UNL     1      17.724   3.949  50.536  1.00  0.00     0.022 A 
HETATM   13  C16 UNL     1      18.845   3.843  51.438  1.00  0.00     0.096 A 
HETATM   14  N1  UNL     1      23.243   3.431  50.943  1.00  0.00    -0.319 N 
ENDROOT
BRANCH   1  15
HETATM   15  C5  UNL     1      24.296   2.253  52.714  1.00  0.00    -0.032 A 
HETATM   16  C4  UNL     1      24.427   0.874  52.505  1.00  0.00     0.009 A 
HETATM   17  C3  UNL     1      25.512   0.083  52.814  1.00  0.00     0.003 A 
HETATM   18  C2  UNL     1      26.583   0.732  53.392  1.00  0.00     0.036 A 
HETATM   19  C1  UNL     1      26.519   2.090  53.625  1.00  0.00     0.066 A 
HETATM   20  C23 UNL     1      25.401   2.823  53.292  1.00  0.00     0.045 A 
BRANCH  19  21
HETATM   21  O1  UNL     1      27.608   2.745  54.213  1.00  0.00    -0.361 OA
HETATM   22  H1  UNL     1      27.390   3.460  54.912  1.00  0.00     0.217 HD
ENDBRANCH  19  21
ENDBRANCH   1  15
BRANCH  14  23
HETATM   23  C17 UNL     1      24.292   4.198  50.430  1.00  0.00     0.037 A 
HETATM   24  C18 UNL     1      25.212   3.364  49.795  1.00  0.00     0.029 A 
HETATM   25  C19 UNL     1      26.369   3.873  49.193  1.00  0.00     0.002 A 
HETATM   26  C20 UNL     1      26.567   5.241  49.253  1.00  0.00     0.000 A 
HETATM   27  C21 UNL     1      25.678   6.095  49.873  1.00  0.00     0.002 A 
HETATM   28  C22 UNL     1      24.557   5.551  50.449  1.00  0.00     0.029 A 
ENDBRANCH  14  23
TORSDOF 3
ENDMDL
MODEL 8
REMARK VINA RESULT:      -7.7      2.281      3.825
REMARK  3 active torsions:
REMARK  status: ('A' for Active; 'I' for Inactive)
REMARK    1  A    between atoms: O1_1  and  C1_2 
REMARK    2  A    between atoms: C5_6  and  C6_7 
REMARK    3  A    between atoms: N1_20  and  C17_21 
ROOT
HETATM    1  C6  UNL     1      24.137   3.965  51.136  1.00  0.00     0.125 C 
HETATM    2  C7  UNL     1      24.556   2.563  51.358  1.00  0.00     0.035 C 
HETATM    3  C8  UNL     1      23.985   1.847  52.543  1.00  0.00     0.037 C 
HETATM    4  C9  UNL     1      22.661   1.203  52.211  1.00  0.00    -0.066 C 
HETATM    5  C10 UNL     1      22.256   0.870  50.950  1.00  0.00     0.008 C 
HETATM    6  C11 UNL     1      22.092   1.777  49.749  1.00  0.00     0.056 C 
HETATM    7  C12 UNL     1      21.956   3.077  50.155  1.00  0.00     0.147 C 
HETATM    8  O2  UNL     1      20.641   3.595  50.395  1.00  0.00    -0.309 OA
HETATM    9  C13 UNL     1      19.809   2.563  51.013  1.00  0.00     0.353 C 
HETATM   10  O3  UNL     1      20.146   2.488  52.397  1.00  0.00    -0.329 OA
HETATM   11  C14 UNL     1      20.414   1.229  52.970  1.00  0.00     0.058 A 
HETATM   12  C15 UNL     1      20.805   0.026  53.555  1.00  0.00     0.022 A 
HETATM   13  C16 UNL     1      21.842   1.023  53.434  1.00  0.00     0.096 A 
HETATM   14  N1  UNL     1      22.868   4.133  50.430  1.00  0.00    -0.319 N 
ENDROOT
BRANCH   1  15
HETATM   15  C5  UNL     1      25.189   4.620  50.315  1.00  0.00    -0.032 A 
HETATM   16  C4  UNL     1      26.143   3.838  49.654  1.00  0.00     0.009 A 
HETATM   17  C3  UNL     1      27.174   4.279  48.853  1.00  0.00     0.003 A 
HETATM   18  C2  UNL     1      27.266   5.645  48.691  1.00  0.00     0.036 A 
HETATM   19  C1  UNL     1      26.357   6.473  49.316  1.00  0.00     0.066 A 
HETATM   20  C23 UNL     1      25.348   5.966  50.105  1.00  0.00     0.045 A 
BRANCH  19  21
HETATM   21  O1  UNL     1      26.453   7.861  49.150  1.00  0.00    -0.361 OA
HETATM   22  H1  UNL     1      27.266   8.205  48.632  1.00  0.00     0.217 HD
ENDBRANCH  19  21
ENDBRANCH   1  15
BRANCH  14  23
HETATM   23  C17 UNL     1      22.293   5.306  49.931  1.00  0.00     0.037 A 
HETATM   24  C18 UNL     1      21.975   6.156  50.989  1.00  0.00     0.029 A 
HETATM   25  C19 UNL     1      21.379   7.405  50.773  1.00  0.00     0.002 A 
HETATM   26  C20 UNL     1      21.116   7.764  49.463  1.00  0.00     0.000 A 
HETATM   27  C21 UNL     1      21.418   6.947  48.392  1.00  0.00     0.002 A 
HETATM   28  C22 UNL     1      22.001   5.732  48.653  1.00  0.00     0.029 A 
ENDBRANCH  14  23
TORSDOF 3
ENDMDL
MODEL 9
REMARK VINA RESULT:      -7.6      8.869     11.567
REMARK  3 active torsions:
REMARK  status: ('A' for Active; 'I' for Inactive)
REMARK    1  A    between atoms: O1_1  and  C1_2 
REMARK    2  A    between atoms: C5_6  and  C6_7 
REMARK    3  A    between atoms: N1_20  and  C17_21 
ROOT
HETATM    1  C6  UNL     1      29.686   7.235  47.412  1.00  0.00     0.125 C 
HETATM    2  C7  UNL     1      29.790   6.019  48.249  1.00  0.00     0.035 C 
HETATM    3  C8  UNL     1      30.340   4.782  47.609  1.00  0.00     0.037 C 
HETATM    4  C9  UNL     1      31.847   4.743  47.693  1.00  0.00    -0.066 C 
HETATM    5  C10 UNL     1      32.590   5.424  48.613  1.00  0.00     0.008 C 
HETATM    6  C11 UNL     1      32.636   6.918  48.858  1.00  0.00     0.056 C 
HETATM    7  C12 UNL     1      32.189   7.591  47.753  1.00  0.00     0.147 C 
HETATM    8  O2  UNL     1      33.137   7.991  46.754  1.00  0.00    -0.309 OA
HETATM    9  C13 UNL     1      34.155   6.953  46.595  1.00  0.00     0.353 C 
HETATM   10  O3  UNL     1      33.603   5.905  45.801  1.00  0.00    -0.329 OA
HETATM   11  C14 UNL     1      33.719   4.573  46.246  1.00  0.00     0.058 A 
HETATM   12  C15 UNL     1      33.701   3.255  46.699  1.00  0.00     0.022 A 
HETATM   13  C16 UNL     1      32.412   3.899  46.612  1.00  0.00     0.096 A 
HETATM   14  N1  UNL     1      30.912   8.025  47.302  1.00  0.00    -0.319 N 
ENDROOT
BRANCH   1  15
HETATM   15  C5  UNL     1      28.652   8.110  48.023  1.00  0.00    -0.032 A 
HETATM   16  C4  UNL     1      27.579   8.565  47.246  1.00  0.00     0.009 A 
HETATM   17  C3  UNL     1      26.537   9.371  47.652  1.00  0.00     0.003 A 
HETATM   18  C2  UNL     1      26.564   9.766  48.973  1.00  0.00     0.036 A 
HETATM   19  C1  UNL     1      27.593   9.352  49.793  1.00  0.00     0.066 A 
HETATM   20  C23 UNL     1      28.606   8.545  49.323  1.00  0.00     0.045 A 
BRANCH  19  21
HETATM   21  O1  UNL     1      27.617   9.755  51.135  1.00  0.00    -0.361 OA
HETATM   22  H1  UNL     1      26.978   9.271  51.770  1.00  0.00     0.217 HD
ENDBRANCH  19  21
ENDBRANCH   1  15
BRANCH  14  23
HETATM   23  C17 UNL     1      31.091   9.289  46.733  1.00  0.00     0.037 A 
HETATM   24  C18 UNL     1      31.512  10.187  47.714  1.00  0.00     0.029 A 
HETATM   25  C19 UNL     1      31.764  11.532  47.417  1.00  0.00     0.002 A 
HETATM   26  C20 UNL     1      31.577  11.938  46.108  1.00  0.00     0.000 A 
HETATM   27  C21 UNL     1      31.161  11.078  45.113  1.00  0.00     0.002 A 
HETATM   28  C22 UNL     1      30.926   9.768  45.451  1.00  0.00     0.029 A 
ENDBRANCH  14  23
TORSDOF 3
ENDMDL
