MODEL 1
REMARK VINA RESULT:      -9.7      0.000      0.000
REMARK  1 active torsions:
REMARK  status: ('A' for Active; 'I' for Inactive)
REMARK    1  A    between atoms: N2_10  and  C9_11 
ROOT
HETATM    1  C1  UNL     1      27.533   0.153  52.697  1.00  0.00     0.050 C 
HETATM    2  C2  UNL     1      26.059   0.457  52.621  1.00  0.00    -0.036 C 
HETATM    3  C3  UNL     1      26.128   1.398  51.759  1.00  0.00     0.008 C 
HETATM    4  C4  UNL     1      26.456   2.402  50.805  1.00  0.00    -0.001 C 
HETATM    5  C5  UNL     1      26.149   3.360  49.959  1.00  0.00     0.000 C 
HETATM    6  C6  UNL     1      25.224   4.219  49.263  1.00  0.00     0.134 C 
HETATM    7  C7  UNL     1      23.871   3.525  49.076  1.00  0.00     0.093 C 
HETATM    8  C8  UNL     1      23.141   4.021  50.301  1.00  0.00     0.067 C 
HETATM    9  N1  UNL     1      23.381   5.236  49.882  1.00  0.00    -0.179 NA
HETATM   10  N2  UNL     1      24.803   5.456  49.812  1.00  0.00    -0.280 N 
HETATM   11  C17 UNL     1      22.668   2.858  51.154  1.00  0.00    -0.010 A 
HETATM   12  C18 UNL     1      22.799   3.257  52.460  1.00  0.00     0.016 A 
HETATM   13  C19 UNL     1      22.723   2.000  52.979  1.00  0.00     0.037 A 
HETATM   14  C20 UNL     1      22.567   0.894  52.220  1.00  0.00     0.069 A 
HETATM   15  C21 UNL     1      22.420   0.441  50.957  1.00  0.00     0.037 A 
HETATM   16  C22 UNL     1      22.501   1.704  50.457  1.00  0.00     0.016 A 
HETATM   17  O1  UNL     1      22.589  -0.277  53.038  1.00  0.00    -0.345 OA
HETATM   18  C23 UNL     1      23.663  -0.325  53.991  1.00  0.00     0.234 C 
HETATM   19  C24 UNL     1      25.012  -0.186  53.444  1.00  0.00     0.056 C 
HETATM   20  N3  UNL     1      25.792  -1.062  53.981  1.00  0.00    -0.302 NA
HETATM   21  H23 UNL     1      25.455  -1.749  54.654  1.00  0.00     0.186 HD
ENDROOT
BRANCH  10  22
HETATM   22  C9  UNL     1      25.400   6.730  50.250  1.00  0.00     0.190 C 
HETATM   23  S1  UNL     1      24.017   7.814  50.796  1.00  0.00    -0.113 SA
HETATM   24  C10 UNL     1      23.786   8.615  49.195  1.00  0.00     0.044 C 
HETATM   25  C11 UNL     1      24.883   8.334  48.502  1.00  0.00     0.001 C 
HETATM   26  C12 UNL     1      25.929   7.524  49.118  1.00  0.00     0.045 A 
HETATM   27  C13 UNL     1      26.658   6.740  48.109  1.00  0.00    -0.006 A 
HETATM   28  C16 UNL     1      27.037   8.381  49.683  1.00  0.00    -0.006 A 
HETATM   29  C14 UNL     1      27.943   7.074  48.088  1.00  0.00    -0.003 A 
HETATM   30  C15 UNL     1      28.190   8.118  49.088  1.00  0.00    -0.003 A 
ENDBRANCH  10  22
TORSDOF 1
ENDMDL
MODEL 2
REMARK VINA RESULT:      -8.9      3.520      6.019
REMARK  1 active torsions:
REMARK  status: ('A' for Active; 'I' for Inactive)
REMARK    1  A    between atoms: N2_10  and  C9_11 
ROOT
HETATM    1  C1  UNL     1      26.421   2.605  50.121  1.00  0.00     0.050 C 
HETATM    2  C2  UNL     1      25.776   3.960  49.985  1.00  0.00    -0.036 C 
HETATM    3  C3  UNL     1      26.719   4.527  49.334  1.00  0.00     0.008 C 
HETATM    4  C4  UNL     1      27.887   4.933  48.628  1.00  0.00    -0.001 C 
HETATM    5  C5  UNL     1      28.610   5.807  47.967  1.00  0.00     0.000 C 
HETATM    6  C6  UNL     1      28.854   7.102  47.381  1.00  0.00     0.134 C 
HETATM    7  C7  UNL     1      27.539   7.760  46.948  1.00  0.00     0.093 C 
HETATM    8  C8  UNL     1      27.224   8.569  48.182  1.00  0.00     0.067 C 
HETATM    9  N1  UNL     1      28.390   9.144  48.034  1.00  0.00    -0.179 NA
HETATM   10  N2  UNL     1      29.435   8.157  48.127  1.00  0.00    -0.280 N 
HETATM   11  C17 UNL     1      25.868   8.187  48.747  1.00  0.00    -0.010 A 
HETATM   12  C18 UNL     1      25.983   8.253  50.112  1.00  0.00     0.016 A 
HETATM   13  C19 UNL     1      24.865   7.518  50.364  1.00  0.00     0.037 A 
HETATM   14  C20 UNL     1      24.078   7.011  49.391  1.00  0.00     0.069 A 
HETATM   15  C21 UNL     1      23.902   6.922  48.055  1.00  0.00     0.037 A 
HETATM   16  C22 UNL     1      25.026   7.656  47.823  1.00  0.00     0.016 A 
HETATM   17  O1  UNL     1      23.023   6.234  49.960  1.00  0.00    -0.345 OA
HETATM   18  C23 UNL     1      23.440   5.302  50.969  1.00  0.00     0.234 C 
HETATM   19  C24 UNL     1      24.478   4.350  50.575  1.00  0.00     0.056 C 
HETATM   20  N3  UNL     1      24.166   3.169  50.991  1.00  0.00    -0.302 NA
HETATM   21  H23 UNL     1      23.295   2.979  51.484  1.00  0.00     0.186 HD
ENDROOT
BRANCH  10  22
HETATM   22  C9  UNL     1      30.684   8.436  48.856  1.00  0.00     0.190 C 
HETATM   23  S1  UNL     1      30.670  10.225  49.286  1.00  0.00    -0.113 SA
HETATM   24  C10 UNL     1      31.557  10.764  47.809  1.00  0.00     0.044 C 
HETATM   25  C11 UNL     1      32.094   9.660  47.302  1.00  0.00     0.001 C 
HETATM   26  C12 UNL     1      31.875   8.385  47.977  1.00  0.00     0.045 A 
HETATM   27  C13 UNL     1      31.878   7.268  47.018  1.00  0.00    -0.006 A 
HETATM   28  C16 UNL     1      33.041   8.016  48.863  1.00  0.00    -0.006 A 
HETATM   29  C14 UNL     1      32.858   6.413  47.292  1.00  0.00    -0.003 A 
HETATM   30  C15 UNL     1      33.600   6.884  48.465  1.00  0.00    -0.003 A 
ENDBRANCH  10  22
TORSDOF 1
ENDMDL
MODEL 3
REMARK VINA RESULT:      -8.8      2.878      4.222
REMARK  1 active torsions:
REMARK  status: ('A' for Active; 'I' for Inactive)
REMARK    1  A    between atoms: N2_10  and  C9_11 
ROOT
HETATM    1  C1  UNL     1      21.900   3.296  46.377  1.00  0.00     0.050 C 
HETATM    2  C2  UNL     1      22.117   3.286  47.868  1.00  0.00    -0.036 C 
HETATM    3  C3  UNL     1      22.553   4.483  47.979  1.00  0.00     0.008 C 
HETATM    4  C4  UNL     1      23.006   5.826  47.851  1.00  0.00    -0.001 C 
HETATM    5  C5  UNL     1      23.461   6.960  48.334  1.00  0.00     0.000 C 
HETATM    6  C6  UNL     1      23.890   7.828  49.402  1.00  0.00     0.134 C 
HETATM    7  C7  UNL     1      23.172   7.479  50.710  1.00  0.00     0.093 C 
HETATM    8  C8  UNL     1      24.169   6.524  51.318  1.00  0.00     0.067 C 
HETATM    9  N1  UNL     1      25.057   7.480  51.228  1.00  0.00    -0.179 NA
HETATM   10  N2  UNL     1      25.236   7.849  49.847  1.00  0.00    -0.280 N 
HETATM   11  C17 UNL     1      23.528   5.175  51.591  1.00  0.00    -0.010 A 
HETATM   12  C18 UNL     1      24.487   4.230  51.331  1.00  0.00     0.016 A 
HETATM   13  C19 UNL     1      23.612   3.190  51.244  1.00  0.00     0.037 A 
HETATM   14  C20 UNL     1      22.279   3.329  51.407  1.00  0.00     0.069 A 
HETATM   15  C21 UNL     1      21.291   4.210  51.673  1.00  0.00     0.037 A 
HETATM   16  C22 UNL     1      22.181   5.237  51.753  1.00  0.00     0.016 A 
HETATM   17  O1  UNL     1      21.619   2.080  51.192  1.00  0.00    -0.345 OA
HETATM   18  C23 UNL     1      22.030   1.378  50.008  1.00  0.00     0.234 C 
HETATM   19  C24 UNL     1      21.916   2.118  48.752  1.00  0.00     0.056 C 
HETATM   20  N3  UNL     1      21.397   1.361  47.846  1.00  0.00    -0.302 NA
HETATM   21  H23 UNL     1      21.095   0.407  48.043  1.00  0.00     0.186 HD
ENDROOT
BRANCH  10  22
HETATM   22  C9  UNL     1      26.574   8.133  49.300  1.00  0.00     0.190 C 
HETATM   23  S1  UNL     1      26.448   9.705  48.352  1.00  0.00    -0.113 SA
HETATM   24  C10 UNL     1      26.101   8.919  46.764  1.00  0.00     0.044 C 
HETATM   25  C11 UNL     1      26.432   7.643  46.926  1.00  0.00     0.001 C 
HETATM   26  C12 UNL     1      26.950   7.198  48.216  1.00  0.00     0.045 A 
HETATM   27  C13 UNL     1      26.602   5.791  48.472  1.00  0.00    -0.006 A 
HETATM   28  C16 UNL     1      28.460   7.133  48.216  1.00  0.00    -0.006 A 
HETATM   29  C14 UNL     1      27.696   5.048  48.598  1.00  0.00    -0.003 A 
HETATM   30  C15 UNL     1      28.880   5.897  48.437  1.00  0.00    -0.003 A 
ENDBRANCH  10  22
TORSDOF 1
ENDMDL
MODEL 4
REMARK VINA RESULT:      -8.8      3.141      4.823
REMARK  1 active torsions:
REMARK  status: ('A' for Active; 'I' for Inactive)
REMARK    1  A    between atoms: N2_10  and  C9_11 
ROOT
HETATM    1  C1  UNL     1      20.086  -0.119  53.490  1.00  0.00     0.050 C 
HETATM    2  C2  UNL     1      21.524   0.285  53.288  1.00  0.00    -0.036 C 
HETATM    3  C3  UNL     1      21.303   1.469  52.859  1.00  0.00     0.008 C 
HETATM    4  C4  UNL     1      20.813   2.728  52.411  1.00  0.00    -0.001 C 
HETATM    5  C5  UNL     1      20.968   3.955  51.967  1.00  0.00     0.000 C 
HETATM    6  C6  UNL     1      21.758   5.087  51.552  1.00  0.00     0.134 C 
HETATM    7  C7  UNL     1      23.106   5.107  52.282  1.00  0.00     0.093 C 
HETATM    8  C8  UNL     1      23.962   4.364  51.286  1.00  0.00     0.067 C 
HETATM    9  N1  UNL     1      23.619   5.265  50.403  1.00  0.00    -0.179 NA
HETATM   10  N2  UNL     1      22.191   5.240  50.211  1.00  0.00    -0.280 N 
HETATM   11  C17 UNL     1      24.591   3.139  51.924  1.00  0.00    -0.010 A 
HETATM   12  C18 UNL     1      24.610   2.165  50.958  1.00  0.00     0.016 A 
HETATM   13  C19 UNL     1      24.807   1.135  51.828  1.00  0.00     0.037 A 
HETATM   14  C20 UNL     1      24.914   1.305  53.163  1.00  0.00     0.069 A 
HETATM   15  C21 UNL     1      24.918   2.217  54.158  1.00  0.00     0.037 A 
HETATM   16  C22 UNL     1      24.718   3.233  53.273  1.00  0.00     0.016 A 
HETATM   17  O1  UNL     1      25.047   0.040  53.815  1.00  0.00    -0.345 OA
HETATM   18  C23 UNL     1      24.106  -0.958  53.389  1.00  0.00     0.234 C 
HETATM   19  C24 UNL     1      22.694  -0.595  53.493  1.00  0.00     0.056 C 
HETATM   20  N3  UNL     1      22.028  -1.576  54.000  1.00  0.00    -0.302 NA
HETATM   21  H23 UNL     1      22.478  -2.441  54.300  1.00  0.00     0.186 HD
ENDROOT
BRANCH  10  22
HETATM   22  C9  UNL     1      21.599   5.371  48.868  1.00  0.00     0.190 C 
HETATM   23  S1  UNL     1      20.025   6.304  49.062  1.00  0.00    -0.113 SA
HETATM   24  C10 UNL     1      18.981   4.843  49.245  1.00  0.00     0.044 C 
HETATM   25  C11 UNL     1      19.725   3.827  48.823  1.00  0.00     0.001 C 
HETATM   26  C12 UNL     1      21.082   4.083  48.352  1.00  0.00     0.045 A 
HETATM   27  C13 UNL     1      21.958   2.928  48.601  1.00  0.00    -0.006 A 
HETATM   28  C16 UNL     1      21.139   4.177  46.845  1.00  0.00    -0.006 A 
HETATM   29  C14 UNL     1      22.435   2.441  47.461  1.00  0.00    -0.003 A 
HETATM   30  C15 UNL     1      21.917   3.233  46.341  1.00  0.00    -0.003 A 
ENDBRANCH  10  22
TORSDOF 1
ENDMDL
MODEL 5
REMARK VINA RESULT:      -8.6      3.029      4.337
REMARK  1 active torsions:
REMARK  status: ('A' for Active; 'I' for Inactive)
REMARK    1  A    between atoms: N2_10  and  C9_11 
ROOT
HETATM    1  C1  UNL     1      26.712   3.554  49.391  1.00  0.00     0.050 C 
HETATM    2  C2  UNL     1      25.665   3.115  50.381  1.00  0.00    -0.036 C 
HETATM    3  C3  UNL     1      24.648   3.253  49.618  1.00  0.00     0.008 C 
HETATM    4  C4  UNL     1      23.685   3.483  48.595  1.00  0.00    -0.001 C 
HETATM    5  C5  UNL     1      22.461   3.489  48.119  1.00  0.00     0.000 C 
HETATM    6  C6  UNL     1      21.039   3.270  48.212  1.00  0.00     0.134 C 
HETATM    7  C7  UNL     1      20.726   2.135  49.192  1.00  0.00     0.093 C 
HETATM    8  C8  UNL     1      20.512   2.924  50.460  1.00  0.00     0.067 C 
HETATM    9  N1  UNL     1      19.584   3.590  49.823  1.00  0.00    -0.179 NA
HETATM   10  N2  UNL     1      20.163   4.274  48.695  1.00  0.00    -0.280 N 
HETATM   11  C17 UNL     1      21.466   2.466  51.548  1.00  0.00    -0.010 A 
HETATM   12  C18 UNL     1      21.822   3.590  52.251  1.00  0.00     0.016 A 
HETATM   13  C19 UNL     1      22.912   3.024  52.840  1.00  0.00     0.037 A 
HETATM   14  C20 UNL     1      23.290   1.746  52.625  1.00  0.00     0.069 A 
HETATM   15  C21 UNL     1      22.984   0.606  51.970  1.00  0.00     0.037 A 
HETATM   16  C22 UNL     1      21.900   1.189  51.388  1.00  0.00     0.016 A 
HETATM   17  O1  UNL     1      24.502   1.463  53.325  1.00  0.00    -0.345 OA
HETATM   18  C23 UNL     1      25.533   2.449  53.168  1.00  0.00     0.234 C 
HETATM   19  C24 UNL     1      25.922   2.757  51.792  1.00  0.00     0.056 C 
HETATM   20  N3  UNL     1      27.208   2.809  51.705  1.00  0.00    -0.302 NA
HETATM   21  H23 UNL     1      27.815   2.618  52.501  1.00  0.00     0.186 HD
ENDROOT
BRANCH  10  22
HETATM   22  C9  UNL     1      19.762   5.649  48.348  1.00  0.00     0.190 C 
HETATM   23  S1  UNL     1      19.659   5.734  46.513  1.00  0.00    -0.113 SA
HETATM   24  C10 UNL     1      21.356   6.300  46.272  1.00  0.00     0.044 C 
HETATM   25  C11 UNL     1      21.759   6.714  47.468  1.00  0.00     0.001 C 
HETATM   26  C12 UNL     1      20.840   6.631  48.599  1.00  0.00     0.045 A 
HETATM   27  C13 UNL     1      21.568   6.431  49.862  1.00  0.00    -0.006 A 
HETATM   28  C16 UNL     1      20.157   7.953  48.859  1.00  0.00    -0.006 A 
HETATM   29  C14 UNL     1      21.352   7.441  50.698  1.00  0.00    -0.003 A 
HETATM   30  C15 UNL     1      20.455   8.412  50.065  1.00  0.00    -0.003 A 
ENDBRANCH  10  22
TORSDOF 1
ENDMDL
MODEL 6
REMARK VINA RESULT:      -8.6      3.974      6.888
REMARK  1 active torsions:
REMARK  status: ('A' for Active; 'I' for Inactive)
REMARK    1  A    between atoms: N2_10  and  C9_11 
ROOT
HETATM    1  C1  UNL     1      26.747   3.349  49.647  1.00  0.00     0.050 C 
HETATM    2  C2  UNL     1      26.397   4.758  49.245  1.00  0.00    -0.036 C 
HETATM    3  C3  UNL     1      25.141   4.688  49.475  1.00  0.00     0.008 C 
HETATM    4  C4  UNL     1      23.792   4.371  49.801  1.00  0.00    -0.001 C 
HETATM    5  C5  UNL     1      22.519   4.665  49.930  1.00  0.00     0.000 C 
HETATM    6  C6  UNL     1      21.385   5.553  49.861  1.00  0.00     0.134 C 
HETATM    7  C7  UNL     1      21.815   7.004  50.101  1.00  0.00     0.093 C 
HETATM    8  C8  UNL     1      22.040   7.458  48.680  1.00  0.00     0.067 C 
HETATM    9  N1  UNL     1      20.802   7.115  48.434  1.00  0.00    -0.179 NA
HETATM   10  N2  UNL     1      20.632   5.704  48.670  1.00  0.00    -0.280 N 
HETATM   11  C17 UNL     1      23.461   7.956  48.490  1.00  0.00    -0.010 A 
HETATM   12  C18 UNL     1      23.843   7.570  47.230  1.00  0.00     0.016 A 
HETATM   13  C19 UNL     1      25.176   7.744  47.448  1.00  0.00     0.037 A 
HETATM   14  C20 UNL     1      25.683   8.171  48.624  1.00  0.00     0.069 A 
HETATM   15  C21 UNL     1      25.371   8.574  49.874  1.00  0.00     0.037 A 
HETATM   16  C22 UNL     1      24.042   8.391  49.638  1.00  0.00     0.016 A 
HETATM   17  O1  UNL     1      27.111   8.191  48.571  1.00  0.00    -0.345 OA
HETATM   18  C23 UNL     1      27.709   7.001  48.032  1.00  0.00     0.234 C 
HETATM   19  C24 UNL     1      27.345   5.747  48.689  1.00  0.00     0.056 C 
HETATM   20  N3  UNL     1      28.400   5.027  48.868  1.00  0.00    -0.302 NA
HETATM   21  H23 UNL     1      29.330   5.351  48.606  1.00  0.00     0.186 HD
ENDROOT
BRANCH  10  22
HETATM   22  C9  UNL     1      19.825   4.870  47.761  1.00  0.00     0.190 C 
HETATM   23  S1  UNL     1      18.894   3.677  48.808  1.00  0.00    -0.113 SA
HETATM   24  C10 UNL     1      20.131   2.366  48.714  1.00  0.00     0.044 C 
HETATM   25  C11 UNL     1      20.925   2.705  47.705  1.00  0.00     0.001 C 
HETATM   26  C12 UNL     1      20.654   3.935  46.967  1.00  0.00     0.045 A 
HETATM   27  C13 UNL     1      21.896   4.520  46.435  1.00  0.00    -0.006 A 
HETATM   28  C16 UNL     1      19.887   3.664  45.695  1.00  0.00    -0.006 A 
HETATM   29  C14 UNL     1      21.860   4.579  45.108  1.00  0.00    -0.003 A 
HETATM   30  C15 UNL     1      20.584   4.035  44.632  1.00  0.00    -0.003 A 
ENDBRANCH  10  22
TORSDOF 1
ENDMDL
MODEL 7
REMARK VINA RESULT:      -8.6      3.847      7.544
REMARK  1 active torsions:
REMARK  status: ('A' for Active; 'I' for Inactive)
REMARK    1  A    between atoms: N2_10  and  C9_11 
ROOT
HETATM    1  C1  UNL     1      30.219   5.080  47.697  1.00  0.00     0.050 C 
HETATM    2  C2  UNL     1      29.363   6.302  47.901  1.00  0.00    -0.036 C 
HETATM    3  C3  UNL     1      28.330   5.704  48.362  1.00  0.00     0.008 C 
HETATM    4  C4  UNL     1      27.318   4.827  48.843  1.00  0.00    -0.001 C 
HETATM    5  C5  UNL     1      26.130   4.572  49.343  1.00  0.00     0.000 C 
HETATM    6  C6  UNL     1      24.830   4.950  49.840  1.00  0.00     0.134 C 
HETATM    7  C7  UNL     1      24.873   6.345  50.472  1.00  0.00     0.093 C 
HETATM    8  C8  UNL     1      24.475   7.190  49.288  1.00  0.00     0.067 C 
HETATM    9  N1  UNL     1      23.383   6.476  49.215  1.00  0.00    -0.179 NA
HETATM   10  N2  UNL     1      23.718   5.096  48.973  1.00  0.00    -0.280 N 
HETATM   11  C17 UNL     1      25.546   8.222  48.978  1.00  0.00    -0.010 A 
HETATM   12  C18 UNL     1      25.587   8.339  47.612  1.00  0.00     0.016 A 
HETATM   13  C19 UNL     1      26.805   8.946  47.579  1.00  0.00     0.037 A 
HETATM   14  C20 UNL     1      27.523   9.225  48.688  1.00  0.00     0.069 A 
HETATM   15  C21 UNL     1      27.536   9.151  50.036  1.00  0.00     0.037 A 
HETATM   16  C22 UNL     1      26.318   8.542  50.048  1.00  0.00     0.016 A 
HETATM   17  O1  UNL     1      28.783   9.799  48.333  1.00  0.00    -0.345 OA
HETATM   18  C23 UNL     1      29.490   9.102  47.295  1.00  0.00     0.234 C 
HETATM   19  C24 UNL     1      29.743   7.682  47.533  1.00  0.00     0.056 C 
HETATM   20  N3  UNL     1      30.960   7.398  47.213  1.00  0.00    -0.302 NA
HETATM   21  H23 UNL     1      31.615   8.106  46.883  1.00  0.00     0.186 HD
ENDROOT
BRANCH  10  22
HETATM   22  C9  UNL     1      22.938   4.275  48.031  1.00  0.00     0.190 C 
HETATM   23  S1  UNL     1      21.958   5.434  46.989  1.00  0.00    -0.113 SA
HETATM   24  C10 UNL     1      20.489   5.407  48.038  1.00  0.00     0.044 C 
HETATM   25  C11 UNL     1      20.646   4.354  48.833  1.00  0.00     0.001 C 
HETATM   26  C12 UNL     1      21.845   3.533  48.700  1.00  0.00     0.045 A 
HETATM   27  C13 UNL     1      22.218   2.925  49.988  1.00  0.00    -0.006 A 
HETATM   28  C16 UNL     1      21.589   2.305  47.858  1.00  0.00    -0.006 A 
HETATM   29  C14 UNL     1      22.186   1.599  49.912  1.00  0.00    -0.003 A 
HETATM   30  C15 UNL     1      21.786   1.200  48.559  1.00  0.00    -0.003 A 
ENDBRANCH  10  22
TORSDOF 1
ENDMDL
MODEL 8
REMARK VINA RESULT:      -8.5      4.499      6.318
REMARK  1 active torsions:
REMARK  status: ('A' for Active; 'I' for Inactive)
REMARK    1  A    between atoms: N2_10  and  C9_11 
ROOT
HETATM    1  C1  UNL     1      22.586   6.679  45.239  1.00  0.00     0.050 C 
HETATM    2  C2  UNL     1      22.801   6.468  46.715  1.00  0.00    -0.036 C 
HETATM    3  C3  UNL     1      23.714   7.348  46.876  1.00  0.00     0.008 C 
HETATM    4  C4  UNL     1      24.702   8.371  46.807  1.00  0.00    -0.001 C 
HETATM    5  C5  UNL     1      25.610   9.160  47.335  1.00  0.00     0.000 C 
HETATM    6  C6  UNL     1      26.390   9.678  48.431  1.00  0.00     0.134 C 
HETATM    7  C7  UNL     1      25.613   9.577  49.748  1.00  0.00     0.093 C 
HETATM    8  C8  UNL     1      26.107   8.244  50.252  1.00  0.00     0.067 C 
HETATM    9  N1  UNL     1      27.320   8.729  50.178  1.00  0.00    -0.179 NA
HETATM   10  N2  UNL     1      27.619   9.084  48.814  1.00  0.00    -0.280 N 
HETATM   11  C17 UNL     1      24.949   7.288  50.474  1.00  0.00    -0.010 A 
HETATM   12  C18 UNL     1      25.400   6.043  50.115  1.00  0.00     0.016 A 
HETATM   13  C19 UNL     1      24.159   5.491  50.007  1.00  0.00     0.037 A 
HETATM   14  C20 UNL     1      23.021   6.179  50.239  1.00  0.00     0.069 A 
HETATM   15  C21 UNL     1      22.516   7.378  50.601  1.00  0.00     0.037 A 
HETATM   16  C22 UNL     1      23.765   7.913  50.700  1.00  0.00     0.016 A 
HETATM   17  O1  UNL     1      21.882   5.356  49.981  1.00  0.00    -0.345 OA
HETATM   18  C23 UNL     1      21.930   4.634  48.741  1.00  0.00     0.234 C 
HETATM   19  C24 UNL     1      22.128   5.440  47.537  1.00  0.00     0.056 C 
HETATM   20  N3  UNL     1      21.318   5.049  46.613  1.00  0.00    -0.302 NA
HETATM   21  H23 UNL     1      20.635   4.307  46.766  1.00  0.00     0.186 HD
ENDROOT
BRANCH  10  22
HETATM   22  C9  UNL     1      28.940   8.802  48.225  1.00  0.00     0.190 C 
HETATM   23  S1  UNL     1      29.266  10.117  46.979  1.00  0.00    -0.113 SA
HETATM   24  C10 UNL     1      28.583   9.201  45.581  1.00  0.00     0.044 C 
HETATM   25  C11 UNL     1      28.495   7.943  45.997  1.00  0.00     0.001 C 
HETATM   26  C12 UNL     1      28.923   7.607  47.350  1.00  0.00     0.045 A 
HETATM   27  C13 UNL     1      28.157   6.469  47.884  1.00  0.00    -0.006 A 
HETATM   28  C16 UNL     1      30.328   7.050  47.368  1.00  0.00    -0.006 A 
HETATM   29  C14 UNL     1      28.958   5.446  48.159  1.00  0.00    -0.003 A 
HETATM   30  C15 UNL     1      30.341   5.811  47.832  1.00  0.00    -0.003 A 
ENDBRANCH  10  22
TORSDOF 1
ENDMDL
MODEL 9
REMARK VINA RESULT:      -8.5      7.051      9.186
REMARK  1 active torsions:
REMARK  status: ('A' for Active; 'I' for Inactive)
REMARK    1  A    between atoms: N2_10  and  C9_11 
ROOT
HETATM    1  C1  UNL     1      32.659   7.938  43.403  1.00  0.00     0.050 C 
HETATM    2  C2  UNL     1      32.528   7.320  44.771  1.00  0.00    -0.036 C 
HETATM    3  C3  UNL     1      31.350   7.743  45.031  1.00  0.00     0.008 C 
HETATM    4  C4  UNL     1      30.052   8.323  45.092  1.00  0.00    -0.001 C 
HETATM    5  C5  UNL     1      28.899   8.557  45.678  1.00  0.00     0.000 C 
HETATM    6  C6  UNL     1      27.950   8.429  46.755  1.00  0.00     0.134 C 
HETATM    7  C7  UNL     1      28.128   7.092  47.483  1.00  0.00     0.093 C 
HETATM    8  C8  UNL     1      29.066   7.509  48.588  1.00  0.00     0.067 C 
HETATM    9  N1  UNL     1      28.170   8.395  48.938  1.00  0.00    -0.179 NA
HETATM   10  N2  UNL     1      27.953   9.322  47.857  1.00  0.00    -0.280 N 
HETATM   11  C17 UNL     1      30.345   6.693  48.547  1.00  0.00    -0.010 A 
HETATM   12  C18 UNL     1      31.360   7.544  48.903  1.00  0.00     0.016 A 
HETATM   13  C19 UNL     1      32.357   6.754  48.416  1.00  0.00     0.037 A 
HETATM   14  C20 UNL     1      32.134   5.563  47.821  1.00  0.00     0.069 A 
HETATM   15  C21 UNL     1      31.181   4.678  47.458  1.00  0.00     0.037 A 
HETATM   16  C22 UNL     1      30.198   5.483  47.948  1.00  0.00     0.016 A 
HETATM   17  O1  UNL     1      33.363   5.003  47.356  1.00  0.00    -0.345 OA
HETATM   18  C23 UNL     1      34.201   5.912  46.627  1.00  0.00     0.234 C 
HETATM   19  C24 UNL     1      33.588   6.563  45.470  1.00  0.00     0.056 C 
HETATM   20  N3  UNL     1      34.406   6.539  44.473  1.00  0.00    -0.302 NA
HETATM   21  H23 UNL     1      35.318   6.086  44.528  1.00  0.00     0.186 HD
ENDROOT
BRANCH  10  22
HETATM   22  C9  UNL     1      27.796  10.765  48.109  1.00  0.00     0.190 C 
HETATM   23  S1  UNL     1      26.561  11.392  46.897  1.00  0.00    -0.113 SA
HETATM   24  C10 UNL     1      27.774  11.867  45.647  1.00  0.00     0.044 C 
HETATM   25  C11 UNL     1      28.941  11.880  46.280  1.00  0.00     0.001 C 
HETATM   26  C12 UNL     1      28.987  11.542  47.699  1.00  0.00     0.045 A 
HETATM   27  C13 UNL     1      30.274  10.923  48.057  1.00  0.00    -0.006 A 
HETATM   28  C16 UNL     1      29.004  12.780  48.565  1.00  0.00    -0.006 A 
HETATM   29  C14 UNL     1      30.918  11.657  48.958  1.00  0.00    -0.003 A 
HETATM   30  C15 UNL     1      30.114  12.840  49.284  1.00  0.00    -0.003 A 
ENDBRANCH  10  22
TORSDOF 1
ENDMDL
