MODEL 1
REMARK VINA RESULT:     -10.1      0.000      0.000
REMARK  3 active torsions:
REMARK  status: ('A' for Active; 'I' for Inactive)
REMARK    1  A    between atoms: C7_7  and  O1_8 
REMARK    2  A    between atoms: O1_8  and  C8_9 
REMARK    3  A    between atoms: N2_26  and  C23_27 
ROOT
HETATM    1  C8  UNL     1      24.748   0.957  52.662  1.00  0.00     0.098 A 
HETATM    2  C9  UNL     1      23.381   1.026  52.853  1.00  0.00     0.070 A 
HETATM    3 CL1  UNL     1      22.625  -0.473  53.315  1.00  0.00    -0.081 Cl
HETATM    4  C10 UNL     1      22.545   2.144  52.709  1.00  0.00     0.056 A 
HETATM    5  C11 UNL     1      23.328   3.281  52.315  1.00  0.00     0.032 A 
HETATM    6  C12 UNL     1      24.630   3.310  52.118  1.00  0.00     0.039 A 
HETATM    7  C13 UNL     1      25.378   2.127  52.282  1.00  0.00    -0.017 A 
HETATM    8  C14 UNL     1      26.768   2.421  51.715  1.00  0.00     0.069 C 
HETATM    9  C15 UNL     1      26.484   3.219  50.457  1.00  0.00    -0.013 C 
HETATM   10  C16 UNL     1      26.295   3.927  49.324  1.00  0.00     0.060 C 
HETATM   11  C17 UNL     1      24.935   4.162  49.317  1.00  0.00    -0.077 C 
HETATM   12  C18 UNL     1      23.870   4.346  49.334  1.00  0.00    -0.081 C 
HETATM   13  C19 UNL     1      22.505   4.564  49.371  1.00  0.00     0.118 A 
HETATM   14  C20 UNL     1      21.587   4.727  48.359  1.00  0.00    -0.053 A 
HETATM   15  C21 UNL     1      22.250   4.753  47.027  1.00  0.00     0.046 C 
HETATM   16  N1  UNL     1      21.024   4.693  49.602  1.00  0.00     0.000 N 
HETATM   17  C22 UNL     1      19.756   4.806  49.754  1.00  0.00     0.094 A 
HETATM   18  N2  UNL     1      20.606   4.650  50.787  1.00  0.00    -0.184 NA
HETATM   19  C23 UNL     1      21.961   4.524  50.670  1.00  0.00     0.172 A 
HETATM   20  N3  UNL     1      22.402   4.366  52.050  1.00  0.00    -0.362 N 
HETATM   21  H18 UNL     1      22.224   4.807  52.950  1.00  0.00     0.162 HD
ENDROOT
BRANCH   1  22
HETATM   22  O1  UNL     1      25.580  -0.072  52.792  1.00  0.00    -0.335 OA
BRANCH  22  23
HETATM   23  C7  UNL     1      26.391  -0.618  53.731  1.00  0.00     0.181 A 
HETATM   24  C2  UNL     1      27.379  -1.505  53.107  1.00  0.00    -0.047 A 
HETATM   25  C1  UNL     1      27.281  -2.497  52.245  1.00  0.00     0.041 C 
HETATM   26  C3  UNL     1      28.826  -1.441  53.290  1.00  0.00     0.006 A 
HETATM   27  C4  UNL     1      29.362  -0.495  54.078  1.00  0.00     0.000 A 
HETATM   28  C5  UNL     1      28.464   0.475  54.744  1.00  0.00    -0.001 A 
HETATM   29  C6  UNL     1      27.159   0.378  54.559  1.00  0.00     0.010 A 
ENDBRANCH  22  23
ENDBRANCH   1  22
TORSDOF 3
ENDMDL
MODEL 2
REMARK VINA RESULT:      -9.4      1.316      1.548
REMARK  3 active torsions:
REMARK  status: ('A' for Active; 'I' for Inactive)
REMARK    1  A    between atoms: C7_7  and  O1_8 
REMARK    2  A    between atoms: O1_8  and  C8_9 
REMARK    3  A    between atoms: N2_26  and  C23_27 
ROOT
HETATM    1  C8  UNL     1      24.182   0.693  52.713  1.00  0.00     0.098 A 
HETATM    2  C9  UNL     1      22.877   0.412  53.069  1.00  0.00     0.070 A 
HETATM    3 CL1  UNL     1      22.611  -1.195  53.685  1.00  0.00    -0.081 Cl
HETATM    4  C10 UNL     1      21.758   1.254  52.981  1.00  0.00     0.056 A 
HETATM    5  C11 UNL     1      22.156   2.525  52.445  1.00  0.00     0.032 A 
HETATM    6  C12 UNL     1      23.371   2.883  52.087  1.00  0.00     0.039 A 
HETATM    7  C13 UNL     1      24.426   1.955  52.207  1.00  0.00    -0.017 A 
HETATM    8  C14 UNL     1      25.614   2.564  51.460  1.00  0.00     0.069 C 
HETATM    9  C15 UNL     1      24.990   3.161  50.214  1.00  0.00    -0.013 C 
HETATM   10  C16 UNL     1      24.495   3.707  49.084  1.00  0.00     0.060 C 
HETATM   11  C17 UNL     1      23.130   3.573  49.235  1.00  0.00    -0.077 C 
HETATM   12  C18 UNL     1      22.063   3.469  49.377  1.00  0.00    -0.081 C 
HETATM   13  C19 UNL     1      20.703   3.321  49.573  1.00  0.00     0.118 A 
HETATM   14  C20 UNL     1      19.671   3.159  48.677  1.00  0.00    -0.053 A 
HETATM   15  C21 UNL     1      20.155   3.259  47.273  1.00  0.00     0.046 C 
HETATM   16  N1  UNL     1      19.276   3.069  49.980  1.00  0.00     0.000 N 
HETATM   17  C22 UNL     1      18.049   2.854  50.284  1.00  0.00     0.094 A 
HETATM   18  N2  UNL     1      19.015   3.007  51.209  1.00  0.00    -0.184 NA
HETATM   19  C23 UNL     1      20.333   3.235  50.931  1.00  0.00     0.172 A 
HETATM   20  N3  UNL     1      20.947   3.303  52.251  1.00  0.00    -0.362 N 
HETATM   21  H18 UNL     1      20.754   3.748  53.146  1.00  0.00     0.162 HD
ENDROOT
BRANCH   1  22
HETATM   22  O1  UNL     1      25.272  -0.067  52.783  1.00  0.00    -0.335 OA
BRANCH  22  23
HETATM   23  C7  UNL     1      26.142  -0.521  53.718  1.00  0.00     0.181 A 
HETATM   24  C2  UNL     1      27.158  -1.381  53.101  1.00  0.00    -0.047 A 
HETATM   25  C1  UNL     1      27.089  -2.418  52.290  1.00  0.00     0.041 C 
HETATM   26  C3  UNL     1      28.604  -1.229  53.230  1.00  0.00     0.006 A 
HETATM   27  C4  UNL     1      29.112  -0.218  53.954  1.00  0.00     0.000 A 
HETATM   28  C5  UNL     1      28.181   0.732  54.605  1.00  0.00    -0.001 A 
HETATM   29  C6  UNL     1      26.879   0.555  54.471  1.00  0.00     0.010 A 
ENDBRANCH  22  23
ENDBRANCH   1  22
TORSDOF 3
ENDMDL
MODEL 3
REMARK VINA RESULT:      -9.1      3.190      6.706
REMARK  3 active torsions:
REMARK  status: ('A' for Active; 'I' for Inactive)
REMARK    1  A    between atoms: C7_7  and  O1_8 
REMARK    2  A    between atoms: O1_8  and  C8_9 
REMARK    3  A    between atoms: N2_26  and  C23_27 
ROOT
HETATM    1  C8  UNL     1      23.997   4.101  50.821  1.00  0.00     0.098 A 
HETATM    2  C9  UNL     1      22.690   3.935  51.240  1.00  0.00     0.070 A 
HETATM    3 CL1  UNL     1      21.834   5.412  51.582  1.00  0.00    -0.081 Cl
HETATM    4  C10 UNL     1      21.990   2.734  51.429  1.00  0.00     0.056 A 
HETATM    5  C11 UNL     1      22.847   1.626  51.114  1.00  0.00     0.032 A 
HETATM    6  C12 UNL     1      24.096   1.688  50.703  1.00  0.00     0.039 A 
HETATM    7  C13 UNL     1      24.710   2.948  50.554  1.00  0.00    -0.017 A 
HETATM    8  C14 UNL     1      26.201   2.672  50.349  1.00  0.00     0.069 C 
HETATM    9  C15 UNL     1      26.502   1.561  51.335  1.00  0.00    -0.013 C 
HETATM   10  C16 UNL     1      26.834   0.577  52.197  1.00  0.00     0.060 C 
HETATM   11  C17 UNL     1      25.620   0.203  52.737  1.00  0.00    -0.077 C 
HETATM   12  C18 UNL     1      24.659  -0.084  53.141  1.00  0.00    -0.081 C 
HETATM   13  C19 UNL     1      23.422  -0.432  53.650  1.00  0.00     0.118 A 
HETATM   14  C20 UNL     1      23.057  -0.939  54.876  1.00  0.00    -0.053 A 
HETATM   15  C21 UNL     1      24.251  -1.224  55.718  1.00  0.00     0.046 C 
HETATM   16  N1  UNL     1      21.994  -0.657  54.068  1.00  0.00     0.000 N 
HETATM   17  C22 UNL     1      20.792  -0.864  54.464  1.00  0.00     0.094 A 
HETATM   18  N2  UNL     1      21.086  -0.365  53.248  1.00  0.00    -0.184 NA
HETATM   19  C23 UNL     1      22.349  -0.128  52.787  1.00  0.00     0.172 A 
HETATM   20  N3  UNL     1      22.122   0.416  51.454  1.00  0.00    -0.362 N 
HETATM   21  H18 UNL     1      21.548   0.196  50.642  1.00  0.00     0.162 HD
ENDROOT
BRANCH   1  22
HETATM   22  O1  UNL     1      24.698   5.213  50.623  1.00  0.00    -0.335 OA
BRANCH  22  23
HETATM   23  C7  UNL     1      24.951   6.098  49.627  1.00  0.00     0.181 A 
HETATM   24  C2  UNL     1      24.949   7.470  50.145  1.00  0.00    -0.047 A 
HETATM   25  C1  UNL     1      24.099   8.153  50.885  1.00  0.00     0.041 C 
HETATM   26  C3  UNL     1      26.014   8.454  49.972  1.00  0.00     0.006 A 
HETATM   27  C4  UNL     1      27.130   8.125  49.300  1.00  0.00     0.000 A 
HETATM   28  C5  UNL     1      27.256   6.755  48.751  1.00  0.00    -0.001 A 
HETATM   29  C6  UNL     1      26.266   5.897  48.922  1.00  0.00     0.010 A 
ENDBRANCH  22  23
ENDBRANCH   1  22
TORSDOF 3
ENDMDL
MODEL 4
REMARK VINA RESULT:      -9.1      2.908      7.513
REMARK  3 active torsions:
REMARK  status: ('A' for Active; 'I' for Inactive)
REMARK    1  A    between atoms: C7_7  and  O1_8 
REMARK    2  A    between atoms: O1_8  and  C8_9 
REMARK    3  A    between atoms: N2_26  and  C23_27 
ROOT
HETATM    1  C8  UNL     1      22.214   3.419  51.035  1.00  0.00     0.098 A 
HETATM    2  C9  UNL     1      23.465   4.001  50.950  1.00  0.00     0.070 A 
HETATM    3 CL1  UNL     1      23.715   5.009  49.552  1.00  0.00    -0.081 Cl
HETATM    4  C10 UNL     1      24.542   3.865  51.839  1.00  0.00     0.056 A 
HETATM    5  C11 UNL     1      24.165   2.995  52.918  1.00  0.00     0.032 A 
HETATM    6  C12 UNL     1      23.000   2.405  53.084  1.00  0.00     0.039 A 
HETATM    7  C13 UNL     1      21.986   2.601  52.124  1.00  0.00    -0.017 A 
HETATM    8  C14 UNL     1      20.893   1.581  52.448  1.00  0.00     0.069 C 
HETATM    9  C15 UNL     1      21.664   0.323  52.795  1.00  0.00    -0.013 C 
HETATM   10  C16 UNL     1      22.293  -0.829  53.108  1.00  0.00     0.060 C 
HETATM   11  C17 UNL     1      23.626  -0.471  53.125  1.00  0.00    -0.077 C 
HETATM   12  C18 UNL     1      24.664  -0.170  53.143  1.00  0.00    -0.081 C 
HETATM   13  C19 UNL     1      25.986   0.234  53.156  1.00  0.00     0.118 A 
HETATM   14  C20 UNL     1      27.146  -0.454  52.879  1.00  0.00    -0.053 A 
HETATM   15  C21 UNL     1      26.870  -1.893  52.618  1.00  0.00     0.046 C 
HETATM   16  N1  UNL     1      27.347   0.874  53.122  1.00  0.00     0.000 N 
HETATM   17  C22 UNL     1      28.526   1.380  53.083  1.00  0.00     0.094 A 
HETATM   18  N2  UNL     1      27.427   2.106  53.362  1.00  0.00    -0.184 NA
HETATM   19  C23 UNL     1      26.155   1.610  53.412  1.00  0.00     0.172 A 
HETATM   20  N3  UNL     1      25.351   2.783  53.728  1.00  0.00    -0.362 N 
HETATM   21  H18 UNL     1      25.387   3.565  54.379  1.00  0.00     0.162 HD
ENDROOT
BRANCH   1  22
HETATM   22  O1  UNL     1      21.165   3.523  50.224  1.00  0.00    -0.335 OA
BRANCH  22  23
HETATM   23  C7  UNL     1      20.775   3.094  48.998  1.00  0.00     0.181 A 
HETATM   24  C2  UNL     1      20.472   4.234  48.126  1.00  0.00    -0.047 A 
HETATM   25  C1  UNL     1      19.720   5.306  48.274  1.00  0.00     0.041 C 
HETATM   26  C3  UNL     1      21.028   4.470  46.797  1.00  0.00     0.006 A 
HETATM   27  C4  UNL     1      21.918   3.608  46.278  1.00  0.00     0.000 A 
HETATM   28  C5  UNL     1      22.321   2.429  47.078  1.00  0.00    -0.001 A 
HETATM   29  C6  UNL     1      21.788   2.246  48.273  1.00  0.00     0.010 A 
ENDBRANCH  22  23
ENDBRANCH   1  22
TORSDOF 3
ENDMDL
MODEL 5
REMARK VINA RESULT:      -9.0      4.364      6.161
REMARK  3 active torsions:
REMARK  status: ('A' for Active; 'I' for Inactive)
REMARK    1  A    between atoms: C7_7  and  O1_8 
REMARK    2  A    between atoms: O1_8  and  C8_9 
REMARK    3  A    between atoms: N2_26  and  C23_27 
ROOT
HETATM    1  C8  UNL     1      22.318   4.805  50.036  1.00  0.00     0.098 A 
HETATM    2  C9  UNL     1      22.141   6.175  50.067  1.00  0.00     0.070 A 
HETATM    3 CL1  UNL     1      20.577   6.727  49.536  1.00  0.00    -0.081 Cl
HETATM    4  C10 UNL     1      23.064   7.156  50.459  1.00  0.00     0.056 A 
HETATM    5  C11 UNL     1      24.294   6.527  50.851  1.00  0.00     0.032 A 
HETATM    6  C12 UNL     1      24.550   5.236  50.861  1.00  0.00     0.039 A 
HETATM    7  C13 UNL     1      23.553   4.333  50.438  1.00  0.00    -0.017 A 
HETATM    8  C14 UNL     1      24.243   2.975  50.299  1.00  0.00     0.069 C 
HETATM    9  C15 UNL     1      25.577   3.310  49.660  1.00  0.00    -0.013 C 
HETATM   10  C16 UNL     1      26.775   3.544  49.087  1.00  0.00     0.060 C 
HETATM   11  C17 UNL     1      26.846   4.922  49.046  1.00  0.00    -0.077 C 
HETATM   12  C18 UNL     1      26.888   6.002  49.032  1.00  0.00    -0.081 C 
HETATM   13  C19 UNL     1      26.920   7.384  49.017  1.00  0.00     0.118 A 
HETATM   14  C20 UNL     1      27.535   8.267  48.158  1.00  0.00    -0.053 A 
HETATM   15  C21 UNL     1      28.362   7.550  47.150  1.00  0.00     0.046 C 
HETATM   16  N1  UNL     1      26.759   8.878  49.100  1.00  0.00     0.000 N 
HETATM   17  C22 UNL     1      26.648  10.155  49.135  1.00  0.00     0.094 A 
HETATM   18  N2  UNL     1      26.022   9.343  50.007  1.00  0.00    -0.184 NA
HETATM   19  C23 UNL     1      26.110   7.980  50.005  1.00  0.00     0.172 A 
HETATM   20  N3  UNL     1      25.250   7.587  51.114  1.00  0.00    -0.362 N 
HETATM   21  H18 UNL     1      25.094   7.871  52.079  1.00  0.00     0.162 HD
ENDROOT
BRANCH   1  22
HETATM   22  O1  UNL     1      21.475   3.840  49.680  1.00  0.00    -0.335 OA
BRANCH  22  23
HETATM   23  C7  UNL     1      20.587   2.994  50.259  1.00  0.00     0.181 A 
HETATM   24  C2  UNL     1      20.990   1.599  50.046  1.00  0.00    -0.047 A 
HETATM   25  C1  UNL     1      21.334   0.916  48.973  1.00  0.00     0.041 C 
HETATM   26  C3  UNL     1      21.155   0.585  51.083  1.00  0.00     0.006 A 
HETATM   27  C4  UNL     1      20.950   0.903  52.372  1.00  0.00     0.000 A 
HETATM   28  C5  UNL     1      20.564   2.291  52.713  1.00  0.00    -0.001 A 
HETATM   29  C6  UNL     1      20.416   3.177  51.744  1.00  0.00     0.010 A 
ENDBRANCH  22  23
ENDBRANCH   1  22
TORSDOF 3
ENDMDL
MODEL 6
REMARK VINA RESULT:      -8.9      3.079      6.596
REMARK  3 active torsions:
REMARK  status: ('A' for Active; 'I' for Inactive)
REMARK    1  A    between atoms: C7_7  and  O1_8 
REMARK    2  A    between atoms: O1_8  and  C8_9 
REMARK    3  A    between atoms: N2_26  and  C23_27 
ROOT
HETATM    1  C8  UNL     1      23.989   4.506  51.099  1.00  0.00     0.098 A 
HETATM    2  C9  UNL     1      22.613   4.426  51.199  1.00  0.00     0.070 A 
HETATM    3 CL1  UNL     1      21.811   5.937  51.530  1.00  0.00    -0.081 Cl
HETATM    4  C10 UNL     1      21.803   3.287  51.080  1.00  0.00     0.056 A 
HETATM    5  C11 UNL     1      22.626   2.139  50.822  1.00  0.00     0.032 A 
HETATM    6  C12 UNL     1      23.937   2.121  50.703  1.00  0.00     0.039 A 
HETATM    7  C13 UNL     1      24.659   3.323  50.851  1.00  0.00    -0.017 A 
HETATM    8  C14 UNL     1      26.133   2.925  50.941  1.00  0.00     0.069 C 
HETATM    9  C15 UNL     1      26.121   1.691  51.823  1.00  0.00    -0.013 C 
HETATM   10  C16 UNL     1      26.175   0.594  52.606  1.00  0.00     0.060 C 
HETATM   11  C17 UNL     1      24.847   0.286  52.818  1.00  0.00    -0.077 C 
HETATM   12  C18 UNL     1      23.801   0.054  52.964  1.00  0.00    -0.081 C 
HETATM   13  C19 UNL     1      22.458  -0.221  53.144  1.00  0.00     0.118 A 
HETATM   14  C20 UNL     1      21.789  -0.817  54.189  1.00  0.00    -0.053 A 
HETATM   15  C21 UNL     1      22.735  -1.306  55.227  1.00  0.00     0.046 C 
HETATM   16  N1  UNL     1      20.960  -0.347  53.211  1.00  0.00     0.000 N 
HETATM   17  C22 UNL     1      19.688  -0.475  53.307  1.00  0.00     0.094 A 
HETATM   18  N2  UNL     1      20.286   0.117  52.257  1.00  0.00    -0.184 NA
HETATM   19  C23 UNL     1      21.635   0.277  52.114  1.00  0.00     0.172 A 
HETATM   20  N3  UNL     1      21.756   0.978  50.843  1.00  0.00    -0.362 N 
HETATM   21  H18 UNL     1      21.368   0.903  49.904  1.00  0.00     0.162 HD
ENDROOT
BRANCH   1  22
HETATM   22  O1  UNL     1      24.796   5.558  51.199  1.00  0.00    -0.335 OA
BRANCH  22  23
HETATM   23  C7  UNL     1      25.089   6.689  50.511  1.00  0.00     0.181 A 
HETATM   24  C2  UNL     1      25.634   6.362  49.189  1.00  0.00    -0.047 A 
HETATM   25  C1  UNL     1      26.599   5.559  48.786  1.00  0.00     0.041 C 
HETATM   26  C3  UNL     1      25.147   6.869  47.910  1.00  0.00     0.006 A 
HETATM   27  C4  UNL     1      24.095   7.704  47.875  1.00  0.00     0.000 A 
HETATM   28  C5  UNL     1      23.444   8.087  49.149  1.00  0.00    -0.001 A 
HETATM   29  C6  UNL     1      23.921   7.613  50.286  1.00  0.00     0.010 A 
ENDBRANCH  22  23
ENDBRANCH   1  22
TORSDOF 3
ENDMDL
MODEL 7
REMARK VINA RESULT:      -8.9      3.126      4.972
REMARK  3 active torsions:
REMARK  status: ('A' for Active; 'I' for Inactive)
REMARK    1  A    between atoms: C7_7  and  O1_8 
REMARK    2  A    between atoms: O1_8  and  C8_9 
REMARK    3  A    between atoms: N2_26  and  C23_27 
ROOT
HETATM    1  C8  UNL     1      22.925   1.490  52.213  1.00  0.00     0.098 A 
HETATM    2  C9  UNL     1      22.696   2.456  51.252  1.00  0.00     0.070 A 
HETATM    3 CL1  UNL     1      23.676   3.888  51.398  1.00  0.00    -0.081 Cl
HETATM    4  C10 UNL     1      21.771   2.422  50.197  1.00  0.00     0.056 A 
HETATM    5  C11 UNL     1      21.046   1.184  50.237  1.00  0.00     0.032 A 
HETATM    6  C12 UNL     1      21.201   0.207  51.106  1.00  0.00     0.039 A 
HETATM    7  C13 UNL     1      22.155   0.346  52.135  1.00  0.00    -0.017 A 
HETATM    8  C14 UNL     1      21.893  -0.799  53.114  1.00  0.00     0.069 C 
HETATM    9  C15 UNL     1      20.380  -0.863  53.200  1.00  0.00    -0.013 C 
HETATM   10  C16 UNL     1      19.041  -0.965  53.323  1.00  0.00     0.060 C 
HETATM   11  C17 UNL     1      18.564  -0.074  52.383  1.00  0.00    -0.077 C 
HETATM   12  C18 UNL     1      18.210   0.621  51.635  1.00  0.00    -0.081 C 
HETATM   13  C19 UNL     1      17.776   1.519  50.677  1.00  0.00     0.118 A 
HETATM   14  C20 UNL     1      16.640   2.292  50.609  1.00  0.00    -0.053 A 
HETATM   15  C21 UNL     1      15.720   2.000  51.742  1.00  0.00     0.046 C 
HETATM   16  N1  UNL     1      17.518   2.528  49.591  1.00  0.00     0.000 N 
HETATM   17  C22 UNL     1      17.259   3.398  48.686  1.00  0.00     0.094 A 
HETATM   18  N2  UNL     1      18.391   2.669  48.697  1.00  0.00    -0.184 NA
HETATM   19  C23 UNL     1      18.708   1.735  49.641  1.00  0.00     0.172 A 
HETATM   20  N3  UNL     1      20.018   1.259  49.215  1.00  0.00    -0.362 N 
HETATM   21  H18 UNL     1      20.463   0.964  48.348  1.00  0.00     0.162 HD
ENDROOT
BRANCH   1  22
HETATM   22  O1  UNL     1      23.791   1.476  53.223  1.00  0.00    -0.335 OA
BRANCH  22  23
HETATM   23  C7  UNL     1      25.115   1.272  53.431  1.00  0.00     0.181 A 
HETATM   24  C2  UNL     1      25.353  -0.080  53.949  1.00  0.00    -0.047 A 
HETATM   25  C1  UNL     1      24.828  -0.769  54.942  1.00  0.00     0.041 C 
HETATM   26  C3  UNL     1      26.279  -1.062  53.392  1.00  0.00     0.006 A 
HETATM   27  C4  UNL     1      26.995  -0.764  52.295  1.00  0.00     0.000 A 
HETATM   28  C5  UNL     1      26.820   0.566  51.667  1.00  0.00    -0.001 A 
HETATM   29  C6  UNL     1      25.978   1.430  52.207  1.00  0.00     0.010 A 
ENDBRANCH  22  23
ENDBRANCH   1  22
TORSDOF 3
ENDMDL
MODEL 8
REMARK VINA RESULT:      -8.7      2.854      7.655
REMARK  3 active torsions:
REMARK  status: ('A' for Active; 'I' for Inactive)
REMARK    1  A    between atoms: C7_7  and  O1_8 
REMARK    2  A    between atoms: O1_8  and  C8_9 
REMARK    3  A    between atoms: N2_26  and  C23_27 
ROOT
HETATM    1  C8  UNL     1      22.292   2.616  50.478  1.00  0.00     0.098 A 
HETATM    2  C9  UNL     1      23.456   3.354  50.382  1.00  0.00     0.070 A 
HETATM    3 CL1  UNL     1      23.700   4.151  48.853  1.00  0.00    -0.081 Cl
HETATM    4  C10 UNL     1      24.453   3.523  51.355  1.00  0.00     0.056 A 
HETATM    5  C11 UNL     1      24.096   2.792  52.538  1.00  0.00     0.032 A 
HETATM    6  C12 UNL     1      23.010   2.071  52.721  1.00  0.00     0.039 A 
HETATM    7  C13 UNL     1      22.073   1.959  51.673  1.00  0.00    -0.017 A 
HETATM    8  C14 UNL     1      21.101   0.855  52.090  1.00  0.00     0.069 C 
HETATM    9  C15 UNL     1      21.997  -0.205  52.702  1.00  0.00    -0.013 C 
HETATM   10  C16 UNL     1      22.741  -1.186  53.253  1.00  0.00     0.060 C 
HETATM   11  C17 UNL     1      24.007  -0.637  53.301  1.00  0.00    -0.077 C 
HETATM   12  C18 UNL     1      24.989  -0.187  53.340  1.00  0.00    -0.081 C 
HETATM   13  C19 UNL     1      26.239   0.403  53.376  1.00  0.00     0.118 A 
HETATM   14  C20 UNL     1      27.500  -0.142  53.304  1.00  0.00    -0.053 A 
HETATM   15  C21 UNL     1      27.445  -1.629  53.276  1.00  0.00     0.046 C 
HETATM   16  N1  UNL     1      27.499   1.223  53.328  1.00  0.00     0.000 N 
HETATM   17  C22 UNL     1      28.598   1.883  53.285  1.00  0.00     0.094 A 
HETATM   18  N2  UNL     1      27.391   2.476  53.357  1.00  0.00    -0.184 NA
HETATM   19  C23 UNL     1      26.198   1.812  53.402  1.00  0.00     0.172 A 
HETATM   20  N3  UNL     1      25.218   2.890  53.454  1.00  0.00    -0.362 N 
HETATM   21  H18 UNL     1      25.089   3.763  53.961  1.00  0.00     0.162 HD
ENDROOT
BRANCH   1  22
HETATM   22  O1  UNL     1      21.319   2.432  49.589  1.00  0.00    -0.335 OA
BRANCH  22  23
HETATM   23  C7  UNL     1      20.227   3.085  49.121  1.00  0.00     0.181 A 
HETATM   24  C2  UNL     1      18.999   2.472  49.639  1.00  0.00    -0.047 A 
HETATM   25  C1  UNL     1      18.559   1.230  49.677  1.00  0.00     0.041 C 
HETATM   26  C3  UNL     1      17.918   3.168  50.330  1.00  0.00     0.006 A 
HETATM   27  C4  UNL     1      18.007   4.489  50.557  1.00  0.00     0.000 A 
HETATM   28  C5  UNL     1      19.215   5.213  50.100  1.00  0.00    -0.001 A 
HETATM   29  C6  UNL     1      20.167   4.548  49.470  1.00  0.00     0.010 A 
ENDBRANCH  22  23
ENDBRANCH   1  22
TORSDOF 3
ENDMDL
MODEL 9
REMARK VINA RESULT:      -8.6      3.033      4.936
REMARK  3 active torsions:
REMARK  status: ('A' for Active; 'I' for Inactive)
REMARK    1  A    between atoms: C7_7  and  O1_8 
REMARK    2  A    between atoms: O1_8  and  C8_9 
REMARK    3  A    between atoms: N2_26  and  C23_27 
ROOT
HETATM    1  C8  UNL     1      23.500   2.279  51.382  1.00  0.00     0.098 A 
HETATM    2  C9  UNL     1      24.624   2.938  51.844  1.00  0.00     0.070 A 
HETATM    3 CL1  UNL     1      24.882   2.838  53.564  1.00  0.00    -0.081 Cl
HETATM    4  C10 UNL     1      25.558   3.676  51.102  1.00  0.00     0.056 A 
HETATM    5  C11 UNL     1      25.185   3.663  49.715  1.00  0.00     0.032 A 
HETATM    6  C12 UNL     1      24.142   3.059  49.186  1.00  0.00     0.039 A 
HETATM    7  C13 UNL     1      23.258   2.349  50.024  1.00  0.00    -0.017 A 
HETATM    8  C14 UNL     1      22.034   2.020  49.168  1.00  0.00     0.069 C 
HETATM    9  C15 UNL     1      21.800   3.287  48.369  1.00  0.00    -0.013 C 
HETATM   10  C16 UNL     1      21.537   4.387  47.633  1.00  0.00     0.060 C 
HETATM   11  C17 UNL     1      22.602   5.220  47.913  1.00  0.00    -0.077 C 
HETATM   12  C18 UNL     1      23.449   5.855  48.135  1.00  0.00    -0.081 C 
HETATM   13  C19 UNL     1      24.536   6.653  48.438  1.00  0.00     0.118 A 
HETATM   14  C20 UNL     1      24.668   8.022  48.488  1.00  0.00    -0.053 A 
HETATM   15  C21 UNL     1      23.420   8.701  48.043  1.00  0.00     0.046 C 
HETATM   16  N1  UNL     1      25.787   7.354  48.893  1.00  0.00     0.000 N 
HETATM   17  C22 UNL     1      26.833   7.991  49.273  1.00  0.00     0.094 A 
HETATM   18  N2  UNL     1      26.766   6.647  49.244  1.00  0.00    -0.184 NA
HETATM   19  C23 UNL     1      25.673   5.929  48.849  1.00  0.00     0.172 A 
HETATM   20  N3  UNL     1      26.102   4.546  49.019  1.00  0.00    -0.362 N 
HETATM   21  H18 UNL     1      26.921   3.982  48.798  1.00  0.00     0.162 HD
ENDROOT
BRANCH   1  22
HETATM   22  O1  UNL     1      22.594   1.566  52.044  1.00  0.00    -0.335 OA
BRANCH  22  23
HETATM   23  C7  UNL     1      22.196   0.275  52.160  1.00  0.00     0.181 A 
HETATM   24  C2  UNL     1      22.986  -0.417  53.185  1.00  0.00    -0.047 A 
HETATM   25  C1  UNL     1      24.281  -0.527  53.401  1.00  0.00     0.041 C 
HETATM   26  C3  UNL     1      22.453  -1.166  54.319  1.00  0.00     0.006 A 
HETATM   27  C4  UNL     1      21.126  -1.251  54.504  1.00  0.00     0.000 A 
HETATM   28  C5  UNL     1      20.226  -0.570  53.545  1.00  0.00    -0.001 A 
HETATM   29  C6  UNL     1      20.747   0.090  52.527  1.00  0.00     0.010 A 
ENDBRANCH  22  23
ENDBRANCH   1  22
TORSDOF 3
ENDMDL
