MODEL 1
REMARK VINA RESULT:      -9.2      0.000      0.000
REMARK  2 active torsions:
REMARK  status: ('A' for Active; 'I' for Inactive)
REMARK    1  A    between atoms: N1_1  and  C1_2 
REMARK    2  A    between atoms: C5_6  and  C6_7 
ROOT
HETATM    1  C6  UNL     1      25.356   3.267  49.785  1.00  0.00     0.148 C 
HETATM    2  N2  UNL     1      23.992   3.221  49.240  1.00  0.00    -0.365 N 
HETATM    3  C7  UNL     1      22.857   2.666  49.948  1.00  0.00     0.105 C 
HETATM    4  N3  UNL     1      22.374   3.793  50.414  1.00  0.00    -0.226 NA
HETATM    5  C8  UNL     1      21.196   3.805  51.222  1.00  0.00     0.264 C 
HETATM    6  N4  UNL     1      22.026   3.906  52.208  1.00  0.00    -0.126 NA
HETATM    7  O1  UNL     1      23.362   3.939  51.939  1.00  0.00    -0.241 OA
HETATM    8  C9  UNL     1      24.285   2.981  52.302  1.00  0.00     0.219 C 
HETATM    9  C10 UNL     1      23.586   1.622  52.355  1.00  0.00    -0.026 C 
HETATM   10  C11 UNL     1      22.410   1.214  51.828  1.00  0.00    -0.009 C 
HETATM   11  C12 UNL     1      22.095   1.415  50.350  1.00  0.00     0.106 C 
HETATM   12  C13 UNL     1      23.924   0.320  52.914  1.00  0.00     0.010 C 
HETATM   13  C14 UNL     1      25.142  -0.168  53.166  1.00  0.00     0.001 C 
HETATM   14  C15 UNL     1      26.520   0.213  52.820  1.00  0.00     0.000 C 
HETATM   15  C16 UNL     1      27.057   1.127  52.012  1.00  0.00     0.000 C 
HETATM   16  C17 UNL     1      26.512   2.216  51.211  1.00  0.00     0.008 C 
HETATM   17  C18 UNL     1      25.346   2.827  51.206  1.00  0.00    -0.017 C 
HETATM   18  H7  UNL     1      23.891   3.616  48.302  1.00  0.00     0.161 HD
ENDROOT
BRANCH   1  19
HETATM   19  C5  UNL     1      25.896   4.609  49.541  1.00  0.00    -0.029 A 
HETATM   20  C4  UNL     1      26.977   4.928  48.757  1.00  0.00     0.010 A 
HETATM   21  C3  UNL     1      27.494   6.186  48.537  1.00  0.00     0.003 A 
HETATM   22  C2  UNL     1      26.886   7.260  49.153  1.00  0.00     0.029 A 
HETATM   23  C1  UNL     1      25.793   7.019  49.958  1.00  0.00     0.026 A 
HETATM   24  C19 UNL     1      25.326   5.734  50.138  1.00  0.00     0.038 A 
BRANCH  23  25
HETATM   25  N1  UNL     1      25.227   8.177  50.554  1.00  0.00    -0.399 N 
HETATM   26  H1  UNL     1      25.237   8.756  51.434  1.00  0.00     0.156 HD
HETATM   27  H2  UNL     1      24.558   8.641  49.906  1.00  0.00     0.156 HD
ENDBRANCH  23  25
ENDBRANCH   1  19
TORSDOF 2
ENDMDL
MODEL 2
REMARK VINA RESULT:      -9.0      2.550      4.316
REMARK  2 active torsions:
REMARK  status: ('A' for Active; 'I' for Inactive)
REMARK    1  A    between atoms: N1_1  and  C1_2 
REMARK    2  A    between atoms: C5_6  and  C6_7 
ROOT
HETATM    1  C6  UNL     1      24.930   2.790  52.647  1.00  0.00     0.148 C 
HETATM    2  N2  UNL     1      26.151   2.531  53.422  1.00  0.00    -0.365 N 
HETATM    3  C7  UNL     1      26.458   1.262  54.049  1.00  0.00     0.105 C 
HETATM    4  N3  UNL     1      27.242   0.788  53.111  1.00  0.00    -0.226 NA
HETATM    5  C8  UNL     1      27.840  -0.503  53.241  1.00  0.00     0.264 C 
HETATM    6  N4  UNL     1      26.887  -0.884  52.455  1.00  0.00    -0.126 NA
HETATM    7  O1  UNL     1      25.987   0.042  52.017  1.00  0.00    -0.241 OA
HETATM    8  C9  UNL     1      24.644   0.074  52.324  1.00  0.00     0.219 C 
HETATM    9  C10 UNL     1      24.443  -0.538  53.711  1.00  0.00    -0.026 C 
HETATM   10  C11 UNL     1      25.325  -0.768  54.710  1.00  0.00    -0.009 C 
HETATM   11  C12 UNL     1      26.230   0.341  55.235  1.00  0.00     0.106 C 
HETATM   12  C13 UNL     1      23.290  -1.027  54.457  1.00  0.00     0.010 C 
HETATM   13  C14 UNL     1      22.010  -0.677  54.299  1.00  0.00     0.001 C 
HETATM   14  C15 UNL     1      21.291   0.387  53.583  1.00  0.00     0.000 C 
HETATM   15  C16 UNL     1      21.667   1.483  52.924  1.00  0.00     0.000 C 
HETATM   16  C17 UNL     1      22.958   2.036  52.531  1.00  0.00     0.008 C 
HETATM   17  C18 UNL     1      24.169   1.524  52.470  1.00  0.00    -0.017 C 
HETATM   18  H7  UNL     1      26.791   3.326  53.493  1.00  0.00     0.161 HD
ENDROOT
BRANCH   1  19
HETATM   19  C5  UNL     1      25.315   3.476  51.410  1.00  0.00    -0.029 A 
HETATM   20  C4  UNL     1      26.345   3.135  50.568  1.00  0.00     0.010 A 
HETATM   21  C3  UNL     1      26.715   3.785  49.412  1.00  0.00     0.003 A 
HETATM   22  C2  UNL     1      25.999   4.900  49.030  1.00  0.00     0.029 A 
HETATM   23  C1  UNL     1      24.949   5.306  49.825  1.00  0.00     0.026 A 
HETATM   24  C19 UNL     1      24.630   4.611  50.972  1.00  0.00     0.038 A 
BRANCH  23  25
HETATM   25  N1  UNL     1      24.264   6.461  49.361  1.00  0.00    -0.399 N 
HETATM   26  H1  UNL     1      23.576   6.792  48.636  1.00  0.00     0.156 HD
HETATM   27  H2  UNL     1      24.518   7.297  49.927  1.00  0.00     0.156 HD
ENDBRANCH  23  25
ENDBRANCH   1  19
TORSDOF 2
ENDMDL
MODEL 3
REMARK VINA RESULT:      -9.0      2.483      4.796
REMARK  2 active torsions:
REMARK  status: ('A' for Active; 'I' for Inactive)
REMARK    1  A    between atoms: N1_1  and  C1_2 
REMARK    2  A    between atoms: C5_6  and  C6_7 
ROOT
HETATM    1  C6  UNL     1      25.519   0.793  52.144  1.00  0.00     0.148 C 
HETATM    2  N2  UNL     1      25.469   1.641  50.946  1.00  0.00    -0.365 N 
HETATM    3  C7  UNL     1      24.345   2.486  50.598  1.00  0.00     0.105 C 
HETATM    4  N3  UNL     1      24.815   3.611  51.080  1.00  0.00    -0.226 NA
HETATM    5  C8  UNL     1      24.055   4.818  50.994  1.00  0.00     0.264 C 
HETATM    6  N4  UNL     1      23.754   4.567  52.226  1.00  0.00    -0.126 NA
HETATM    7  O1  UNL     1      24.268   3.449  52.813  1.00  0.00    -0.241 OA
HETATM    8  C9  UNL     1      23.546   2.359  53.248  1.00  0.00     0.219 C 
HETATM    9  C10 UNL     1      22.299   2.216  52.375  1.00  0.00    -0.026 C 
HETATM   10  C11 UNL     1      22.008   2.736  51.162  1.00  0.00    -0.009 C 
HETATM   11  C12 UNL     1      22.959   2.569  49.982  1.00  0.00     0.106 C 
HETATM   12  C13 UNL     1      21.052   1.471  52.487  1.00  0.00     0.010 C 
HETATM   13  C14 UNL     1      20.828   0.355  53.188  1.00  0.00     0.001 C 
HETATM   14  C15 UNL     1      21.666  -0.641  53.874  1.00  0.00     0.000 C 
HETATM   15  C16 UNL     1      22.978  -0.868  53.938  1.00  0.00     0.000 C 
HETATM   16  C17 UNL     1      24.153  -0.156  53.451  1.00  0.00     0.008 C 
HETATM   17  C18 UNL     1      24.338   1.069  53.005  1.00  0.00    -0.017 C 
HETATM   18  H7  UNL     1      26.303   1.598  50.354  1.00  0.00     0.161 HD
ENDROOT
BRANCH   1  19
HETATM   19  C5  UNL     1      26.825   0.984  52.781  1.00  0.00    -0.029 A 
HETATM   20  C4  UNL     1      27.367   2.174  53.201  1.00  0.00     0.010 A 
HETATM   21  C3  UNL     1      28.599   2.357  53.789  1.00  0.00     0.003 A 
HETATM   22  C2  UNL     1      29.399   1.252  53.992  1.00  0.00     0.029 A 
HETATM   23  C1  UNL     1      28.923   0.019  53.595  1.00  0.00     0.026 A 
HETATM   24  C19 UNL     1      27.680  -0.096  53.011  1.00  0.00     0.038 A 
BRANCH  23  25
HETATM   25  N1  UNL     1      29.808  -1.065  53.838  1.00  0.00    -0.399 N 
HETATM   26  H1  UNL     1      30.705  -1.320  54.326  1.00  0.00     0.156 HD
HETATM   27  H2  UNL     1      29.467  -1.934  53.379  1.00  0.00     0.156 HD
ENDBRANCH  23  25
ENDBRANCH   1  19
TORSDOF 2
ENDMDL
MODEL 4
REMARK VINA RESULT:      -8.9      2.334      5.334
REMARK  2 active torsions:
REMARK  status: ('A' for Active; 'I' for Inactive)
REMARK    1  A    between atoms: N1_1  and  C1_2 
REMARK    2  A    between atoms: C5_6  and  C6_7 
ROOT
HETATM    1  C6  UNL     1      26.124   2.583  52.269  1.00  0.00     0.148 C 
HETATM    2  N2  UNL     1      25.032   2.798  53.229  1.00  0.00    -0.365 N 
HETATM    3  C7  UNL     1      23.749   3.372  52.879  1.00  0.00     0.105 C 
HETATM    4  N3  UNL     1      23.086   2.249  52.745  1.00  0.00    -0.226 NA
HETATM    5  C8  UNL     1      21.703   2.254  52.386  1.00  0.00     0.264 C 
HETATM    6  N4  UNL     1      22.140   1.986  51.200  1.00  0.00    -0.126 NA
HETATM    7  O1  UNL     1      23.485   1.867  51.007  1.00  0.00    -0.241 OA
HETATM    8  C9  UNL     1      24.270   2.703  50.241  1.00  0.00     0.219 C 
HETATM    9  C10 UNL     1      23.657   4.103  50.257  1.00  0.00    -0.026 C 
HETATM   10  C11 UNL     1      22.751   4.660  51.094  1.00  0.00    -0.009 C 
HETATM   11  C12 UNL     1      22.953   4.636  52.605  1.00  0.00     0.106 C 
HETATM   12  C13 UNL     1      23.840   5.310  49.462  1.00  0.00     0.010 C 
HETATM   13  C14 UNL     1      24.920   5.666  48.759  1.00  0.00     0.001 C 
HETATM   14  C15 UNL     1      26.314   5.207  48.668  1.00  0.00     0.000 C 
HETATM   15  C16 UNL     1      27.054   4.337  49.356  1.00  0.00     0.000 C 
HETATM   16  C17 UNL     1      26.767   3.384  50.420  1.00  0.00     0.008 C 
HETATM   17  C18 UNL     1      25.647   2.877  50.891  1.00  0.00    -0.017 C 
HETATM   18  H7  UNL     1      25.241   2.510  54.188  1.00  0.00     0.161 HD
ENDROOT
BRANCH   1  19
HETATM   19  C5  UNL     1      26.654   1.232  52.481  1.00  0.00    -0.029 A 
HETATM   20  C4  UNL     1      26.037   0.048  52.158  1.00  0.00     0.010 A 
HETATM   21  C3  UNL     1      26.528  -1.221  52.367  1.00  0.00     0.003 A 
HETATM   22  C2  UNL     1      27.765  -1.355  52.961  1.00  0.00     0.029 A 
HETATM   23  C1  UNL     1      28.447  -0.210  53.315  1.00  0.00     0.026 A 
HETATM   24  C19 UNL     1      27.899   1.033  53.079  1.00  0.00     0.038 A 
BRANCH  23  25
HETATM   25  N1  UNL     1      29.712  -0.435  53.921  1.00  0.00    -0.399 N 
HETATM   26  H1  UNL     1      30.725  -0.149  53.877  1.00  0.00     0.156 HD
HETATM   27  H2  UNL     1      29.638  -1.132  54.690  1.00  0.00     0.156 HD
ENDBRANCH  23  25
ENDBRANCH   1  19
TORSDOF 2
ENDMDL
MODEL 5
REMARK VINA RESULT:      -8.7      1.961      2.887
REMARK  2 active torsions:
REMARK  status: ('A' for Active; 'I' for Inactive)
REMARK    1  A    between atoms: N1_1  and  C1_2 
REMARK    2  A    between atoms: C5_6  and  C6_7 
ROOT
HETATM    1  C6  UNL     1      23.062   1.996  50.684  1.00  0.00     0.148 C 
HETATM    2  N2  UNL     1      21.849   2.067  49.857  1.00  0.00    -0.365 N 
HETATM    3  C7  UNL     1      20.520   1.753  50.341  1.00  0.00     0.105 C 
HETATM    4  N3  UNL     1      20.130   2.979  50.592  1.00  0.00    -0.226 NA
HETATM    5  C8  UNL     1      18.827   3.240  51.116  1.00  0.00     0.264 C 
HETATM    6  N4  UNL     1      19.441   3.343  52.248  1.00  0.00    -0.126 NA
HETATM    7  O1  UNL     1      20.793   3.169  52.280  1.00  0.00    -0.241 OA
HETATM    8  C9  UNL     1      21.463   2.146  52.917  1.00  0.00     0.219 C 
HETATM    9  C10 UNL     1      20.568   0.906  52.929  1.00  0.00    -0.026 C 
HETATM   10  C11 UNL     1      19.478   0.599  52.191  1.00  0.00    -0.009 C 
HETATM   11  C12 UNL     1      19.510   0.668  50.668  1.00  0.00     0.106 C 
HETATM   12  C13 UNL     1      20.579  -0.356  53.656  1.00  0.00     0.010 C 
HETATM   13  C14 UNL     1      21.629  -0.968  54.211  1.00  0.00     0.001 C 
HETATM   14  C15 UNL     1      23.091  -0.814  54.147  1.00  0.00     0.000 C 
HETATM   15  C16 UNL     1      23.917  -0.078  53.403  1.00  0.00     0.000 C 
HETATM   16  C17 UNL     1      23.723   0.974  52.413  1.00  0.00     0.008 C 
HETATM   17  C18 UNL     1      22.691   1.728  52.099  1.00  0.00    -0.017 C 
HETATM   18  H7  UNL     1      22.005   2.362  48.890  1.00  0.00     0.161 HD
ENDROOT
BRANCH   1  19
HETATM   19  C5  UNL     1      23.840   3.218  50.454  1.00  0.00    -0.029 A 
HETATM   20  C4  UNL     1      24.795   3.412  49.487  1.00  0.00     0.010 A 
HETATM   21  C3  UNL     1      25.536   4.554  49.276  1.00  0.00     0.003 A 
HETATM   22  C2  UNL     1      25.321   5.635  50.105  1.00  0.00     0.029 A 
HETATM   23  C1  UNL     1      24.376   5.516  51.102  1.00  0.00     0.026 A 
HETATM   24  C19 UNL     1      23.668   4.343  51.260  1.00  0.00     0.038 A 
BRANCH  23  25
HETATM   25  N1  UNL     1      24.216   6.674  51.911  1.00  0.00    -0.399 N 
HETATM   26  H1  UNL     1      23.516   7.191  52.503  1.00  0.00     0.156 HD
HETATM   27  H2  UNL     1      25.097   7.227  51.947  1.00  0.00     0.156 HD
ENDBRANCH  23  25
ENDBRANCH   1  19
TORSDOF 2
ENDMDL
MODEL 6
REMARK VINA RESULT:      -8.5      2.939      6.573
REMARK  2 active torsions:
REMARK  status: ('A' for Active; 'I' for Inactive)
REMARK    1  A    between atoms: N1_1  and  C1_2 
REMARK    2  A    between atoms: C5_6  and  C6_7 
ROOT
HETATM    1  C6  UNL     1      20.996   1.250  52.912  1.00  0.00     0.148 C 
HETATM    2  N2  UNL     1      20.705   2.678  52.726  1.00  0.00    -0.365 N 
HETATM    3  C7  UNL     1      21.583   3.600  52.035  1.00  0.00     0.105 C 
HETATM    4  N3  UNL     1      20.983   3.573  50.869  1.00  0.00    -0.226 NA
HETATM    5  C8  UNL     1      21.477   4.347  49.775  1.00  0.00     0.264 C 
HETATM    6  N4  UNL     1      21.999   3.231  49.385  1.00  0.00    -0.126 NA
HETATM    7  O1  UNL     1      21.801   2.114  50.142  1.00  0.00    -0.241 OA
HETATM    8  C9  UNL     1      22.775   1.413  50.820  1.00  0.00     0.219 C 
HETATM    9  C10 UNL     1      23.883   2.384  51.231  1.00  0.00    -0.026 C 
HETATM   10  C11 UNL     1      23.886   3.734  51.315  1.00  0.00    -0.009 C 
HETATM   11  C12 UNL     1      22.820   4.477  52.112  1.00  0.00     0.106 C 
HETATM   12  C13 UNL     1      25.252   2.233  51.705  1.00  0.00     0.010 C 
HETATM   13  C14 UNL     1      25.786   1.179  52.332  1.00  0.00     0.001 C 
HETATM   14  C15 UNL     1      25.265  -0.040  52.967  1.00  0.00     0.000 C 
HETATM   15  C16 UNL     1      24.045  -0.485  53.268  1.00  0.00     0.000 C 
HETATM   16  C17 UNL     1      22.697  -0.006  52.992  1.00  0.00     0.008 C 
HETATM   17  C18 UNL     1      22.217   0.882  52.146  1.00  0.00    -0.017 C 
HETATM   18  H7  UNL     1      19.816   2.990  53.126  1.00  0.00     0.161 HD
ENDROOT
BRANCH   1  19
HETATM   19  C5  UNL     1      19.786   0.492  52.576  1.00  0.00    -0.029 A 
HETATM   20  C4  UNL     1      18.974   0.684  51.486  1.00  0.00     0.010 A 
HETATM   21  C3  UNL     1      17.831  -0.018  51.175  1.00  0.00     0.003 A 
HETATM   22  C2  UNL     1      17.430  -1.026  52.027  1.00  0.00     0.029 A 
HETATM   23  C1  UNL     1      18.195  -1.278  53.146  1.00  0.00     0.026 A 
HETATM   24  C19 UNL     1      19.330  -0.537  53.400  1.00  0.00     0.038 A 
BRANCH  23  25
HETATM   25  N1  UNL     1      17.713  -2.330  53.970  1.00  0.00    -0.399 N 
HETATM   26  H1  UNL     1      16.982  -3.086  54.021  1.00  0.00     0.156 HD
HETATM   27  H2  UNL     1      18.268  -2.400  54.848  1.00  0.00     0.156 HD
ENDBRANCH  23  25
ENDBRANCH   1  19
TORSDOF 2
ENDMDL
MODEL 7
REMARK VINA RESULT:      -8.2      1.993      5.644
REMARK  2 active torsions:
REMARK  status: ('A' for Active; 'I' for Inactive)
REMARK    1  A    between atoms: N1_1  and  C1_2 
REMARK    2  A    between atoms: C5_6  and  C6_7 
ROOT
HETATM    1  C6  UNL     1      23.861   3.405  51.728  1.00  0.00     0.148 C 
HETATM    2  N2  UNL     1      22.949   4.469  52.169  1.00  0.00    -0.365 N 
HETATM    3  C7  UNL     1      22.692   5.679  51.415  1.00  0.00     0.105 C 
HETATM    4  N3  UNL     1      21.578   5.294  50.840  1.00  0.00    -0.226 NA
HETATM    5  C8  UNL     1      20.879   6.162  49.945  1.00  0.00     0.264 C 
HETATM    6  N4  UNL     1      21.446   5.457  49.022  1.00  0.00    -0.126 NA
HETATM    7  O1  UNL     1      22.268   4.433  49.388  1.00  0.00    -0.241 OA
HETATM    8  C9  UNL     1      23.627   4.365  49.162  1.00  0.00     0.219 C 
HETATM    9  C10 UNL     1      24.194   5.785  49.146  1.00  0.00    -0.026 C 
HETATM   10  C11 UNL     1      23.677   6.946  49.608  1.00  0.00    -0.009 C 
HETATM   11  C12 UNL     1      23.172   7.070  51.041  1.00  0.00     0.106 C 
HETATM   12  C13 UNL     1      25.447   6.381  48.702  1.00  0.00     0.010 C 
HETATM   13  C14 UNL     1      26.635   5.782  48.577  1.00  0.00     0.001 C 
HETATM   14  C15 UNL     1      27.215   4.499  49.001  1.00  0.00     0.000 C 
HETATM   15  C16 UNL     1      26.801   3.504  49.785  1.00  0.00     0.000 C 
HETATM   16  C17 UNL     1      25.548   3.208  50.468  1.00  0.00     0.008 C 
HETATM   17  C18 UNL     1      24.326   3.683  50.343  1.00  0.00    -0.017 C 
HETATM   18  H7  UNL     1      22.492   4.298  53.069  1.00  0.00     0.161 HD
ENDROOT
BRANCH   1  19
HETATM   19  C5  UNL     1      23.184   2.118  51.922  1.00  0.00    -0.029 A 
HETATM   20  C4  UNL     1      22.182   1.593  51.144  1.00  0.00     0.010 A 
HETATM   21  C3  UNL     1      21.537   0.390  51.332  1.00  0.00     0.003 A 
HETATM   22  C2  UNL     1      21.911  -0.393  52.403  1.00  0.00     0.029 A 
HETATM   23  C1  UNL     1      22.912   0.068  53.232  1.00  0.00     0.026 A 
HETATM   24  C19 UNL     1      23.517   1.283  52.989  1.00  0.00     0.038 A 
BRANCH  23  25
HETATM   25  N1  UNL     1      23.237  -0.798  54.310  1.00  0.00    -0.399 N 
HETATM   26  H1  UNL     1      23.168  -0.894  55.357  1.00  0.00     0.156 HD
HETATM   27  H2  UNL     1      23.717  -1.655  53.968  1.00  0.00     0.156 HD
ENDBRANCH  23  25
ENDBRANCH   1  19
TORSDOF 2
ENDMDL
MODEL 8
REMARK VINA RESULT:      -8.2      3.500      5.506
REMARK  2 active torsions:
REMARK  status: ('A' for Active; 'I' for Inactive)
REMARK    1  A    between atoms: N1_1  and  C1_2 
REMARK    2  A    between atoms: C5_6  and  C6_7 
ROOT
HETATM    1  C6  UNL     1      22.582   0.381  52.036  1.00  0.00     0.148 C 
HETATM    2  N2  UNL     1      22.471   1.067  50.741  1.00  0.00    -0.365 N 
HETATM    3  C7  UNL     1      21.237   1.620  50.221  1.00  0.00     0.105 C 
HETATM    4  N3  UNL     1      21.432   2.862  50.591  1.00  0.00    -0.226 NA
HETATM    5  C8  UNL     1      20.460   3.871  50.309  1.00  0.00     0.264 C 
HETATM    6  N4  UNL     1      20.108   3.697  51.540  1.00  0.00    -0.126 NA
HETATM    7  O1  UNL     1      20.779   2.779  52.292  1.00  0.00    -0.241 OA
HETATM    8  C9  UNL     1      20.251   1.616  52.811  1.00  0.00     0.219 C 
HETATM    9  C10 UNL     1      19.137   1.126  51.884  1.00  0.00    -0.026 C 
HETATM   10  C11 UNL     1      18.856   1.442  50.600  1.00  0.00    -0.009 C 
HETATM   11  C12 UNL     1      19.921   1.349  49.513  1.00  0.00     0.106 C 
HETATM   12  C13 UNL     1      18.057   0.157  52.007  1.00  0.00     0.010 C 
HETATM   13  C14 UNL     1      17.998  -0.899  52.824  1.00  0.00     0.001 C 
HETATM   14  C15 UNL     1      18.952  -1.622  53.679  1.00  0.00     0.000 C 
HETATM   15  C16 UNL     1      20.272  -1.565  53.855  1.00  0.00     0.000 C 
HETATM   16  C17 UNL     1      21.322  -0.683  53.360  1.00  0.00     0.008 C 
HETATM   17  C18 UNL     1      21.299   0.498  52.779  1.00  0.00    -0.017 C 
HETATM   18  H7  UNL     1      23.345   1.133  50.214  1.00  0.00     0.161 HD
ENDROOT
BRANCH   1  19
HETATM   19  C5  UNL     1      23.765   0.905  52.726  1.00  0.00    -0.029 A 
HETATM   20  C4  UNL     1      24.096   2.226  52.900  1.00  0.00     0.010 A 
HETATM   21  C3  UNL     1      25.212   2.720  53.538  1.00  0.00     0.003 A 
HETATM   22  C2  UNL     1      26.113   1.822  54.070  1.00  0.00     0.029 A 
HETATM   23  C1  UNL     1      25.849   0.475  53.935  1.00  0.00     0.026 A 
HETATM   24  C19 UNL     1      24.713   0.046  53.283  1.00  0.00     0.038 A 
BRANCH  23  25
HETATM   25  N1  UNL     1      26.826  -0.382  54.510  1.00  0.00    -0.399 N 
HETATM   26  H1  UNL     1      27.743  -0.859  54.310  1.00  0.00     0.156 HD
HETATM   27  H2  UNL     1      26.563  -0.648  55.481  1.00  0.00     0.156 HD
ENDBRANCH  23  25
ENDBRANCH   1  19
TORSDOF 2
ENDMDL
MODEL 9
REMARK VINA RESULT:      -8.2      2.058      5.251
REMARK  2 active torsions:
REMARK  status: ('A' for Active; 'I' for Inactive)
REMARK    1  A    between atoms: N1_1  and  C1_2 
REMARK    2  A    between atoms: C5_6  and  C6_7 
ROOT
HETATM    1  C6  UNL     1      23.617   1.834  51.517  1.00  0.00     0.148 C 
HETATM    2  N2  UNL     1      24.333   2.549  50.452  1.00  0.00    -0.365 N 
HETATM    3  C7  UNL     1      23.911   3.824  49.907  1.00  0.00     0.105 C 
HETATM    4  N3  UNL     1      24.701   4.589  50.621  1.00  0.00    -0.226 NA
HETATM    5  C8  UNL     1      24.679   6.010  50.466  1.00  0.00     0.264 C 
HETATM    6  N4  UNL     1      23.951   5.988  51.534  1.00  0.00    -0.126 NA
HETATM    7  O1  UNL     1      23.667   4.786  52.111  1.00  0.00    -0.241 OA
HETATM    8  C9  UNL     1      22.418   4.210  52.210  1.00  0.00     0.219 C 
HETATM    9  C10 UNL     1      21.572   4.665  51.020  1.00  0.00    -0.026 C 
HETATM   10  C11 UNL     1      21.935   5.214  49.838  1.00  0.00    -0.009 C 
HETATM   11  C12 UNL     1      22.985   4.554  48.951  1.00  0.00     0.106 C 
HETATM   12  C13 UNL     1      20.150   4.636  50.705  1.00  0.00     0.010 C 
HETATM   13  C14 UNL     1      19.224   3.803  51.191  1.00  0.00     0.001 C 
HETATM   14  C15 UNL     1      19.238   2.552  51.963  1.00  0.00     0.000 C 
HETATM   15  C16 UNL     1      20.195   1.711  52.357  1.00  0.00     0.000 C 
HETATM   16  C17 UNL     1      21.651   1.732  52.289  1.00  0.00     0.008 C 
HETATM   17  C18 UNL     1      22.523   2.689  52.049  1.00  0.00    -0.017 C 
HETATM   18  H7  UNL     1      25.174   2.078  50.108  1.00  0.00     0.161 HD
ENDROOT
BRANCH   1  19
HETATM   19  C5  UNL     1      24.604   1.382  52.502  1.00  0.00    -0.029 A 
HETATM   20  C4  UNL     1      24.571   0.211  53.220  1.00  0.00     0.010 A 
HETATM   21  C3  UNL     1      25.490  -0.210  54.155  1.00  0.00     0.003 A 
HETATM   22  C2  UNL     1      26.570   0.605  54.424  1.00  0.00     0.029 A 
HETATM   23  C1  UNL     1      26.673   1.799  53.742  1.00  0.00     0.026 A 
HETATM   24  C19 UNL     1      25.716   2.163  52.818  1.00  0.00     0.038 A 
BRANCH  23  25
HETATM   25  N1  UNL     1      27.813   2.578  54.078  1.00  0.00    -0.399 N 
HETATM   26  H1  UNL     1      28.565   2.690  54.806  1.00  0.00     0.156 HD
HETATM   27  H2  UNL     1      27.989   3.310  53.359  1.00  0.00     0.156 HD
ENDBRANCH  23  25
ENDBRANCH   1  19
TORSDOF 2
ENDMDL
