MODEL 1
REMARK VINA RESULT:      -8.1      0.000      0.000
REMARK  4 active torsions:
REMARK  status: ('A' for Active; 'I' for Inactive)
REMARK    1  A    between atoms: C2_2  and  N1_3 
REMARK    2  A    between atoms: C7_10  and  N4_11 
REMARK    3  A    between atoms: N4_11  and  C8_12 
REMARK    4  A    between atoms: C8_12  and  C9_13 
ROOT
HETATM    1  N1  UNL     1      23.770   1.930  52.342  1.00  0.00    -0.341 N 
HETATM    2  C3  UNL     1      22.909   1.070  52.967  1.00  0.00     0.053 A 
HETATM    3  C4  UNL     1      23.534  -0.062  53.428  1.00  0.00     0.061 A 
HETATM    4  C5  UNL     1      24.845   0.138  53.055  1.00  0.00     0.104 A 
HETATM    5  N2  UNL     1      25.954  -0.631  53.229  1.00  0.00    -0.239 NA
HETATM    6  C6  UNL     1      27.156  -0.238  52.780  1.00  0.00     0.236 A 
HETATM    7  N3  UNL     1      27.218   0.927  52.165  1.00  0.00    -0.222 NA
HETATM    8  C7  UNL     1      26.200   1.773  51.932  1.00  0.00     0.154 A 
HETATM    9  C15 UNL     1      24.977   1.344  52.402  1.00  0.00     0.111 A 
HETATM   10  C16 UNL     1      22.461  -0.630  53.944  1.00  0.00     0.133 A 
HETATM   11  F1  UNL     1      22.143  -1.766  54.601  1.00  0.00    -0.205 F 
HETATM   12  C17 UNL     1      21.770   0.559  53.468  1.00  0.00     0.074 A 
ENDROOT
BRANCH   8  13
HETATM   13  N4  UNL     1      26.428   3.030  51.287  1.00  0.00    -0.369 N 
HETATM   14  H7  UNL     1      26.583   3.972  51.610  1.00  0.00     0.161 HD
BRANCH  13  15
HETATM   15  C8  UNL     1      26.471   2.995  49.841  1.00  0.00     0.160 C 
BRANCH  15  16
HETATM   16  C9  UNL     1      26.539   4.350  49.264  1.00  0.00    -0.041 A 
HETATM   17  C10 UNL     1      27.747   4.802  48.752  1.00  0.00     0.009 A 
HETATM   18  C11 UNL     1      27.872   6.076  48.193  1.00  0.00     0.001 A 
HETATM   19  C12 UNL     1      26.740   6.880  48.167  1.00  0.00     0.000 A 
HETATM   20  C13 UNL     1      25.532   6.433  48.678  1.00  0.00     0.001 A 
HETATM   21  C14 UNL     1      25.427   5.160  49.232  1.00  0.00     0.009 A 
ENDBRANCH  15  16
ENDBRANCH  13  15
ENDBRANCH   8  13
BRANCH   1  22
HETATM   22  C2  UNL     1      23.356   3.188  51.766  1.00  0.00     0.125 C 
HETATM   23  C1  UNL     1      23.463   4.361  52.694  1.00  0.00     0.027 C 
ENDBRANCH   1  22
TORSDOF 4
ENDMDL
MODEL 2
REMARK VINA RESULT:      -8.0      3.749      5.109
REMARK  4 active torsions:
REMARK  status: ('A' for Active; 'I' for Inactive)
REMARK    1  A    between atoms: C2_2  and  N1_3 
REMARK    2  A    between atoms: C7_10  and  N4_11 
REMARK    3  A    between atoms: N4_11  and  C8_12 
REMARK    4  A    between atoms: C8_12  and  C9_13 
ROOT
HETATM    1  N1  UNL     1      22.027   0.707  52.406  1.00  0.00    -0.341 N 
HETATM    2  C3  UNL     1      20.704   0.363  52.464  1.00  0.00     0.053 A 
HETATM    3  C4  UNL     1      20.436  -0.543  53.460  1.00  0.00     0.061 A 
HETATM    4  C5  UNL     1      21.674  -0.748  54.029  1.00  0.00     0.104 A 
HETATM    5  N2  UNL     1      22.065  -1.538  55.065  1.00  0.00    -0.239 NA
HETATM    6  C6  UNL     1      23.346  -1.588  55.463  1.00  0.00     0.236 A 
HETATM    7  N3  UNL     1      24.210  -0.835  54.809  1.00  0.00    -0.222 NA
HETATM    8  C7  UNL     1      23.949  -0.017  53.776  1.00  0.00     0.154 A 
HETATM    9  C15 UNL     1      22.627   0.012  53.386  1.00  0.00     0.111 A 
HETATM   10  C16 UNL     1      19.140  -0.640  53.235  1.00  0.00     0.133 A 
HETATM   11  F1  UNL     1      18.080  -1.306  53.741  1.00  0.00    -0.205 F 
HETATM   12  C17 UNL     1      19.392   0.321  52.170  1.00  0.00     0.074 A 
ENDROOT
BRANCH   8  13
HETATM   13  N4  UNL     1      24.987   0.776  53.191  1.00  0.00    -0.369 N 
HETATM   14  H7  UNL     1      25.287   1.732  53.292  1.00  0.00     0.161 HD
BRANCH  13  15
HETATM   15  C8  UNL     1      25.841   0.093  52.244  1.00  0.00     0.160 C 
BRANCH  15  16
HETATM   16  C9  UNL     1      27.208  -0.082  52.769  1.00  0.00    -0.041 A 
HETATM   17  C10 UNL     1      27.731  -1.363  52.871  1.00  0.00     0.009 A 
HETATM   18  C11 UNL     1      29.019  -1.589  53.360  1.00  0.00     0.001 A 
HETATM   19  C12 UNL     1      29.764  -0.482  53.744  1.00  0.00     0.000 A 
HETATM   20  C13 UNL     1      29.246   0.799  53.645  1.00  0.00     0.001 A 
HETATM   21  C14 UNL     1      27.959   1.005  53.154  1.00  0.00     0.009 A 
ENDBRANCH  15  16
ENDBRANCH  13  15
ENDBRANCH   8  13
BRANCH   1  22
HETATM   22  C2  UNL     1      22.562   1.639  51.441  1.00  0.00     0.125 C 
HETATM   23  C1  UNL     1      22.152   1.370  50.024  1.00  0.00     0.027 C 
ENDBRANCH   1  22
TORSDOF 4
ENDMDL
MODEL 3
REMARK VINA RESULT:      -7.6      1.149      2.829
REMARK  4 active torsions:
REMARK  status: ('A' for Active; 'I' for Inactive)
REMARK    1  A    between atoms: C2_2  and  N1_3 
REMARK    2  A    between atoms: C7_10  and  N4_11 
REMARK    3  A    between atoms: N4_11  and  C8_12 
REMARK    4  A    between atoms: C8_12  and  C9_13 
ROOT
HETATM    1  N1  UNL     1      24.836   1.114  52.823  1.00  0.00    -0.341 N 
HETATM    2  C3  UNL     1      23.968   0.264  53.452  1.00  0.00     0.053 A 
HETATM    3  C4  UNL     1      22.665   0.687  53.375  1.00  0.00     0.061 A 
HETATM    4  C5  UNL     1      22.764   1.858  52.656  1.00  0.00     0.104 A 
HETATM    5  N2  UNL     1      21.815   2.744  52.250  1.00  0.00    -0.239 NA
HETATM    6  C6  UNL     1      22.136   3.840  51.545  1.00  0.00     0.236 A 
HETATM    7  N3  UNL     1      23.411   4.021  51.259  1.00  0.00    -0.222 NA
HETATM    8  C7  UNL     1      24.437   3.222  51.601  1.00  0.00     0.154 A 
HETATM    9  C15 UNL     1      24.079   2.106  52.327  1.00  0.00     0.111 A 
HETATM   10  C16 UNL     1      22.137  -0.317  54.050  1.00  0.00     0.133 A 
HETATM   11  F1  UNL     1      20.916  -0.721  54.458  1.00  0.00    -0.205 F 
HETATM   12  C17 UNL     1      23.510  -0.792  54.148  1.00  0.00     0.074 A 
ENDROOT
BRANCH   8  13
HETATM   13  N4  UNL     1      25.770   3.526  51.180  1.00  0.00    -0.369 N 
HETATM   14  H7  UNL     1      26.612   3.815  51.654  1.00  0.00     0.161 HD
BRANCH  13  15
HETATM   15  C8  UNL     1      26.029   3.388  49.764  1.00  0.00     0.160 C 
BRANCH  15  16
HETATM   16  C9  UNL     1      26.508   4.650  49.171  1.00  0.00    -0.041 A 
HETATM   17  C10 UNL     1      27.816   4.725  48.716  1.00  0.00     0.009 A 
HETATM   18  C11 UNL     1      28.326   5.893  48.145  1.00  0.00     0.001 A 
HETATM   19  C12 UNL     1      27.474   6.985  48.049  1.00  0.00     0.000 A 
HETATM   20  C13 UNL     1      26.166   6.916  48.503  1.00  0.00     0.001 A 
HETATM   21  C14 UNL     1      25.677   5.742  49.069  1.00  0.00     0.009 A 
ENDBRANCH  15  16
ENDBRANCH  13  15
ENDBRANCH   8  13
BRANCH   1  22
HETATM   22  C2  UNL     1      26.262   0.894  52.768  1.00  0.00     0.125 C 
HETATM   23  C1  UNL     1      26.670  -0.358  52.050  1.00  0.00     0.027 C 
ENDBRANCH   1  22
TORSDOF 4
ENDMDL
MODEL 4
REMARK VINA RESULT:      -7.6      1.392      1.701
REMARK  4 active torsions:
REMARK  status: ('A' for Active; 'I' for Inactive)
REMARK    1  A    between atoms: C2_2  and  N1_3 
REMARK    2  A    between atoms: C7_10  and  N4_11 
REMARK    3  A    between atoms: N4_11  and  C8_12 
REMARK    4  A    between atoms: C8_12  and  C9_13 
ROOT
HETATM    1  N1  UNL     1      23.799   2.618  50.964  1.00  0.00    -0.341 N 
HETATM    2  C3  UNL     1      22.917   1.682  51.431  1.00  0.00     0.053 A 
HETATM    3  C4  UNL     1      23.526   0.718  52.195  1.00  0.00     0.061 A 
HETATM    4  C5  UNL     1      24.848   1.104  52.181  1.00  0.00     0.104 A 
HETATM    5  N2  UNL     1      25.949   0.552  52.759  1.00  0.00    -0.239 NA
HETATM    6  C6  UNL     1      27.165   1.102  52.616  1.00  0.00     0.236 A 
HETATM    7  N3  UNL     1      27.247   2.202  51.893  1.00  0.00    -0.222 NA
HETATM    8  C7  UNL     1      26.239   2.840  51.275  1.00  0.00     0.154 A 
HETATM    9  C15 UNL     1      25.003   2.252  51.436  1.00  0.00     0.111 A 
HETATM   10  C16 UNL     1      22.436   0.023  52.462  1.00  0.00     0.133 A 
HETATM   11  F1  UNL     1      22.096  -1.088  53.149  1.00  0.00    -0.205 F 
HETATM   12  C17 UNL     1      21.762   1.032  51.657  1.00  0.00     0.074 A 
ENDROOT
BRANCH   8  13
HETATM   13  N4  UNL     1      26.474   4.056  50.557  1.00  0.00    -0.369 N 
HETATM   14  H7  UNL     1      26.369   5.035  50.773  1.00  0.00     0.161 HD
BRANCH  13  15
HETATM   15  C8  UNL     1      26.999   3.903  49.218  1.00  0.00     0.160 C 
BRANCH  15  16
HETATM   16  C9  UNL     1      27.380   5.201  48.630  1.00  0.00    -0.041 A 
HETATM   17  C10 UNL     1      28.689   5.392  48.213  1.00  0.00     0.009 A 
HETATM   18  C11 UNL     1      29.107   6.598  47.648  1.00  0.00     0.001 A 
HETATM   19  C12 UNL     1      28.163   7.608  47.519  1.00  0.00     0.000 A 
HETATM   20  C13 UNL     1      26.855   7.423  47.935  1.00  0.00     0.001 A 
HETATM   21  C14 UNL     1      26.456   6.212  48.495  1.00  0.00     0.009 A 
ENDBRANCH  15  16
ENDBRANCH  13  15
ENDBRANCH   8  13
BRANCH   1  22
HETATM   22  C2  UNL     1      23.407   3.732  50.133  1.00  0.00     0.125 C 
HETATM   23  C1  UNL     1      23.191   3.385  48.690  1.00  0.00     0.027 C 
ENDBRANCH   1  22
TORSDOF 4
ENDMDL
MODEL 5
REMARK VINA RESULT:      -7.4      3.435      6.524
REMARK  4 active torsions:
REMARK  status: ('A' for Active; 'I' for Inactive)
REMARK    1  A    between atoms: C2_2  and  N1_3 
REMARK    2  A    between atoms: C7_10  and  N4_11 
REMARK    3  A    between atoms: N4_11  and  C8_12 
REMARK    4  A    between atoms: C8_12  and  C9_13 
ROOT
HETATM    1  N1  UNL     1      24.907   0.743  52.720  1.00  0.00    -0.341 N 
HETATM    2  C3  UNL     1      26.233   0.784  53.052  1.00  0.00     0.053 A 
HETATM    3  C4  UNL     1      26.520   0.049  54.176  1.00  0.00     0.061 A 
HETATM    4  C5  UNL     1      25.290  -0.460  54.531  1.00  0.00     0.104 A 
HETATM    5  N2  UNL     1      24.918  -1.267  55.562  1.00  0.00    -0.239 NA
HETATM    6  C6  UNL     1      23.642  -1.651  55.725  1.00  0.00     0.236 A 
HETATM    7  N3  UNL     1      22.764  -1.214  54.842  1.00  0.00    -0.222 NA
HETATM    8  C7  UNL     1      23.006  -0.417  53.788  1.00  0.00     0.154 A 
HETATM    9  C15 UNL     1      24.323  -0.036  53.646  1.00  0.00     0.111 A 
HETATM   10  C16 UNL     1      27.815   0.302  54.198  1.00  0.00     0.133 A 
HETATM   11  F1  UNL     1      28.886  -0.012  54.957  1.00  0.00    -0.205 F 
HETATM   12  C17 UNL     1      27.542   1.089  53.004  1.00  0.00     0.074 A 
ENDROOT
BRANCH   8  13
HETATM   13  N4  UNL     1      21.954  -0.059  52.886  1.00  0.00    -0.369 N 
HETATM   14  H7  UNL     1      21.918   0.220  51.919  1.00  0.00     0.161 HD
BRANCH  13  15
HETATM   15  C8  UNL     1      20.615  -0.107  53.432  1.00  0.00     0.160 C 
BRANCH  15  16
HETATM   16  C9  UNL     1      19.591  -0.002  52.377  1.00  0.00    -0.041 A 
HETATM   17  C10 UNL     1      19.899   0.679  51.207  1.00  0.00     0.009 A 
HETATM   18  C11 UNL     1      18.970   0.810  50.173  1.00  0.00     0.001 A 
HETATM   19  C12 UNL     1      17.720   0.233  50.355  1.00  0.00     0.000 A 
HETATM   20  C13 UNL     1      17.408  -0.448  51.521  1.00  0.00     0.001 A 
HETATM   21  C14 UNL     1      18.348  -0.568  52.541  1.00  0.00     0.009 A 
ENDBRANCH  15  16
ENDBRANCH  13  15
ENDBRANCH   8  13
BRANCH   1  22
HETATM   22  C2  UNL     1      24.352   1.438  51.582  1.00  0.00     0.125 C 
HETATM   23  C1  UNL     1      23.870   2.827  51.878  1.00  0.00     0.027 C 
ENDBRANCH   1  22
TORSDOF 4
ENDMDL
MODEL 6
REMARK VINA RESULT:      -7.3      2.485      4.072
REMARK  4 active torsions:
REMARK  status: ('A' for Active; 'I' for Inactive)
REMARK    1  A    between atoms: C2_2  and  N1_3 
REMARK    2  A    between atoms: C7_10  and  N4_11 
REMARK    3  A    between atoms: N4_11  and  C8_12 
REMARK    4  A    between atoms: C8_12  and  C9_13 
ROOT
HETATM    1  N1  UNL     1      21.393   0.284  51.922  1.00  0.00    -0.341 N 
HETATM    2  C3  UNL     1      20.069  -0.009  52.105  1.00  0.00     0.053 A 
HETATM    3  C4  UNL     1      19.837  -0.696  53.271  1.00  0.00     0.061 A 
HETATM    4  C5  UNL     1      21.098  -0.817  53.812  1.00  0.00     0.104 A 
HETATM    5  N2  UNL     1      21.526  -1.400  54.965  1.00  0.00    -0.239 NA
HETATM    6  C6  UNL     1      22.824  -1.403  55.307  1.00  0.00     0.236 A 
HETATM    7  N3  UNL     1      23.667  -0.815  54.480  1.00  0.00    -0.222 NA
HETATM    8  C7  UNL     1      23.369  -0.207  53.319  1.00  0.00     0.154 A 
HETATM    9  C15 UNL     1      22.030  -0.221  52.991  1.00  0.00     0.111 A 
HETATM   10  C16 UNL     1      18.530  -0.803  53.128  1.00  0.00     0.133 A 
HETATM   11  F1  UNL     1      17.485  -1.330  53.801  1.00  0.00    -0.205 F 
HETATM   12  C17 UNL     1      18.744  -0.075  51.885  1.00  0.00     0.074 A 
ENDROOT
BRANCH   8  13
HETATM   13  N4  UNL     1      24.390   0.429  52.544  1.00  0.00    -0.369 N 
HETATM   14  H7  UNL     1      24.813   0.248  51.648  1.00  0.00     0.161 HD
BRANCH  13  15
HETATM   15  C8  UNL     1      24.970   1.620  53.127  1.00  0.00     0.160 C 
BRANCH  15  16
HETATM   16  C9  UNL     1      24.637   2.826  52.348  1.00  0.00    -0.041 A 
HETATM   17  C10 UNL     1      23.824   3.794  52.921  1.00  0.00     0.009 A 
HETATM   18  C11 UNL     1      23.476   4.957  52.232  1.00  0.00     0.001 A 
HETATM   19  C12 UNL     1      23.972   5.114  50.945  1.00  0.00     0.000 A 
HETATM   20  C13 UNL     1      24.783   4.150  50.367  1.00  0.00     0.001 A 
HETATM   21  C14 UNL     1      25.120   2.997  51.071  1.00  0.00     0.009 A 
ENDBRANCH  15  16
ENDBRANCH  13  15
ENDBRANCH   8  13
BRANCH   1  22
HETATM   22  C2  UNL     1      21.895   0.996  50.770  1.00  0.00     0.125 C 
HETATM   23  C1  UNL     1      21.302   2.359  50.575  1.00  0.00     0.027 C 
ENDBRANCH   1  22
TORSDOF 4
ENDMDL
MODEL 7
REMARK VINA RESULT:      -7.3      2.831      6.558
REMARK  4 active torsions:
REMARK  status: ('A' for Active; 'I' for Inactive)
REMARK    1  A    between atoms: C2_2  and  N1_3 
REMARK    2  A    between atoms: C7_10  and  N4_11 
REMARK    3  A    between atoms: N4_11  and  C8_12 
REMARK    4  A    between atoms: C8_12  and  C9_13 
ROOT
HETATM    1  N1  UNL     1      24.243   3.561  50.894  1.00  0.00    -0.341 N 
HETATM    2  C3  UNL     1      25.095   4.171  50.014  1.00  0.00     0.053 A 
HETATM    3  C4  UNL     1      26.366   3.654  50.065  1.00  0.00     0.061 A 
HETATM    4  C5  UNL     1      26.262   2.679  51.031  1.00  0.00     0.104 A 
HETATM    5  N2  UNL     1      27.184   1.814  51.535  1.00  0.00    -0.239 NA
HETATM    6  C6  UNL     1      26.864   0.927  52.490  1.00  0.00     0.236 A 
HETATM    7  N3  UNL     1      25.616   0.928  52.919  1.00  0.00    -0.222 NA
HETATM    8  C7  UNL     1      24.619   1.727  52.504  1.00  0.00     0.154 A 
HETATM    9  C15 UNL     1      24.976   2.629  51.525  1.00  0.00     0.111 A 
HETATM   10  C16 UNL     1      26.886   4.435  49.137  1.00  0.00     0.133 A 
HETATM   11  F1  UNL     1      28.081   4.626  48.538  1.00  0.00    -0.205 F 
HETATM   12  C17 UNL     1      25.547   5.003  49.060  1.00  0.00     0.074 A 
ENDROOT
BRANCH   8  13
HETATM   13  N4  UNL     1      23.297   1.582  53.034  1.00  0.00    -0.369 N 
HETATM   14  H7  UNL     1      22.583   2.226  53.336  1.00  0.00     0.161 HD
BRANCH  13  15
HETATM   15  C8  UNL     1      22.822   0.223  53.173  1.00  0.00     0.160 C 
BRANCH  15  16
HETATM   16  C9  UNL     1      21.419   0.089  52.741  1.00  0.00    -0.041 A 
HETATM   17  C10 UNL     1      20.507  -0.511  53.598  1.00  0.00     0.009 A 
HETATM   18  C11 UNL     1      19.165  -0.665  53.243  1.00  0.00     0.001 A 
HETATM   19  C12 UNL     1      18.772  -0.195  51.997  1.00  0.00     0.000 A 
HETATM   20  C13 UNL     1      19.679   0.403  51.138  1.00  0.00     0.001 A 
HETATM   21  C14 UNL     1      21.013   0.548  51.510  1.00  0.00     0.009 A 
ENDBRANCH  15  16
ENDBRANCH  13  15
ENDBRANCH   8  13
BRANCH   1  22
HETATM   22  C2  UNL     1      22.853   3.927  51.035  1.00  0.00     0.125 C 
HETATM   23  C1  UNL     1      22.021   3.695  49.809  1.00  0.00     0.027 C 
ENDBRANCH   1  22
TORSDOF 4
ENDMDL
MODEL 8
REMARK VINA RESULT:      -7.2      3.359      7.265
REMARK  4 active torsions:
REMARK  status: ('A' for Active; 'I' for Inactive)
REMARK    1  A    between atoms: C2_2  and  N1_3 
REMARK    2  A    between atoms: C7_10  and  N4_11 
REMARK    3  A    between atoms: N4_11  and  C8_12 
REMARK    4  A    between atoms: C8_12  and  C9_13 
ROOT
HETATM    1  N1  UNL     1      23.442  -0.072  53.084  1.00  0.00    -0.341 N 
HETATM    2  C3  UNL     1      24.801  -0.220  53.135  1.00  0.00     0.053 A 
HETATM    3  C4  UNL     1      25.471   0.921  52.768  1.00  0.00     0.061 A 
HETATM    4  C5  UNL     1      24.448   1.799  52.484  1.00  0.00     0.104 A 
HETATM    5  N2  UNL     1      24.468   3.094  52.067  1.00  0.00    -0.239 NA
HETATM    6  C6  UNL     1      23.334   3.777  51.847  1.00  0.00     0.236 A 
HETATM    7  N3  UNL     1      22.197   3.139  52.054  1.00  0.00    -0.222 NA
HETATM    8  C7  UNL     1      22.047   1.868  52.463  1.00  0.00     0.154 A 
HETATM    9  C15 UNL     1      23.227   1.191  52.679  1.00  0.00     0.111 A 
HETATM   10  C16 UNL     1      26.690   0.441  52.926  1.00  0.00     0.133 A 
HETATM   11  F1  UNL     1      27.963   0.869  52.791  1.00  0.00    -0.205 F 
HETATM   12  C17 UNL     1      26.008  -0.783  53.321  1.00  0.00     0.074 A 
ENDROOT
BRANCH   8  13
HETATM   13  N4  UNL     1      20.743   1.323  52.687  1.00  0.00    -0.369 N 
HETATM   14  H7  UNL     1      20.166   1.183  53.502  1.00  0.00     0.161 HD
BRANCH  13  15
HETATM   15  C8  UNL     1      20.041   0.868  51.507  1.00  0.00     0.160 C 
BRANCH  15  16
HETATM   16  C9  UNL     1      18.862   0.054  51.853  1.00  0.00    -0.041 A 
HETATM   17  C10 UNL     1      18.893  -0.720  53.005  1.00  0.00     0.009 A 
HETATM   18  C11 UNL     1      17.806  -1.510  53.384  1.00  0.00     0.001 A 
HETATM   19  C12 UNL     1      16.686  -1.497  52.565  1.00  0.00     0.000 A 
HETATM   20  C13 UNL     1      16.649  -0.727  51.413  1.00  0.00     0.001 A 
HETATM   21  C14 UNL     1      17.743   0.055  51.052  1.00  0.00     0.009 A 
ENDBRANCH  15  16
ENDBRANCH  13  15
ENDBRANCH   8  13
BRANCH   1  22
HETATM   22  C2  UNL     1      22.516  -1.129  53.418  1.00  0.00     0.125 C 
HETATM   23  C1  UNL     1      22.174  -1.218  54.875  1.00  0.00     0.027 C 
ENDBRANCH   1  22
TORSDOF 4
ENDMDL
MODEL 9
REMARK VINA RESULT:      -7.0      3.013      7.031
REMARK  4 active torsions:
REMARK  status: ('A' for Active; 'I' for Inactive)
REMARK    1  A    between atoms: C2_2  and  N1_3 
REMARK    2  A    between atoms: C7_10  and  N4_11 
REMARK    3  A    between atoms: N4_11  and  C8_12 
REMARK    4  A    between atoms: C8_12  and  C9_13 
ROOT
HETATM    1  N1  UNL     1      24.256   2.965  51.739  1.00  0.00    -0.341 N 
HETATM    2  C3  UNL     1      25.458   3.114  51.101  1.00  0.00     0.053 A 
HETATM    3  C4  UNL     1      25.323   3.625  49.834  1.00  0.00     0.061 A 
HETATM    4  C5  UNL     1      23.962   3.789  49.712  1.00  0.00     0.104 A 
HETATM    5  N2  UNL     1      23.204   4.260  48.684  1.00  0.00    -0.239 NA
HETATM    6  C6  UNL     1      21.867   4.338  48.779  1.00  0.00     0.236 A 
HETATM    7  N3  UNL     1      21.319   3.942  49.911  1.00  0.00    -0.222 NA
HETATM    8  C7  UNL     1      21.955   3.461  50.993  1.00  0.00     0.154 A 
HETATM    9  C15 UNL     1      23.326   3.389  50.867  1.00  0.00     0.111 A 
HETATM   10  C16 UNL     1      26.609   3.634  49.536  1.00  0.00     0.133 A 
HETATM   11  F1  UNL     1      27.396   3.978  48.494  1.00  0.00    -0.205 F 
HETATM   12  C17 UNL     1      26.783   3.092  50.876  1.00  0.00     0.074 A 
ENDROOT
BRANCH   8  13
HETATM   13  N4  UNL     1      21.227   3.110  52.173  1.00  0.00    -0.369 N 
HETATM   14  H7  UNL     1      21.133   3.514  53.092  1.00  0.00     0.161 HD
BRANCH  13  15
HETATM   15  C8  UNL     1      20.409   1.921  52.076  1.00  0.00     0.160 C 
BRANCH  15  16
HETATM   16  C9  UNL     1      21.004   0.788  52.808  1.00  0.00    -0.041 A 
HETATM   17  C10 UNL     1      20.787   0.681  54.174  1.00  0.00     0.009 A 
HETATM   18  C11 UNL     1      21.325  -0.370  54.920  1.00  0.00     0.001 A 
HETATM   19  C12 UNL     1      22.090  -1.311  54.244  1.00  0.00     0.000 A 
HETATM   20  C13 UNL     1      22.310  -1.209  52.880  1.00  0.00     0.001 A 
HETATM   21  C14 UNL     1      21.765  -0.153  52.153  1.00  0.00     0.009 A 
ENDBRANCH  15  16
ENDBRANCH  13  15
ENDBRANCH   8  13
BRANCH   1  22
HETATM   22  C2  UNL     1      24.129   2.442  53.079  1.00  0.00     0.125 C 
HETATM   23  C1  UNL     1      24.980   1.239  53.359  1.00  0.00     0.027 C 
ENDBRANCH   1  22
TORSDOF 4
ENDMDL
