MODEL 1
REMARK VINA RESULT:      -9.3      0.000      0.000
REMARK  5 active torsions:
REMARK  status: ('A' for Active; 'I' for Inactive)
REMARK    1  A    between atoms: O1_2  and  C2_3 
REMARK    2  A    between atoms: C7_8  and  C8_9 
REMARK    3  A    between atoms: C8_9  and  C9_11 
REMARK    4  A    between atoms: C13_15  and  N1_16 
REMARK    5  A    between atoms: C17_21  and  N3_22 
ROOT
HETATM    1  C9  UNL     1      24.496  -0.163  53.963  1.00  0.00     0.017 A 
HETATM    2  C10 UNL     1      23.524  -1.089  54.316  1.00  0.00     0.015 A 
HETATM    3  C11 UNL     1      22.267  -1.009  53.727  1.00  0.00     0.003 A 
HETATM    4  C12 UNL     1      21.955  -0.038  52.803  1.00  0.00     0.029 A 
HETATM    5  C13 UNL     1      22.915   0.868  52.463  1.00  0.00     0.033 A 
HETATM    6  C23 UNL     1      24.157   0.787  53.044  1.00  0.00     0.044 A 
ENDROOT
BRANCH   5   7
HETATM    7  N1  UNL     1      22.584   1.860  51.511  1.00  0.00    -0.351 N 
HETATM    8  C14 UNL     1      23.565   2.911  51.261  1.00  0.00     0.253 C 
HETATM    9  N2  UNL     1      22.923   3.593  52.182  1.00  0.00    -0.272 NA
HETATM   10  C15 UNL     1      23.421   4.920  52.484  1.00  0.00     0.111 C 
HETATM   11  C16 UNL     1      23.335   5.784  51.418  1.00  0.00     0.027 C 
HETATM   12  C17 UNL     1      23.440   7.025  50.593  1.00  0.00     0.246 C 
HETATM   13  C18 UNL     1      22.014   7.500  50.418  1.00  0.00     0.086 C 
HETATM   14  C19 UNL     1      21.166   6.416  49.799  1.00  0.00     0.091 C 
HETATM   15  N4  UNL     1      20.472   5.309  49.740  1.00  0.00    -0.277 NA
HETATM   16  C20 UNL     1      20.328   4.494  50.914  1.00  0.00     0.113 C 
HETATM   17  C21 UNL     1      20.710   3.264  51.206  1.00  0.00     0.012 C 
HETATM   18  C22 UNL     1      21.400   2.071  50.686  1.00  0.00     0.154 C 
BRANCH  12  19
HETATM   19  N3  UNL     1      24.172   8.052  51.333  1.00  0.00     0.086 N 
HETATM   20  H15 UNL     1      25.067   8.315  50.855  1.00  0.00     0.313 HD
HETATM   21  H16 UNL     1      24.284   7.823  52.329  1.00  0.00     0.313 HD
ENDBRANCH  12  19
ENDBRANCH   5   7
BRANCH   1  22
HETATM   22  C8  UNL     1      25.768  -0.330  54.636  1.00  0.00     0.195 C 
HETATM   23  O2  UNL     1      25.731  -0.828  55.818  1.00  0.00    -0.287 OA
BRANCH  22  24
HETATM   24  C7  UNL     1      27.157  -0.067  54.308  1.00  0.00     0.048 A 
HETATM   25  C2  UNL     1      27.874  -1.048  53.618  1.00  0.00     0.082 A 
HETATM   26  C3  UNL     1      29.209  -0.894  53.255  1.00  0.00     0.038 A 
HETATM   27  C4  UNL     1      29.858   0.267  53.581  1.00  0.00     0.003 A 
HETATM   28  C5  UNL     1      29.183   1.256  54.260  1.00  0.00     0.001 A 
HETATM   29  C6  UNL     1      27.875   1.060  54.596  1.00  0.00     0.018 A 
BRANCH  25  30
HETATM   30  O1  UNL     1      27.216  -2.222  53.289  1.00  0.00    -0.355 OA
HETATM   31  C1  UNL     1      26.683  -2.408  51.989  1.00  0.00     0.210 C 
ENDBRANCH  25  30
ENDBRANCH  22  24
ENDBRANCH   1  22
TORSDOF 5
ENDMDL
MODEL 2
REMARK VINA RESULT:      -9.2      1.792      2.478
REMARK  5 active torsions:
REMARK  status: ('A' for Active; 'I' for Inactive)
REMARK    1  A    between atoms: O1_2  and  C2_3 
REMARK    2  A    between atoms: C7_8  and  C8_9 
REMARK    3  A    between atoms: C8_9  and  C9_11 
REMARK    4  A    between atoms: C13_15  and  N1_16 
REMARK    5  A    between atoms: C17_21  and  N3_22 
ROOT
HETATM    1  C9  UNL     1      24.661   0.236  53.042  1.00  0.00     0.017 A 
HETATM    2  C10 UNL     1      23.350  -0.053  53.394  1.00  0.00     0.015 A 
HETATM    3  C11 UNL     1      22.313   0.583  52.722  1.00  0.00     0.003 A 
HETATM    4  C12 UNL     1      22.546   1.494  51.715  1.00  0.00     0.029 A 
HETATM    5  C13 UNL     1      23.836   1.772  51.377  1.00  0.00     0.033 A 
HETATM    6  C23 UNL     1      24.860   1.142  52.041  1.00  0.00     0.044 A 
ENDROOT
BRANCH   5   7
HETATM    7  N1  UNL     1      24.064   2.708  50.342  1.00  0.00    -0.351 N 
HETATM    8  C14 UNL     1      25.046   3.760  50.585  1.00  0.00     0.253 C 
HETATM    9  N2  UNL     1      24.027   4.479  50.997  1.00  0.00    -0.272 NA
HETATM   10  C15 UNL     1      24.312   5.828  51.443  1.00  0.00     0.111 C 
HETATM   11  C16 UNL     1      24.806   6.633  50.445  1.00  0.00     0.027 C 
HETATM   12  C17 UNL     1      25.343   7.831  49.732  1.00  0.00     0.246 C 
HETATM   13  C18 UNL     1      24.225   8.272  48.813  1.00  0.00     0.086 C 
HETATM   14  C19 UNL     1      23.810   7.144  47.901  1.00  0.00     0.091 C 
HETATM   15  N4  UNL     1      23.234   6.024  47.547  1.00  0.00    -0.277 NA
HETATM   16  C20 UNL     1      22.487   5.270  48.516  1.00  0.00     0.113 C 
HETATM   17  C21 UNL     1      22.644   4.063  49.029  1.00  0.00     0.012 C 
HETATM   18  C22 UNL     1      23.488   2.856  49.010  1.00  0.00     0.154 C 
BRANCH  12  19
HETATM   19  N3  UNL     1      25.595   8.907  50.689  1.00  0.00     0.086 N 
HETATM   20  H15 UNL     1      26.356   8.658  51.365  1.00  0.00     0.313 HD
HETATM   21  H16 UNL     1      24.737   9.251  51.137  1.00  0.00     0.313 HD
ENDBRANCH  12  19
ENDBRANCH   5   7
BRANCH   1  22
HETATM   22  C8  UNL     1      25.667  -0.476  53.805  1.00  0.00     0.195 C 
HETATM   23  O2  UNL     1      25.322  -0.878  54.974  1.00  0.00    -0.287 OA
BRANCH  22  24
HETATM   24  C7  UNL     1      27.043  -0.879  53.584  1.00  0.00     0.048 A 
HETATM   25  C2  UNL     1      28.058   0.032  53.889  1.00  0.00     0.082 A 
HETATM   26  C3  UNL     1      29.409  -0.255  53.716  1.00  0.00     0.038 A 
HETATM   27  C4  UNL     1      29.772  -1.481  53.226  1.00  0.00     0.003 A 
HETATM   28  C5  UNL     1      28.799  -2.404  52.915  1.00  0.00     0.001 A 
HETATM   29  C6  UNL     1      27.487  -2.078  53.101  1.00  0.00     0.018 A 
BRANCH  25  30
HETATM   30  O1  UNL     1      27.690   1.272  54.385  1.00  0.00    -0.355 OA
HETATM   31  C1  UNL     1      28.011   2.456  53.674  1.00  0.00     0.210 C 
ENDBRANCH  25  30
ENDBRANCH  22  24
ENDBRANCH   1  22
TORSDOF 5
ENDMDL
MODEL 3
REMARK VINA RESULT:      -9.2      2.135      3.018
REMARK  5 active torsions:
REMARK  status: ('A' for Active; 'I' for Inactive)
REMARK    1  A    between atoms: O1_2  and  C2_3 
REMARK    2  A    between atoms: C7_8  and  C8_9 
REMARK    3  A    between atoms: C8_9  and  C9_11 
REMARK    4  A    between atoms: C13_15  and  N1_16 
REMARK    5  A    between atoms: C17_21  and  N3_22 
ROOT
HETATM    1  C9  UNL     1      24.432  -0.071  53.180  1.00  0.00     0.017 A 
HETATM    2  C10 UNL     1      23.244  -0.788  53.224  1.00  0.00     0.015 A 
HETATM    3  C11 UNL     1      22.133  -0.299  52.545  1.00  0.00     0.003 A 
HETATM    4  C12 UNL     1      22.175   0.876  51.829  1.00  0.00     0.029 A 
HETATM    5  C13 UNL     1      23.345   1.573  51.792  1.00  0.00     0.033 A 
HETATM    6  C23 UNL     1      24.442   1.089  52.462  1.00  0.00     0.044 A 
ENDROOT
BRANCH   5   7
HETATM    7  N1  UNL     1      23.376   2.778  51.053  1.00  0.00    -0.351 N 
HETATM    8  C14 UNL     1      24.333   2.873  49.955  1.00  0.00     0.253 C 
HETATM    9  N2  UNL     1      25.145   3.405  50.839  1.00  0.00    -0.272 NA
HETATM   10  C15 UNL     1      26.458   3.801  50.370  1.00  0.00     0.111 C 
HETATM   11  C16 UNL     1      26.416   4.800  49.427  1.00  0.00     0.027 C 
HETATM   12  C17 UNL     1      26.857   5.821  48.430  1.00  0.00     0.246 C 
HETATM   13  C18 UNL     1      26.589   7.155  49.092  1.00  0.00     0.086 C 
HETATM   14  C19 UNL     1      25.139   7.268  49.493  1.00  0.00     0.091 C 
HETATM   15  N4  UNL     1      24.059   7.056  50.200  1.00  0.00    -0.277 NA
HETATM   16  C20 UNL     1      24.121   6.204  51.355  1.00  0.00     0.113 C 
HETATM   17  C21 UNL     1      23.543   5.056  51.656  1.00  0.00     0.012 C 
HETATM   18  C22 UNL     1      22.618   4.019  51.166  1.00  0.00     0.154 C 
BRANCH  12  19
HETATM   19  N3  UNL     1      28.298   5.707  48.206  1.00  0.00     0.086 N 
HETATM   20  H15 UNL     1      28.737   5.004  48.847  1.00  0.00     0.313 HD
HETATM   21  H16 UNL     1      28.773   6.618  48.199  1.00  0.00     0.313 HD
ENDBRANCH  12  19
ENDBRANCH   5   7
BRANCH   1  22
HETATM   22  C8  UNL     1      25.527  -0.663  53.922  1.00  0.00     0.195 C 
HETATM   23  O2  UNL     1      25.283  -0.992  55.139  1.00  0.00    -0.287 OA
BRANCH  22  24
HETATM   24  C7  UNL     1      26.909  -1.001  53.638  1.00  0.00     0.048 A 
HETATM   25  C2  UNL     1      27.895  -0.051  53.916  1.00  0.00     0.082 A 
HETATM   26  C3  UNL     1      29.249  -0.275  53.681  1.00  0.00     0.038 A 
HETATM   27  C4  UNL     1      29.643  -1.477  53.157  1.00  0.00     0.003 A 
HETATM   28  C5  UNL     1      28.699  -2.437  52.871  1.00  0.00     0.001 A 
HETATM   29  C6  UNL     1      27.383  -2.172  53.117  1.00  0.00     0.018 A 
BRANCH  25  30
HETATM   30  O1  UNL     1      27.494   1.165  54.447  1.00  0.00    -0.355 OA
HETATM   31  C1  UNL     1      27.770   2.375  53.763  1.00  0.00     0.210 C 
ENDBRANCH  25  30
ENDBRANCH  22  24
ENDBRANCH   1  22
TORSDOF 5
ENDMDL
MODEL 4
REMARK VINA RESULT:      -9.0      6.575      9.223
REMARK  5 active torsions:
REMARK  status: ('A' for Active; 'I' for Inactive)
REMARK    1  A    between atoms: O1_2  and  C2_3 
REMARK    2  A    between atoms: C7_8  and  C8_9 
REMARK    3  A    between atoms: C8_9  and  C9_11 
REMARK    4  A    between atoms: C13_15  and  N1_16 
REMARK    5  A    between atoms: C17_21  and  N3_22 
ROOT
HETATM    1  C9  UNL     1      26.814   4.603  49.165  1.00  0.00     0.017 A 
HETATM    2  C10 UNL     1      25.868   5.614  49.266  1.00  0.00     0.015 A 
HETATM    3  C11 UNL     1      26.184   6.886  48.803  1.00  0.00     0.003 A 
HETATM    4  C12 UNL     1      27.409   7.175  48.245  1.00  0.00     0.029 A 
HETATM    5  C13 UNL     1      28.332   6.177  48.150  1.00  0.00     0.033 A 
HETATM    6  C23 UNL     1      28.019   4.921  48.608  1.00  0.00     0.044 A 
ENDROOT
BRANCH   5   7
HETATM    7  N1  UNL     1      29.586   6.485  47.575  1.00  0.00    -0.351 N 
HETATM    8  C14 UNL     1      30.670   5.525  47.760  1.00  0.00     0.253 C 
HETATM    9  N2  UNL     1      30.989   6.239  48.815  1.00  0.00    -0.272 NA
HETATM   10  C15 UNL     1      32.139   5.801  49.582  1.00  0.00     0.111 C 
HETATM   11  C16 UNL     1      33.314   5.854  48.871  1.00  0.00     0.027 C 
HETATM   12  C17 UNL     1      34.763   5.742  48.527  1.00  0.00     0.246 C 
HETATM   13  C18 UNL     1      35.254   7.170  48.434  1.00  0.00     0.086 C 
HETATM   14  C19 UNL     1      34.438   7.948  47.431  1.00  0.00     0.091 C 
HETATM   15  N4  UNL     1      33.411   8.603  46.954  1.00  0.00    -0.277 NA
HETATM   16  C20 UNL     1      32.242   8.786  47.769  1.00  0.00     0.113 C 
HETATM   17  C21 UNL     1      30.991   8.383  47.648  1.00  0.00     0.012 C 
HETATM   18  C22 UNL     1      30.055   7.627  46.797  1.00  0.00     0.154 C 
BRANCH  12  19
HETATM   19  N3  UNL     1      35.483   5.085  49.617  1.00  0.00     0.086 N 
HETATM   20  H15 UNL     1      35.987   4.226  49.290  1.00  0.00     0.313 HD
HETATM   21  H16 UNL     1      34.896   4.933  50.447  1.00  0.00     0.313 HD
ENDBRANCH  12  19
ENDBRANCH   5   7
BRANCH   1  22
HETATM   22  C8  UNL     1      26.388   3.317  49.680  1.00  0.00     0.195 C 
HETATM   23  O2  UNL     1      26.832   2.279  49.070  1.00  0.00    -0.287 OA
BRANCH  22  24
HETATM   24  C7  UNL     1      25.538   2.866  50.766  1.00  0.00     0.048 A 
HETATM   25  C2  UNL     1      26.143   2.481  51.966  1.00  0.00     0.082 A 
HETATM   26  C3  UNL     1      25.420   2.035  53.069  1.00  0.00     0.038 A 
HETATM   27  C4  UNL     1      24.055   1.968  52.986  1.00  0.00     0.003 A 
HETATM   28  C5  UNL     1      23.424   2.339  51.820  1.00  0.00     0.001 A 
HETATM   29  C6  UNL     1      24.175   2.770  50.765  1.00  0.00     0.018 A 
BRANCH  25  30
HETATM   30  O1  UNL     1      27.524   2.550  52.048  1.00  0.00    -0.355 OA
HETATM   31  C1  UNL     1      28.189   2.262  53.266  1.00  0.00     0.210 C 
ENDBRANCH  25  30
ENDBRANCH  22  24
ENDBRANCH   1  22
TORSDOF 5
ENDMDL
MODEL 5
REMARK VINA RESULT:      -9.0      2.633      4.665
REMARK  5 active torsions:
REMARK  status: ('A' for Active; 'I' for Inactive)
REMARK    1  A    between atoms: O1_2  and  C2_3 
REMARK    2  A    between atoms: C7_8  and  C8_9 
REMARK    3  A    between atoms: C8_9  and  C9_11 
REMARK    4  A    between atoms: C13_15  and  N1_16 
REMARK    5  A    between atoms: C17_21  and  N3_22 
ROOT
HETATM    1  C9  UNL     1      24.877   0.802  52.846  1.00  0.00     0.017 A 
HETATM    2  C10 UNL     1      25.539   1.399  51.782  1.00  0.00     0.015 A 
HETATM    3  C11 UNL     1      24.861   2.321  50.993  1.00  0.00     0.003 A 
HETATM    4  C12 UNL     1      23.549   2.662  51.236  1.00  0.00     0.029 A 
HETATM    5  C13 UNL     1      22.906   2.071  52.282  1.00  0.00     0.033 A 
HETATM    6  C23 UNL     1      23.578   1.160  53.060  1.00  0.00     0.044 A 
ENDROOT
BRANCH   5   7
HETATM    7  N1  UNL     1      21.560   2.429  52.522  1.00  0.00    -0.351 N 
HETATM    8  C14 UNL     1      20.630   1.363  52.879  1.00  0.00     0.253 C 
HETATM    9  N2  UNL     1      20.371   1.292  51.594  1.00  0.00    -0.272 NA
HETATM   10  C15 UNL     1      19.392   0.309  51.174  1.00  0.00     0.111 C 
HETATM   11  C16 UNL     1      18.136   0.551  51.675  1.00  0.00     0.027 C 
HETATM   12  C17 UNL     1      16.676   0.407  51.961  1.00  0.00     0.246 C 
HETATM   13  C18 UNL     1      16.014   1.530  51.193  1.00  0.00     0.086 C 
HETATM   14  C19 UNL     1      16.594   2.863  51.596  1.00  0.00     0.091 C 
HETATM   15  N4  UNL     1      17.467   3.837  51.650  1.00  0.00    -0.277 NA
HETATM   16  C20 UNL     1      18.703   3.726  50.927  1.00  0.00     0.113 C 
HETATM   17  C21 UNL     1      19.966   3.682  51.310  1.00  0.00     0.012 C 
HETATM   18  C22 UNL     1      20.863   3.710  52.478  1.00  0.00     0.154 C 
BRANCH  12  19
HETATM   19  N3  UNL     1      16.188  -0.861  51.420  1.00  0.00     0.086 N 
HETATM   20  H15 UNL     1      16.939  -1.592  51.400  1.00  0.00     0.313 HD
HETATM   21  H16 UNL     1      15.693  -0.749  50.527  1.00  0.00     0.313 HD
ENDBRANCH  12  19
ENDBRANCH   5   7
BRANCH   1  22
HETATM   22  C8  UNL     1      25.671  -0.147  53.601  1.00  0.00     0.195 C 
HETATM   23  O2  UNL     1      25.142  -0.611  54.674  1.00  0.00    -0.287 OA
BRANCH  22  24
HETATM   24  C7  UNL     1      26.985  -0.745  53.457  1.00  0.00     0.048 A 
HETATM   25  C2  UNL     1      28.098  -0.011  53.877  1.00  0.00     0.082 A 
HETATM   26  C3  UNL     1      29.401  -0.493  53.784  1.00  0.00     0.038 A 
HETATM   27  C4  UNL     1      29.612  -1.741  53.261  1.00  0.00     0.003 A 
HETATM   28  C5  UNL     1      28.540  -2.493  52.837  1.00  0.00     0.001 A 
HETATM   29  C6  UNL     1      27.281  -1.978  52.948  1.00  0.00     0.018 A 
BRANCH  25  30
HETATM   30  O1  UNL     1      27.882   1.251  54.406  1.00  0.00    -0.355 OA
HETATM   31  C1  UNL     1      28.477   2.392  53.813  1.00  0.00     0.210 C 
ENDBRANCH  25  30
ENDBRANCH  22  24
ENDBRANCH   1  22
TORSDOF 5
ENDMDL
MODEL 6
REMARK VINA RESULT:      -9.0      2.406      4.728
REMARK  5 active torsions:
REMARK  status: ('A' for Active; 'I' for Inactive)
REMARK    1  A    between atoms: O1_2  and  C2_3 
REMARK    2  A    between atoms: C7_8  and  C8_9 
REMARK    3  A    between atoms: C8_9  and  C9_11 
REMARK    4  A    between atoms: C13_15  and  N1_16 
REMARK    5  A    between atoms: C17_21  and  N3_22 
ROOT
HETATM    1  C9  UNL     1      26.187   2.274  52.112  1.00  0.00     0.017 A 
HETATM    2  C10 UNL     1      26.793   2.811  50.984  1.00  0.00     0.015 A 
HETATM    3  C11 UNL     1      25.997   3.298  49.954  1.00  0.00     0.003 A 
HETATM    4  C12 UNL     1      24.621   3.266  50.018  1.00  0.00     0.029 A 
HETATM    5  C13 UNL     1      24.035   2.736  51.128  1.00  0.00     0.033 A 
HETATM    6  C23 UNL     1      24.823   2.256  52.145  1.00  0.00     0.044 A 
ENDROOT
BRANCH   5   7
HETATM    7  N1  UNL     1      22.623   2.709  51.184  1.00  0.00    -0.351 N 
HETATM    8  C14 UNL     1      22.003   2.106  52.360  1.00  0.00     0.253 C 
HETATM    9  N2  UNL     1      21.988   0.995  51.661  1.00  0.00    -0.272 NA
HETATM   10  C15 UNL     1      21.423  -0.177  52.300  1.00  0.00     0.111 C 
HETATM   11  C16 UNL     1      20.088  -0.040  52.594  1.00  0.00     0.027 C 
HETATM   12  C17 UNL     1      18.710  -0.347  53.083  1.00  0.00     0.246 C 
HETATM   13  C18 UNL     1      17.879  -0.518  51.830  1.00  0.00     0.086 C 
HETATM   14  C19 UNL     1      17.967   0.714  50.963  1.00  0.00     0.091 C 
HETATM   15  N4  UNL     1      18.493   1.565  50.120  1.00  0.00    -0.277 NA
HETATM   16  C20 UNL     1      19.807   1.324  49.591  1.00  0.00     0.113 C 
HETATM   17  C21 UNL     1      20.947   1.982  49.685  1.00  0.00     0.012 C 
HETATM   18  C22 UNL     1      21.595   3.175  50.258  1.00  0.00     0.154 C 
BRANCH  12  19
HETATM   19  N3  UNL     1      18.711  -1.620  53.803  1.00  0.00     0.086 N 
HETATM   20  H15 UNL     1      18.363  -2.407  53.205  1.00  0.00     0.313 HD
HETATM   21  H16 UNL     1      18.252  -1.560  54.720  1.00  0.00     0.313 HD
ENDBRANCH  12  19
ENDBRANCH   5   7
BRANCH   1  22
HETATM   22  C8  UNL     1      27.105   1.791  53.124  1.00  0.00     0.195 C 
HETATM   23  O2  UNL     1      27.187   2.483  54.201  1.00  0.00    -0.287 OA
BRANCH  22  24
HETATM   24  C7  UNL     1      28.011   0.665  53.247  1.00  0.00     0.048 A 
HETATM   25  C2  UNL     1      27.485  -0.626  53.143  1.00  0.00     0.082 A 
HETATM   26  C3  UNL     1      28.268  -1.772  53.246  1.00  0.00     0.038 A 
HETATM   27  C4  UNL     1      29.615  -1.642  53.457  1.00  0.00     0.003 A 
HETATM   28  C5  UNL     1      30.169  -0.386  53.565  1.00  0.00     0.001 A 
HETATM   29  C6  UNL     1      29.361   0.709  53.458  1.00  0.00     0.018 A 
BRANCH  25  30
HETATM   30  O1  UNL     1      26.123  -0.756  52.929  1.00  0.00    -0.355 OA
HETATM   31  C1  UNL     1      25.232  -0.893  54.023  1.00  0.00     0.210 C 
ENDBRANCH  25  30
ENDBRANCH  22  24
ENDBRANCH   1  22
TORSDOF 5
ENDMDL
MODEL 7
REMARK VINA RESULT:      -8.7      1.850      3.051
REMARK  5 active torsions:
REMARK  status: ('A' for Active; 'I' for Inactive)
REMARK    1  A    between atoms: O1_2  and  C2_3 
REMARK    2  A    between atoms: C7_8  and  C8_9 
REMARK    3  A    between atoms: C8_9  and  C9_11 
REMARK    4  A    between atoms: C13_15  and  N1_16 
REMARK    5  A    between atoms: C17_21  and  N3_22 
ROOT
HETATM    1  C9  UNL     1      24.579   0.076  53.528  1.00  0.00     0.017 A 
HETATM    2  C10 UNL     1      23.543  -0.840  53.409  1.00  0.00     0.015 A 
HETATM    3  C11 UNL     1      22.365  -0.452  52.781  1.00  0.00     0.003 A 
HETATM    4  C12 UNL     1      22.193   0.816  52.272  1.00  0.00     0.029 A 
HETATM    5  C13 UNL     1      23.215   1.709  52.394  1.00  0.00     0.033 A 
HETATM    6  C23 UNL     1      24.379   1.324  53.014  1.00  0.00     0.044 A 
ENDROOT
BRANCH   5   7
HETATM    7  N1  UNL     1      23.029   3.007  51.867  1.00  0.00    -0.351 N 
HETATM    8  C14 UNL     1      22.141   3.150  50.717  1.00  0.00     0.253 C 
HETATM    9  N2  UNL     1      23.226   3.020  49.988  1.00  0.00    -0.272 NA
HETATM   10  C15 UNL     1      23.062   3.079  48.549  1.00  0.00     0.111 C 
HETATM   11  C16 UNL     1      22.601   4.296  48.108  1.00  0.00     0.027 C 
HETATM   12  C17 UNL     1      22.137   5.385  47.197  1.00  0.00     0.246 C 
HETATM   13  C18 UNL     1      23.257   6.403  47.204  1.00  0.00     0.086 C 
HETATM   14  C19 UNL     1      23.553   6.858  48.611  1.00  0.00     0.091 C 
HETATM   15  N4  UNL     1      24.028   6.795  49.829  1.00  0.00    -0.277 NA
HETATM   16  C20 UNL     1      24.743   5.624  50.254  1.00  0.00     0.113 C 
HETATM   17  C21 UNL     1      24.509   4.717  51.185  1.00  0.00     0.012 C 
HETATM   18  C22 UNL     1      23.572   4.307  52.246  1.00  0.00     0.154 C 
BRANCH  12  19
HETATM   19  N3  UNL     1      22.001   4.869  45.836  1.00  0.00     0.086 N 
HETATM   20  H15 UNL     1      20.999   4.694  45.583  1.00  0.00     0.313 HD
HETATM   21  H16 UNL     1      22.623   4.074  45.647  1.00  0.00     0.313 HD
ENDBRANCH  12  19
ENDBRANCH   5   7
BRANCH   1  22
HETATM   22  C8  UNL     1      25.760  -0.426  54.202  1.00  0.00     0.195 C 
HETATM   23  O2  UNL     1      25.682  -0.556  55.476  1.00  0.00    -0.287 OA
BRANCH  22  24
HETATM   24  C7  UNL     1      27.088  -0.843  53.792  1.00  0.00     0.048 A 
HETATM   25  C2  UNL     1      28.143   0.061  53.939  1.00  0.00     0.082 A 
HETATM   26  C3  UNL     1      29.453  -0.240  53.578  1.00  0.00     0.038 A 
HETATM   27  C4  UNL     1      29.733  -1.475  53.057  1.00  0.00     0.003 A 
HETATM   28  C5  UNL     1      28.719  -2.393  52.898  1.00  0.00     0.001 A 
HETATM   29  C6  UNL     1      27.449  -2.052  53.265  1.00  0.00     0.018 A 
BRANCH  25  30
HETATM   30  O1  UNL     1      27.859   1.310  54.467  1.00  0.00    -0.355 OA
HETATM   31  C1  UNL     1      28.200   2.487  53.755  1.00  0.00     0.210 C 
ENDBRANCH  25  30
ENDBRANCH  22  24
ENDBRANCH   1  22
TORSDOF 5
ENDMDL
MODEL 8
REMARK VINA RESULT:      -8.6      6.622      9.420
REMARK  5 active torsions:
REMARK  status: ('A' for Active; 'I' for Inactive)
REMARK    1  A    between atoms: O1_2  and  C2_3 
REMARK    2  A    between atoms: C7_8  and  C8_9 
REMARK    3  A    between atoms: C8_9  and  C9_11 
REMARK    4  A    between atoms: C13_15  and  N1_16 
REMARK    5  A    between atoms: C17_21  and  N3_22 
ROOT
HETATM    1  C9  UNL     1      26.647   4.760  49.211  1.00  0.00     0.017 A 
HETATM    2  C10 UNL     1      25.767   5.826  49.338  1.00  0.00     0.015 A 
HETATM    3  C11 UNL     1      26.151   7.080  48.875  1.00  0.00     0.003 A 
HETATM    4  C12 UNL     1      27.379   7.297  48.293  1.00  0.00     0.029 A 
HETATM    5  C13 UNL     1      28.237   6.245  48.173  1.00  0.00     0.033 A 
HETATM    6  C23 UNL     1      27.856   5.007  48.630  1.00  0.00     0.044 A 
ENDROOT
BRANCH   5   7
HETATM    7  N1  UNL     1      29.495   6.479  47.572  1.00  0.00    -0.351 N 
HETATM    8  C14 UNL     1      30.549   5.496  47.803  1.00  0.00     0.253 C 
HETATM    9  N2  UNL     1      30.900   6.256  48.814  1.00  0.00    -0.272 NA
HETATM   10  C15 UNL     1      32.042   5.824  49.596  1.00  0.00     0.111 C 
HETATM   11  C16 UNL     1      33.211   5.799  48.875  1.00  0.00     0.027 C 
HETATM   12  C17 UNL     1      34.653   5.620  48.527  1.00  0.00     0.246 C 
HETATM   13  C18 UNL     1      35.189   7.025  48.351  1.00  0.00     0.086 C 
HETATM   14  C19 UNL     1      34.390   7.772  47.312  1.00  0.00     0.091 C 
HETATM   15  N4  UNL     1      33.381   8.433  46.807  1.00  0.00    -0.277 NA
HETATM   16  C20 UNL     1      32.226   8.699  47.619  1.00  0.00     0.113 C 
HETATM   17  C21 UNL     1      30.961   8.331  47.530  1.00  0.00     0.012 C 
HETATM   18  C22 UNL     1      29.993   7.561  46.729  1.00  0.00     0.154 C 
BRANCH  12  19
HETATM   19  N3  UNL     1      35.361   5.002  49.647  1.00  0.00     0.086 N 
HETATM   20  H15 UNL     1      36.401   5.072  49.537  1.00  0.00     0.313 HD
HETATM   21  H16 UNL     1      35.028   4.052  49.853  1.00  0.00     0.313 HD
ENDBRANCH  12  19
ENDBRANCH   5   7
BRANCH   1  22
HETATM   22  C8  UNL     1      26.153   3.499  49.728  1.00  0.00     0.195 C 
HETATM   23  O2  UNL     1      26.744   2.439  49.314  1.00  0.00    -0.287 OA
BRANCH  22  24
HETATM   24  C7  UNL     1      25.103   3.095  50.644  1.00  0.00     0.048 A 
HETATM   25  C2  UNL     1      23.813   2.913  50.137  1.00  0.00     0.082 A 
HETATM   26  C3  UNL     1      22.737   2.525  50.930  1.00  0.00     0.038 A 
HETATM   27  C4  UNL     1      22.938   2.309  52.266  1.00  0.00     0.003 A 
HETATM   28  C5  UNL     1      24.195   2.478  52.802  1.00  0.00     0.001 A 
HETATM   29  C6  UNL     1      25.221   2.860  51.986  1.00  0.00     0.018 A 
BRANCH  25  30
HETATM   30  O1  UNL     1      23.611   3.132  48.784  1.00  0.00    -0.355 OA
HETATM   31  C1  UNL     1      22.691   2.337  48.055  1.00  0.00     0.210 C 
ENDBRANCH  25  30
ENDBRANCH  22  24
ENDBRANCH   1  22
TORSDOF 5
ENDMDL
MODEL 9
REMARK VINA RESULT:      -8.3      1.942      2.929
REMARK  5 active torsions:
REMARK  status: ('A' for Active; 'I' for Inactive)
REMARK    1  A    between atoms: O1_2  and  C2_3 
REMARK    2  A    between atoms: C7_8  and  C8_9 
REMARK    3  A    between atoms: C8_9  and  C9_11 
REMARK    4  A    between atoms: C13_15  and  N1_16 
REMARK    5  A    between atoms: C17_21  and  N3_22 
ROOT
HETATM    1  C9  UNL     1      24.144  -0.080  53.363  1.00  0.00     0.017 A 
HETATM    2  C10 UNL     1      23.494  -0.825  54.337  1.00  0.00     0.015 A 
HETATM    3  C11 UNL     1      22.126  -0.654  54.519  1.00  0.00     0.003 A 
HETATM    4  C12 UNL     1      21.395   0.234  53.762  1.00  0.00     0.029 A 
HETATM    5  C13 UNL     1      22.042   0.961  52.809  1.00  0.00     0.033 A 
HETATM    6  C23 UNL     1      23.393   0.791  52.629  1.00  0.00     0.044 A 
ENDROOT
BRANCH   5   7
HETATM    7  N1  UNL     1      21.281   1.869  52.037  1.00  0.00    -0.351 N 
HETATM    8  C14 UNL     1      21.122   1.580  50.615  1.00  0.00     0.253 C 
HETATM    9  N2  UNL     1      22.182   2.337  50.444  1.00  0.00    -0.272 NA
HETATM   10  C15 UNL     1      22.645   2.521  49.083  1.00  0.00     0.111 C 
HETATM   11  C16 UNL     1      21.734   3.171  48.286  1.00  0.00     0.027 C 
HETATM   12  C17 UNL     1      21.103   3.809  47.091  1.00  0.00     0.246 C 
HETATM   13  C18 UNL     1      21.110   5.292  47.391  1.00  0.00     0.086 C 
HETATM   14  C19 UNL     1      20.398   5.574  48.691  1.00  0.00     0.091 C 
HETATM   15  N4  UNL     1      20.221   5.633  49.986  1.00  0.00    -0.277 NA
HETATM   16  C20 UNL     1      21.265   5.188  50.868  1.00  0.00     0.113 C 
HETATM   17  C21 UNL     1      21.336   4.213  51.756  1.00  0.00     0.012 C 
HETATM   18  C22 UNL     1      20.588   3.106  52.378  1.00  0.00     0.154 C 
BRANCH  12  19
HETATM   19  N3  UNL     1      21.935   3.582  45.910  1.00  0.00     0.086 N 
HETATM   20  H15 UNL     1      22.949   3.491  46.158  1.00  0.00     0.313 HD
HETATM   21  H16 UNL     1      21.750   4.256  45.157  1.00  0.00     0.313 HD
ENDBRANCH  12  19
ENDBRANCH   5   7
BRANCH   1  22
HETATM   22  C8  UNL     1      25.568  -0.330  53.256  1.00  0.00     0.195 C 
HETATM   23  O2  UNL     1      25.916  -1.462  52.763  1.00  0.00    -0.287 OA
BRANCH  22  24
HETATM   24  C7  UNL     1      26.776   0.405  53.581  1.00  0.00     0.048 A 
HETATM   25  C2  UNL     1      27.167   1.447  52.736  1.00  0.00     0.082 A 
HETATM   26  C3  UNL     1      28.307   2.214  52.959  1.00  0.00     0.038 A 
HETATM   27  C4  UNL     1      29.087   1.945  54.052  1.00  0.00     0.003 A 
HETATM   28  C5  UNL     1      28.734   0.926  54.906  1.00  0.00     0.001 A 
HETATM   29  C6  UNL     1      27.607   0.200  54.648  1.00  0.00     0.018 A 
BRANCH  25  30
HETATM   30  O1  UNL     1      26.376   1.718  51.631  1.00  0.00    -0.355 OA
HETATM   31  C1  UNL     1      26.543   2.924  50.905  1.00  0.00     0.210 C 
ENDBRANCH  25  30
ENDBRANCH  22  24
ENDBRANCH   1  22
TORSDOF 5
ENDMDL
