MODEL 1
REMARK VINA RESULT:      -8.1      0.000      0.000
REMARK  2 active torsions:
REMARK  status: ('A' for Active; 'I' for Inactive)
REMARK       I    between atoms: C1_2  and  N1_3 
REMARK       I    between atoms: C1_2  and  N3_18 
REMARK    1  A    between atoms: N1_3  and  C2_4 
REMARK    2  A    between atoms: N3_18  and  C13_19 
ROOT
HETATM    1  C2  UNL     1      22.917   2.333  51.798  1.00  0.00     0.014 C 
HETATM    2  C3  UNL     1      22.737   3.544  52.340  1.00  0.00     0.027 C 
HETATM    3  C4  UNL     1      22.167   4.864  52.171  1.00  0.00     0.026 C 
HETATM    4  C5  UNL     1      21.445   5.549  51.292  1.00  0.00     0.135 C 
HETATM    5  O2  UNL     1      20.728   5.660  50.043  1.00  0.00    -0.354 OA
HETATM    6  C6  UNL     1      19.414   4.954  50.153  1.00  0.00     0.277 C 
HETATM    7  C7  UNL     1      19.714   3.538  49.967  1.00  0.00     0.243 C 
HETATM    8  O3  UNL     1      20.639   3.916  49.246  1.00  0.00    -0.271 OA
HETATM    9  N2  UNL     1      19.951   2.167  49.830  1.00  0.00    -0.350 N 
HETATM   10  C8  UNL     1      19.249   1.170  50.586  1.00  0.00     0.126 C 
HETATM   11  C9  UNL     1      20.518   0.662  51.372  1.00  0.00     0.026 C 
HETATM   12  C10 UNL     1      21.597   0.717  50.321  1.00  0.00     0.011 C 
HETATM   13  C11 UNL     1      22.674   1.718  50.487  1.00  0.00     0.063 C 
HETATM   14  C12 UNL     1      20.782   1.241  49.105  1.00  0.00     0.130 C 
ENDROOT
BRANCH   1  15
HETATM   15  N1  UNL     1      23.646   1.381  52.606  1.00  0.00    -0.312 N 
HETATM   16  C1  UNL     1      25.030   1.153  52.798  1.00  0.00     0.326 C 
HETATM   17  O1  UNL     1      25.915   1.855  52.210  1.00  0.00    -0.247 OA
HETATM   18  N3  UNL     1      25.431   0.125  53.661  1.00  0.00    -0.293 N 
HETATM   19  H16 UNL     1      24.731  -0.464  54.159  1.00  0.00     0.172 HD
HETATM   20  H1  UNL     1      22.955   0.795  53.103  1.00  0.00     0.170 HD
BRANCH  18  21
HETATM   21  C13 UNL     1      26.822  -0.088  53.840  1.00  0.00     0.131 A 
HETATM   22  C14 UNL     1      27.452  -1.057  53.093  1.00  0.00     0.050 A 
HETATM   23  C15 UNL     1      28.780  -1.361  53.165  1.00  0.00     0.005 A 
HETATM   24  C16 UNL     1      29.471  -0.579  54.090  1.00  0.00     0.019 A 
HETATM   25  C17 UNL     1      28.877   0.410  54.864  1.00  0.00     0.119 A 
HETATM   26  N4  UNL     1      27.554   0.620  54.707  1.00  0.00    -0.243 NA
ENDBRANCH  18  21
ENDBRANCH   1  15
TORSDOF 2
ENDMDL
MODEL 2
REMARK VINA RESULT:      -8.1      1.616      3.110
REMARK  2 active torsions:
REMARK  status: ('A' for Active; 'I' for Inactive)
REMARK       I    between atoms: C1_2  and  N1_3 
REMARK       I    between atoms: C1_2  and  N3_18 
REMARK    1  A    between atoms: N1_3  and  C2_4 
REMARK    2  A    between atoms: N3_18  and  C13_19 
ROOT
HETATM    1  C2  UNL     1      22.991   1.831  52.176  1.00  0.00     0.014 C 
HETATM    2  C3  UNL     1      22.329   0.867  51.524  1.00  0.00     0.027 C 
HETATM    3  C4  UNL     1      21.304   0.561  50.548  1.00  0.00     0.026 C 
HETATM    4  C5  UNL     1      20.465   1.188  49.732  1.00  0.00     0.135 C 
HETATM    5  O2  UNL     1      19.900   2.389  49.163  1.00  0.00    -0.354 OA
HETATM    6  C6  UNL     1      20.858   2.978  48.178  1.00  0.00     0.277 C 
HETATM    7  C7  UNL     1      21.843   3.702  48.975  1.00  0.00     0.243 C 
HETATM    8  O3  UNL     1      20.930   3.886  49.781  1.00  0.00    -0.271 OA
HETATM    9  N2  UNL     1      22.832   4.382  49.692  1.00  0.00    -0.350 N 
HETATM   10  C8  UNL     1      24.215   4.391  49.307  1.00  0.00     0.126 C 
HETATM   11  C9  UNL     1      24.726   3.612  50.579  1.00  0.00     0.026 C 
HETATM   12  C10 UNL     1      23.865   4.181  51.678  1.00  0.00     0.011 C 
HETATM   13  C11 UNL     1      22.868   3.289  52.310  1.00  0.00     0.063 C 
HETATM   14  C12 UNL     1      23.004   5.193  50.869  1.00  0.00     0.130 C 
ENDROOT
BRANCH   1  15
HETATM   15  N1  UNL     1      24.010   1.386  53.099  1.00  0.00    -0.312 N 
HETATM   16  C1  UNL     1      25.300   0.836  52.905  1.00  0.00     0.326 C 
HETATM   17  O1  UNL     1      25.784   0.649  51.742  1.00  0.00    -0.247 OA
HETATM   18  N3  UNL     1      26.062   0.490  54.029  1.00  0.00    -0.293 N 
HETATM   19  H16 UNL     1      25.695   0.633  54.993  1.00  0.00     0.172 HD
HETATM   20  H1  UNL     1      23.650   1.527  54.057  1.00  0.00     0.170 HD
BRANCH  18  21
HETATM   21  C13 UNL     1      27.352  -0.059  53.814  1.00  0.00     0.131 A 
HETATM   22  C14 UNL     1      28.455   0.755  53.935  1.00  0.00     0.050 A 
HETATM   23  C15 UNL     1      29.747   0.355  53.758  1.00  0.00     0.005 A 
HETATM   24  C16 UNL     1      29.862  -0.997  53.434  1.00  0.00     0.019 A 
HETATM   25  C17 UNL     1      28.778  -1.855  53.302  1.00  0.00     0.119 A 
HETATM   26  N4  UNL     1      27.545  -1.345  53.500  1.00  0.00    -0.243 NA
ENDBRANCH  18  21
ENDBRANCH   1  15
TORSDOF 2
ENDMDL
MODEL 3
REMARK VINA RESULT:      -7.9      4.084      7.079
REMARK  2 active torsions:
REMARK  status: ('A' for Active; 'I' for Inactive)
REMARK       I    between atoms: C1_2  and  N1_3 
REMARK       I    between atoms: C1_2  and  N3_18 
REMARK    1  A    between atoms: N1_3  and  C2_4 
REMARK    2  A    between atoms: N3_18  and  C13_19 
ROOT
HETATM    1  C2  UNL     1      24.385   2.785  51.867  1.00  0.00     0.014 C 
HETATM    2  C3  UNL     1      23.103   2.769  52.253  1.00  0.00     0.027 C 
HETATM    3  C4  UNL     1      21.986   1.951  52.678  1.00  0.00     0.026 C 
HETATM    4  C5  UNL     1      21.704   0.680  52.936  1.00  0.00     0.135 C 
HETATM    5  O2  UNL     1      22.074  -0.713  53.034  1.00  0.00    -0.354 OA
HETATM    6  C6  UNL     1      22.885  -0.932  54.271  1.00  0.00     0.277 C 
HETATM    7  C7  UNL     1      24.237  -0.496  53.935  1.00  0.00     0.243 C 
HETATM    8  O3  UNL     1      23.972  -0.847  52.784  1.00  0.00    -0.271 OA
HETATM    9  N2  UNL     1      25.539  -0.060  53.677  1.00  0.00    -0.350 N 
HETATM   10  C8  UNL     1      26.347   0.620  54.649  1.00  0.00     0.126 C 
HETATM   11  C9  UNL     1      26.417   1.981  53.857  1.00  0.00     0.026 C 
HETATM   12  C10 UNL     1      26.535   1.521  52.426  1.00  0.00     0.011 C 
HETATM   13  C11 UNL     1      25.395   1.777  51.519  1.00  0.00     0.063 C 
HETATM   14  C12 UNL     1      26.519  -0.022  52.622  1.00  0.00     0.130 C 
ENDROOT
BRANCH   1  15
HETATM   15  N1  UNL     1      24.940   4.088  51.575  1.00  0.00    -0.312 N 
HETATM   16  C1  UNL     1      25.155   4.784  50.361  1.00  0.00     0.326 C 
HETATM   17  O1  UNL     1      24.838   4.284  49.233  1.00  0.00    -0.247 OA
HETATM   18  N3  UNL     1      25.733   6.060  50.407  1.00  0.00    -0.293 N 
HETATM   19  H16 UNL     1      26.000   6.496  51.314  1.00  0.00     0.172 HD
HETATM   20  H1  UNL     1      25.206   4.525  52.472  1.00  0.00     0.170 HD
BRANCH  18  21
HETATM   21  C13 UNL     1      25.940   6.741  49.181  1.00  0.00     0.131 A 
HETATM   22  C14 UNL     1      27.195   6.735  48.616  1.00  0.00     0.050 A 
HETATM   23  C15 UNL     1      27.529   7.346  47.443  1.00  0.00     0.005 A 
HETATM   24  C16 UNL     1      26.453   7.999  46.841  1.00  0.00     0.019 A 
HETATM   25  C17 UNL     1      25.171   8.030  47.374  1.00  0.00     0.119 A 
HETATM   26  N4  UNL     1      24.961   7.390  48.542  1.00  0.00    -0.243 NA
ENDBRANCH  18  21
ENDBRANCH   1  15
TORSDOF 2
ENDMDL
MODEL 4
REMARK VINA RESULT:      -7.9      1.396      2.962
REMARK  2 active torsions:
REMARK  status: ('A' for Active; 'I' for Inactive)
REMARK       I    between atoms: C1_2  and  N1_3 
REMARK       I    between atoms: C1_2  and  N3_18 
REMARK    1  A    between atoms: N1_3  and  C2_4 
REMARK    2  A    between atoms: N3_18  and  C13_19 
ROOT
HETATM    1  C2  UNL     1      22.398   1.891  51.561  1.00  0.00     0.014 C 
HETATM    2  C3  UNL     1      22.191   1.193  50.438  1.00  0.00     0.027 C 
HETATM    3  C4  UNL     1      21.561   1.173  49.134  1.00  0.00     0.026 C 
HETATM    4  C5  UNL     1      20.830   1.958  48.352  1.00  0.00     0.135 C 
HETATM    5  O2  UNL     1      20.146   3.199  48.074  1.00  0.00    -0.354 OA
HETATM    6  C6  UNL     1      21.144   4.257  47.730  1.00  0.00     0.277 C 
HETATM    7  C7  UNL     1      21.677   4.723  49.007  1.00  0.00     0.243 C 
HETATM    8  O3  UNL     1      20.572   4.443  49.473  1.00  0.00    -0.271 OA
HETATM    9  N2  UNL     1      22.245   5.181  50.199  1.00  0.00    -0.350 N 
HETATM   10  C8  UNL     1      23.631   5.528  50.326  1.00  0.00     0.126 C 
HETATM   11  C9  UNL     1      23.978   4.379  51.347  1.00  0.00     0.026 C 
HETATM   12  C10 UNL     1      22.750   4.336  52.220  1.00  0.00     0.011 C 
HETATM   13  C11 UNL     1      21.882   3.140  52.137  1.00  0.00     0.063 C 
HETATM   14  C12 UNL     1      21.899   5.463  51.568  1.00  0.00     0.130 C 
ENDROOT
BRANCH   1  15
HETATM   15  N1  UNL     1      23.224   1.251  52.560  1.00  0.00    -0.312 N 
HETATM   16  C1  UNL     1      24.619   1.021  52.640  1.00  0.00     0.326 C 
HETATM   17  O1  UNL     1      25.419   1.405  51.727  1.00  0.00    -0.247 OA
HETATM   18  N3  UNL     1      25.129   0.351  53.761  1.00  0.00    -0.293 N 
HETATM   19  H16 UNL     1      24.501   0.026  54.525  1.00  0.00     0.172 HD
HETATM   20  H1  UNL     1      22.605   0.928  53.321  1.00  0.00     0.170 HD
BRANCH  18  21
HETATM   21  C13 UNL     1      26.528   0.130  53.823  1.00  0.00     0.131 A 
HETATM   22  C14 UNL     1      27.066  -0.946  53.155  1.00  0.00     0.050 A 
HETATM   23  C15 UNL     1      28.391  -1.271  53.130  1.00  0.00     0.005 A 
HETATM   24  C16 UNL     1      29.184  -0.389  53.864  1.00  0.00     0.019 A 
HETATM   25  C17 UNL     1      28.685   0.710  54.553  1.00  0.00     0.119 A 
HETATM   26  N4  UNL     1      27.355   0.929  54.505  1.00  0.00    -0.243 NA
ENDBRANCH  18  21
ENDBRANCH   1  15
TORSDOF 2
ENDMDL
MODEL 5
REMARK VINA RESULT:      -7.7      1.677      2.913
REMARK  2 active torsions:
REMARK  status: ('A' for Active; 'I' for Inactive)
REMARK       I    between atoms: C1_2  and  N1_3 
REMARK       I    between atoms: C1_2  and  N3_18 
REMARK    1  A    between atoms: N1_3  and  C2_4 
REMARK    2  A    between atoms: N3_18  and  C13_19 
ROOT
HETATM    1  C2  UNL     1      22.733   1.863  51.605  1.00  0.00     0.014 C 
HETATM    2  C3  UNL     1      21.890   0.843  51.402  1.00  0.00     0.027 C 
HETATM    3  C4  UNL     1      20.510   0.405  51.409  1.00  0.00     0.026 C 
HETATM    4  C5  UNL     1      19.295   0.894  51.626  1.00  0.00     0.135 C 
HETATM    5  O2  UNL     1      18.396   1.977  51.954  1.00  0.00    -0.354 OA
HETATM    6  C6  UNL     1      18.247   2.883  50.774  1.00  0.00     0.277 C 
HETATM    7  C7  UNL     1      19.433   3.734  50.783  1.00  0.00     0.243 C 
HETATM    8  O3  UNL     1      19.414   3.603  52.007  1.00  0.00    -0.271 OA
HETATM    9  N2  UNL     1      20.565   4.551  50.724  1.00  0.00    -0.350 N 
HETATM   10  C8  UNL     1      21.193   4.936  49.493  1.00  0.00     0.126 C 
HETATM   11  C9  UNL     1      22.543   4.173  49.771  1.00  0.00     0.026 C 
HETATM   12  C10 UNL     1      22.746   4.395  51.249  1.00  0.00     0.011 C 
HETATM   13  C11 UNL     1      22.631   3.224  52.147  1.00  0.00     0.063 C 
HETATM   14  C12 UNL     1      21.489   5.248  51.582  1.00  0.00     0.130 C 
ENDROOT
BRANCH   1  15
HETATM   15  N1  UNL     1      24.133   1.581  51.377  1.00  0.00    -0.312 N 
HETATM   16  C1  UNL     1      25.168   1.135  52.234  1.00  0.00     0.326 C 
HETATM   17  O1  UNL     1      24.963   0.892  53.468  1.00  0.00    -0.247 OA
HETATM   18  N3  UNL     1      26.453   0.957  51.705  1.00  0.00    -0.293 N 
HETATM   19  H16 UNL     1      26.651   1.146  50.700  1.00  0.00     0.172 HD
HETATM   20  H1  UNL     1      24.333   1.765  50.381  1.00  0.00     0.170 HD
BRANCH  18  21
HETATM   21  C13 UNL     1      27.476   0.510  52.578  1.00  0.00     0.131 A 
HETATM   22  C14 UNL     1      27.721  -0.840  52.688  1.00  0.00     0.050 A 
HETATM   23  C15 UNL     1      28.673  -1.402  53.486  1.00  0.00     0.005 A 
HETATM   24  C16 UNL     1      29.407  -0.460  54.207  1.00  0.00     0.019 A 
HETATM   25  C17 UNL     1      29.196   0.911  54.128  1.00  0.00     0.119 A 
HETATM   26  N4  UNL     1      28.223   1.350  53.304  1.00  0.00    -0.243 NA
ENDBRANCH  18  21
ENDBRANCH   1  15
TORSDOF 2
ENDMDL
MODEL 6
REMARK VINA RESULT:      -7.6      3.943      5.786
REMARK  2 active torsions:
REMARK  status: ('A' for Active; 'I' for Inactive)
REMARK       I    between atoms: C1_2  and  N1_3 
REMARK       I    between atoms: C1_2  and  N3_18 
REMARK    1  A    between atoms: N1_3  and  C2_4 
REMARK    2  A    between atoms: N3_18  and  C13_19 
ROOT
HETATM    1  C2  UNL     1      23.163   1.649  51.813  1.00  0.00     0.014 C 
HETATM    2  C3  UNL     1      23.923   0.653  52.286  1.00  0.00     0.027 C 
HETATM    3  C4  UNL     1      24.071  -0.368  53.301  1.00  0.00     0.026 C 
HETATM    4  C5  UNL     1      23.413  -0.859  54.345  1.00  0.00     0.135 C 
HETATM    5  O2  UNL     1      22.277  -0.887  55.237  1.00  0.00    -0.354 OA
HETATM    6  C6  UNL     1      21.117  -1.537  54.554  1.00  0.00     0.277 C 
HETATM    7  C7  UNL     1      20.541  -0.507  53.695  1.00  0.00     0.243 C 
HETATM    8  O3  UNL     1      20.939   0.298  54.539  1.00  0.00    -0.271 OA
HETATM    9  N2  UNL     1      19.972   0.433  52.831  1.00  0.00    -0.350 N 
HETATM   10  C8  UNL     1      19.450   0.094  51.538  1.00  0.00     0.126 C 
HETATM   11  C9  UNL     1      20.508   0.937  50.728  1.00  0.00     0.026 C 
HETATM   12  C10 UNL     1      20.671   2.167  51.583  1.00  0.00     0.011 C 
HETATM   13  C11 UNL     1      21.967   2.369  52.267  1.00  0.00     0.063 C 
HETATM   14  C12 UNL     1      19.683   1.841  52.740  1.00  0.00     0.130 C 
ENDROOT
BRANCH   1  15
HETATM   15  N1  UNL     1      23.658   2.313  50.628  1.00  0.00    -0.312 N 
HETATM   16  C1  UNL     1      24.610   3.344  50.439  1.00  0.00     0.326 C 
HETATM   17  O1  UNL     1      25.231   3.874  51.416  1.00  0.00    -0.247 OA
HETATM   18  N3  UNL     1      24.874   3.788  49.136  1.00  0.00    -0.293 N 
HETATM   19  H16 UNL     1      24.384   3.373  48.316  1.00  0.00     0.172 HD
HETATM   20  H1  UNL     1      23.175   1.903  49.812  1.00  0.00     0.170 HD
BRANCH  18  21
HETATM   21  C13 UNL     1      25.831   4.821  48.967  1.00  0.00     0.131 A 
HETATM   22  C14 UNL     1      27.151   4.485  48.772  1.00  0.00     0.050 A 
HETATM   23  C15 UNL     1      28.169   5.375  48.594  1.00  0.00     0.005 A 
HETATM   24  C16 UNL     1      27.744   6.704  48.625  1.00  0.00     0.019 A 
HETATM   25  C17 UNL     1      26.424   7.090  48.819  1.00  0.00     0.119 A 
HETATM   26  N4  UNL     1      25.504   6.117  48.985  1.00  0.00    -0.243 NA
ENDBRANCH  18  21
ENDBRANCH   1  15
TORSDOF 2
ENDMDL
MODEL 7
REMARK VINA RESULT:      -7.6      3.888      5.759
REMARK  2 active torsions:
REMARK  status: ('A' for Active; 'I' for Inactive)
REMARK       I    between atoms: C1_2  and  N1_3 
REMARK       I    between atoms: C1_2  and  N3_18 
REMARK    1  A    between atoms: N1_3  and  C2_4 
REMARK    2  A    between atoms: N3_18  and  C13_19 
ROOT
HETATM    1  C2  UNL     1      24.172   3.662  49.242  1.00  0.00     0.014 C 
HETATM    2  C3  UNL     1      25.492   3.502  49.401  1.00  0.00     0.027 C 
HETATM    3  C4  UNL     1      26.805   4.085  49.214  1.00  0.00     0.026 C 
HETATM    4  C5  UNL     1      27.360   5.203  48.763  1.00  0.00     0.135 C 
HETATM    5  O2  UNL     1      27.275   6.529  48.197  1.00  0.00    -0.354 OA
HETATM    6  C6  UNL     1      26.843   7.499  49.250  1.00  0.00     0.277 C 
HETATM    7  C7  UNL     1      25.395   7.344  49.352  1.00  0.00     0.243 C 
HETATM    8  O3  UNL     1      25.428   7.047  48.157  1.00  0.00    -0.271 OA
HETATM    9  N2  UNL     1      24.013   7.212  49.515  1.00  0.00    -0.350 N 
HETATM   10  C8  UNL     1      23.360   7.299  50.790  1.00  0.00     0.126 C 
HETATM   11  C9  UNL     1      22.862   5.804  50.802  1.00  0.00     0.026 C 
HETATM   12  C10 UNL     1      22.480   5.575  49.361  1.00  0.00     0.011 C 
HETATM   13  C11 UNL     1      23.302   4.634  48.568  1.00  0.00     0.063 C 
HETATM   14  C12 UNL     1      22.814   6.967  48.755  1.00  0.00     0.130 C 
ENDROOT
BRANCH   1  15
HETATM   15  N1  UNL     1      23.343   2.577  49.715  1.00  0.00    -0.312 N 
HETATM   16  C1  UNL     1      23.079   2.070  51.011  1.00  0.00     0.326 C 
HETATM   17  O1  UNL     1      23.605   2.580  52.052  1.00  0.00    -0.247 OA
HETATM   18  N3  UNL     1      22.214   0.977  51.145  1.00  0.00    -0.293 N 
HETATM   19  H16 UNL     1      21.766   0.539  50.312  1.00  0.00     0.172 HD
HETATM   20  H1  UNL     1      22.896   2.141  48.892  1.00  0.00     0.170 HD
BRANCH  18  21
HETATM   21  C13 UNL     1      21.962   0.484  52.450  1.00  0.00     0.131 A 
HETATM   22  C14 UNL     1      22.810  -0.461  52.984  1.00  0.00     0.050 A 
HETATM   23  C15 UNL     1      22.684  -1.014  54.224  1.00  0.00     0.005 A 
HETATM   24  C16 UNL     1      21.588  -0.524  54.933  1.00  0.00     0.019 A 
HETATM   25  C17 UNL     1      20.707   0.428  54.436  1.00  0.00     0.119 A 
HETATM   26  N4  UNL     1      20.932   0.902  53.193  1.00  0.00    -0.243 NA
ENDBRANCH  18  21
ENDBRANCH   1  15
TORSDOF 2
ENDMDL
MODEL 8
REMARK VINA RESULT:      -7.3      1.869      2.421
REMARK  2 active torsions:
REMARK  status: ('A' for Active; 'I' for Inactive)
REMARK       I    between atoms: C1_2  and  N1_3 
REMARK       I    between atoms: C1_2  and  N3_18 
REMARK    1  A    between atoms: N1_3  and  C2_4 
REMARK    2  A    between atoms: N3_18  and  C13_19 
ROOT
HETATM    1  C2  UNL     1      22.985   2.927  50.683  1.00  0.00     0.014 C 
HETATM    2  C3  UNL     1      23.230   3.697  49.615  1.00  0.00     0.027 C 
HETATM    3  C4  UNL     1      22.807   4.071  48.281  1.00  0.00     0.026 C 
HETATM    4  C5  UNL     1      21.840   3.800  47.414  1.00  0.00     0.135 C 
HETATM    5  O2  UNL     1      20.633   3.108  47.026  1.00  0.00    -0.354 OA
HETATM    6  C6  UNL     1      19.458   3.719  47.720  1.00  0.00     0.277 C 
HETATM    7  C7  UNL     1      19.464   3.157  49.067  1.00  0.00     0.243 C 
HETATM    8  O3  UNL     1      19.971   2.157  48.556  1.00  0.00    -0.271 OA
HETATM    9  N2  UNL     1      19.444   2.675  50.379  1.00  0.00    -0.350 N 
HETATM   10  C8  UNL     1      19.075   3.484  51.506  1.00  0.00     0.126 C 
HETATM   11  C9  UNL     1      20.495   3.439  52.189  1.00  0.00     0.026 C 
HETATM   12  C10 UNL     1      20.941   2.024  51.924  1.00  0.00     0.011 C 
HETATM   13  C11 UNL     1      22.077   1.818  50.997  1.00  0.00     0.063 C 
HETATM   14  C12 UNL     1      19.713   1.482  51.139  1.00  0.00     0.130 C 
ENDROOT
BRANCH   1  15
HETATM   15  N1  UNL     1      23.893   3.086  51.797  1.00  0.00    -0.312 N 
HETATM   16  C1  UNL     1      24.989   2.314  52.253  1.00  0.00     0.326 C 
HETATM   17  O1  UNL     1      25.359   1.252  51.656  1.00  0.00    -0.247 OA
HETATM   18  N3  UNL     1      25.683   2.736  53.395  1.00  0.00    -0.293 N 
HETATM   19  H16 UNL     1      25.406   3.602  53.904  1.00  0.00     0.172 HD
HETATM   20  H1  UNL     1      23.623   3.945  52.304  1.00  0.00     0.170 HD
BRANCH  18  21
HETATM   21  C13 UNL     1      26.777   1.950  53.837  1.00  0.00     0.131 A 
HETATM   22  C14 UNL     1      28.050   2.291  53.439  1.00  0.00     0.050 A 
HETATM   23  C15 UNL     1      29.186   1.624  53.792  1.00  0.00     0.005 A 
HETATM   24  C16 UNL     1      28.942   0.529  54.621  1.00  0.00     0.019 A 
HETATM   25  C17 UNL     1      27.676   0.148  55.048  1.00  0.00     0.119 A 
HETATM   26  N4  UNL     1      26.626   0.885  54.632  1.00  0.00    -0.243 NA
ENDBRANCH  18  21
ENDBRANCH   1  15
TORSDOF 2
ENDMDL
MODEL 9
REMARK VINA RESULT:      -7.3      3.221      3.727
REMARK  2 active torsions:
REMARK  status: ('A' for Active; 'I' for Inactive)
REMARK       I    between atoms: C1_2  and  N1_3 
REMARK       I    between atoms: C1_2  and  N3_18 
REMARK    1  A    between atoms: N1_3  and  C2_4 
REMARK    2  A    between atoms: N3_18  and  C13_19 
ROOT
HETATM    1  C2  UNL     1      24.774   4.681  50.071  1.00  0.00     0.014 C 
HETATM    2  C3  UNL     1      25.588   5.721  49.850  1.00  0.00     0.027 C 
HETATM    3  C4  UNL     1      25.910   6.831  48.978  1.00  0.00     0.026 C 
HETATM    4  C5  UNL     1      25.462   7.410  47.871  1.00  0.00     0.135 C 
HETATM    5  O2  UNL     1      24.527   7.511  46.774  1.00  0.00    -0.354 OA
HETATM    6  C6  UNL     1      23.238   8.088  47.264  1.00  0.00     0.277 C 
HETATM    7  C7  UNL     1      22.528   6.980  47.895  1.00  0.00     0.243 C 
HETATM    8  O3  UNL     1      23.106   6.258  47.082  1.00  0.00    -0.271 OA
HETATM    9  N2  UNL     1      21.821   5.962  48.542  1.00  0.00    -0.350 N 
HETATM   10  C8  UNL     1      21.043   6.178  49.728  1.00  0.00     0.126 C 
HETATM   11  C9  UNL     1      21.938   5.273  50.657  1.00  0.00     0.026 C 
HETATM   12  C10 UNL     1      22.300   4.126  49.748  1.00  0.00     0.011 C 
HETATM   13  C11 UNL     1      23.711   3.996  49.324  1.00  0.00     0.063 C 
HETATM   14  C12 UNL     1      21.556   4.550  48.449  1.00  0.00     0.130 C 
ENDROOT
BRANCH   1  15
HETATM   15  N1  UNL     1      25.038   3.915  51.268  1.00  0.00    -0.312 N 
HETATM   16  C1  UNL     1      26.092   3.042  51.630  1.00  0.00     0.326 C 
HETATM   17  O1  UNL     1      27.064   2.798  50.843  1.00  0.00    -0.247 OA
HETATM   18  N3  UNL     1      26.060   2.430  52.890  1.00  0.00    -0.293 N 
HETATM   19  H16 UNL     1      25.280   2.611  53.556  1.00  0.00     0.172 HD
HETATM   20  H1  UNL     1      24.267   4.092  51.933  1.00  0.00     0.170 HD
BRANCH  18  21
HETATM   21  C13 UNL     1      27.125   1.559  53.233  1.00  0.00     0.131 A 
HETATM   22  C14 UNL     1      27.060   0.239  52.848  1.00  0.00     0.050 A 
HETATM   23  C15 UNL     1      28.013  -0.702  53.110  1.00  0.00     0.005 A 
HETATM   24  C16 UNL     1      29.099  -0.195  53.825  1.00  0.00     0.019 A 
HETATM   25  C17 UNL     1      29.207   1.128  54.234  1.00  0.00     0.119 A 
HETATM   26  N4  UNL     1      28.199   1.967  53.917  1.00  0.00    -0.243 NA
ENDBRANCH  18  21
ENDBRANCH   1  15
TORSDOF 2
ENDMDL
