MODEL 1
REMARK VINA RESULT:      -9.4      0.000      0.000
REMARK  5 active torsions:
REMARK  status: ('A' for Active; 'I' for Inactive)
REMARK    1  A    between atoms: C4_4  and  C5_5 
REMARK       I    between atoms: C5_5  and  N1_7 
REMARK    2  A    between atoms: N1_7  and  C6_8 
REMARK    3  A    between atoms: S1_13  and  N2_14 
REMARK    4  A    between atoms: N2_14  and  C11_15 
REMARK    5  A    between atoms: C14_19  and  C15_20 
ROOT
HETATM    1  C6  UNL     1      23.361   2.944  49.261  1.00  0.00     0.042 A 
HETATM    2  C7  UNL     1      22.402   2.730  48.404  1.00  0.00     0.031 A 
HETATM    3  C8  UNL     1      21.092   2.116  48.562  1.00  0.00     0.017 A 
HETATM    4  C9  UNL     1      20.646   1.639  49.727  1.00  0.00    -0.012 A 
HETATM    5  C10 UNL     1      19.314   1.008  49.918  1.00  0.00     0.057 C 
HETATM    6  S1  UNL     1      21.815   1.825  51.083  1.00  0.00    -0.054 SA
HETATM    7  C20 UNL     1      23.226   2.542  50.677  1.00  0.00     0.090 A 
ENDROOT
BRANCH   6   8
HETATM    8  N2  UNL     1      21.262   1.625  52.760  1.00  0.00    -0.163 N 
HETATM    9  H11 UNL     1      20.535   2.087  53.372  1.00  0.00     0.192 HD
BRANCH   8  10
HETATM   10  C11 UNL     1      21.933   0.607  53.496  1.00  0.00     0.732 A 
HETATM   11  N3  UNL     1      21.263  -0.277  54.292  1.00  0.00    -0.074 NA
HETATM   12  C12 UNL     1      21.923  -1.230  54.976  1.00  0.00     0.139 A 
HETATM   13  C13 UNL     1      23.295  -1.266  54.834  1.00  0.00     0.053 A 
HETATM   14  C14 UNL     1      24.010  -0.393  54.041  1.00  0.00     0.089 A 
HETATM   15  N5  UNL     1      23.264   0.521  53.399  1.00  0.00    -0.062 NA
BRANCH  14  16
HETATM   16  C15 UNL     1      25.459  -0.449  53.904  1.00  0.00     0.011 A 
HETATM   17  C16 UNL     1      26.123  -0.865  52.783  1.00  0.00     0.017 A 
HETATM   18  C17 UNL     1      27.489  -0.877  52.764  1.00  0.00     0.020 A 
HETATM   19  C18 UNL     1      28.268  -0.479  53.857  1.00  0.00     0.116 A 
HETATM   20  N4  UNL     1      27.566  -0.075  54.947  1.00  0.00    -0.272 NA
HETATM   21  C19 UNL     1      26.223  -0.056  54.983  1.00  0.00     0.130 A 
ENDBRANCH  14  16
ENDBRANCH   8  10
ENDBRANCH   6   8
BRANCH   1  22
HETATM   22  N1  UNL     1      24.613   3.571  48.935  1.00  0.00    -0.322 N 
HETATM   23  C5  UNL     1      25.069   4.864  49.316  1.00  0.00     0.255 C 
HETATM   24  O1  UNL     1      24.388   5.652  50.023  1.00  0.00    -0.267 OA
HETATM   25  H5  UNL     1      25.201   2.937  48.344  1.00  0.00     0.169 HD
BRANCH  23  26
HETATM   26  C4  UNL     1      26.387   5.297  48.865  1.00  0.00     0.029 A 
HETATM   27  C3  UNL     1      26.659   6.645  48.348  1.00  0.00     0.019 A 
HETATM   28  C2  UNL     1      27.940   6.713  48.028  1.00  0.00    -0.079 A 
HETATM   29  C1  UNL     1      28.608   7.922  47.466  1.00  0.00     0.043 C 
HETATM   30  C22 UNL     1      28.620   5.413  48.310  1.00  0.00     0.061 A 
HETATM   31  C21 UNL     1      27.509   4.600  48.841  1.00  0.00    -0.006 A 
ENDBRANCH  23  26
ENDBRANCH   1  22
TORSDOF 5
ENDMDL
MODEL 2
REMARK VINA RESULT:      -9.4      1.762      2.367
REMARK  5 active torsions:
REMARK  status: ('A' for Active; 'I' for Inactive)
REMARK    1  A    between atoms: C4_4  and  C5_5 
REMARK       I    between atoms: C5_5  and  N1_7 
REMARK    2  A    between atoms: N1_7  and  C6_8 
REMARK    3  A    between atoms: S1_13  and  N2_14 
REMARK    4  A    between atoms: N2_14  and  C11_15 
REMARK    5  A    between atoms: C14_19  and  C15_20 
ROOT
HETATM    1  C6  UNL     1      24.839   4.808  50.382  1.00  0.00     0.042 A 
HETATM    2  C7  UNL     1      24.093   5.584  51.118  1.00  0.00     0.031 A 
HETATM    3  C8  UNL     1      22.807   5.355  51.757  1.00  0.00     0.017 A 
HETATM    4  C9  UNL     1      22.144   4.199  51.670  1.00  0.00    -0.012 A 
HETATM    5  C10 UNL     1      20.830   3.937  52.313  1.00  0.00     0.057 C 
HETATM    6  S1  UNL     1      22.991   2.950  50.688  1.00  0.00    -0.054 SA
HETATM    7  C20 UNL     1      24.423   3.425  50.064  1.00  0.00     0.090 A 
ENDROOT
BRANCH   6   8
HETATM    8  N2  UNL     1      22.477   1.251  50.787  1.00  0.00    -0.163 N 
HETATM    9  H11 UNL     1      21.937   0.591  50.164  1.00  0.00     0.192 HD
BRANCH   8  10
HETATM   10  C11 UNL     1      22.866   0.575  51.979  1.00  0.00     0.732 A 
HETATM   11  N3  UNL     1      21.954   0.022  52.832  1.00  0.00    -0.074 NA
HETATM   12  C12 UNL     1      22.350  -0.611  53.952  1.00  0.00     0.139 A 
HETATM   13  C13 UNL     1      23.708  -0.672  54.190  1.00  0.00     0.053 A 
HETATM   14  C14 UNL     1      24.661  -0.127  53.355  1.00  0.00     0.089 A 
HETATM   15  N5  UNL     1      24.169   0.483  52.266  1.00  0.00    -0.062 NA
BRANCH  14  16
HETATM   16  C15 UNL     1      26.090  -0.202  53.626  1.00  0.00     0.011 A 
HETATM   17  C16 UNL     1      26.990  -0.917  52.882  1.00  0.00     0.017 A 
HETATM   18  C17 UNL     1      28.312  -0.918  53.227  1.00  0.00     0.020 A 
HETATM   19  C18 UNL     1      28.811  -0.211  54.328  1.00  0.00     0.116 A 
HETATM   20  N4  UNL     1      27.882   0.482  55.036  1.00  0.00    -0.272 NA
HETATM   21  C19 UNL     1      26.578   0.495  54.711  1.00  0.00     0.130 A 
ENDBRANCH  14  16
ENDBRANCH   8  10
ENDBRANCH   6   8
BRANCH   1  22
HETATM   22  N1  UNL     1      26.103   5.196  49.818  1.00  0.00    -0.322 N 
HETATM   23  C5  UNL     1      26.341   6.085  48.734  1.00  0.00     0.255 C 
HETATM   24  O1  UNL     1      25.418   6.667  48.106  1.00  0.00    -0.267 OA
HETATM   25  H5  UNL     1      26.892   4.724  50.321  1.00  0.00     0.169 HD
BRANCH  23  26
HETATM   26  C4  UNL     1      27.721   6.333  48.328  1.00  0.00     0.029 A 
HETATM   27  C3  UNL     1      28.755   5.290  48.311  1.00  0.00     0.019 A 
HETATM   28  C2  UNL     1      29.886   5.837  47.899  1.00  0.00    -0.079 A 
HETATM   29  C1  UNL     1      31.174   5.102  47.745  1.00  0.00     0.043 C 
HETATM   30  C22 UNL     1      29.689   7.290  47.608  1.00  0.00     0.061 A 
HETATM   31  C21 UNL     1      28.260   7.470  47.926  1.00  0.00    -0.006 A 
ENDBRANCH  23  26
ENDBRANCH   1  22
TORSDOF 5
ENDMDL
MODEL 3
REMARK VINA RESULT:      -9.3      2.358      5.452
REMARK  5 active torsions:
REMARK  status: ('A' for Active; 'I' for Inactive)
REMARK    1  A    between atoms: C4_4  and  C5_5 
REMARK       I    between atoms: C5_5  and  N1_7 
REMARK    2  A    between atoms: N1_7  and  C6_8 
REMARK    3  A    between atoms: S1_13  and  N2_14 
REMARK    4  A    between atoms: N2_14  and  C11_15 
REMARK    5  A    between atoms: C14_19  and  C15_20 
ROOT
HETATM    1  C6  UNL     1      25.680   2.917  50.527  1.00  0.00     0.042 A 
HETATM    2  C7  UNL     1      26.057   3.985  49.883  1.00  0.00     0.031 A 
HETATM    3  C8  UNL     1      25.290   5.005  49.184  1.00  0.00     0.017 A 
HETATM    4  C9  UNL     1      23.957   4.984  49.097  1.00  0.00    -0.012 A 
HETATM    5  C10 UNL     1      23.149   6.012  48.390  1.00  0.00     0.057 C 
HETATM    6  S1  UNL     1      23.198   3.578  49.926  1.00  0.00    -0.054 SA
HETATM    7  C20 UNL     1      24.251   2.558  50.646  1.00  0.00     0.090 A 
ENDROOT
BRANCH   6   8
HETATM    8  N2  UNL     1      21.453   3.589  50.263  1.00  0.00    -0.163 N 
HETATM    9  H11 UNL     1      20.672   4.292  50.161  1.00  0.00     0.192 HD
BRANCH   8  10
HETATM   10  C11 UNL     1      20.939   2.375  50.803  1.00  0.00     0.732 A 
HETATM   11  N3  UNL     1      19.749   1.844  50.394  1.00  0.00    -0.074 NA
HETATM   12  C12 UNL     1      19.288   0.695  50.922  1.00  0.00     0.139 A 
HETATM   13  C13 UNL     1      20.069   0.089  51.884  1.00  0.00     0.053 A 
HETATM   14  C14 UNL     1      21.276   0.591  52.324  1.00  0.00     0.089 A 
HETATM   15  N5  UNL     1      21.651   1.740  51.740  1.00  0.00    -0.062 NA
BRANCH  14  16
HETATM   16  C15 UNL     1      22.086  -0.065  53.341  1.00  0.00     0.011 A 
HETATM   17  C16 UNL     1      23.452  -0.026  53.397  1.00  0.00     0.017 A 
HETATM   18  C17 UNL     1      24.112  -0.680  54.399  1.00  0.00     0.020 A 
HETATM   19  C18 UNL     1      23.452  -1.408  55.396  1.00  0.00     0.116 A 
HETATM   20  N4  UNL     1      22.098  -1.420  55.299  1.00  0.00    -0.272 NA
HETATM   21  C19 UNL     1      21.432  -0.782  54.321  1.00  0.00     0.130 A 
ENDBRANCH  14  16
ENDBRANCH   8  10
ENDBRANCH   6   8
BRANCH   1  22
HETATM   22  N1  UNL     1      26.581   1.999  51.171  1.00  0.00    -0.322 N 
HETATM   23  C5  UNL     1      26.746   1.768  52.565  1.00  0.00     0.255 C 
HETATM   24  O1  UNL     1      26.084   2.376  53.446  1.00  0.00    -0.267 OA
HETATM   25  H5  UNL     1      27.148   1.479  50.460  1.00  0.00     0.169 HD
BRANCH  23  26
HETATM   26  C4  UNL     1      27.731   0.781  52.994  1.00  0.00     0.029 A 
HETATM   27  C3  UNL     1      27.587  -0.660  52.746  1.00  0.00     0.019 A 
HETATM   28  C2  UNL     1      28.641  -1.273  53.258  1.00  0.00    -0.079 A 
HETATM   29  C1  UNL     1      28.867  -2.747  53.210  1.00  0.00     0.043 C 
HETATM   30  C22 UNL     1      29.569  -0.285  53.885  1.00  0.00     0.061 A 
HETATM   31  C21 UNL     1      28.863   0.988  53.644  1.00  0.00    -0.006 A 
ENDBRANCH  23  26
ENDBRANCH   1  22
TORSDOF 5
ENDMDL
MODEL 4
REMARK VINA RESULT:      -9.1      2.730      7.513
REMARK  5 active torsions:
REMARK  status: ('A' for Active; 'I' for Inactive)
REMARK    1  A    between atoms: C4_4  and  C5_5 
REMARK       I    between atoms: C5_5  and  N1_7 
REMARK    2  A    between atoms: N1_7  and  C6_8 
REMARK    3  A    between atoms: S1_13  and  N2_14 
REMARK    4  A    between atoms: N2_14  and  C11_15 
REMARK    5  A    between atoms: C14_19  and  C15_20 
ROOT
HETATM    1  C6  UNL     1      24.053   1.801  51.845  1.00  0.00     0.042 A 
HETATM    2  C7  UNL     1      22.891   1.399  51.411  1.00  0.00     0.031 A 
HETATM    3  C8  UNL     1      21.653   2.124  51.169  1.00  0.00     0.017 A 
HETATM    4  C9  UNL     1      21.523   3.436  51.380  1.00  0.00    -0.012 A 
HETATM    5  C10 UNL     1      20.272   4.201  51.141  1.00  0.00     0.057 C 
HETATM    6  S1  UNL     1      23.021   4.225  51.991  1.00  0.00    -0.054 SA
HETATM    7  C20 UNL     1      24.292   3.219  52.190  1.00  0.00     0.090 A 
ENDROOT
BRANCH   6   8
HETATM    8  N2  UNL     1      23.167   5.996  51.949  1.00  0.00    -0.163 N 
HETATM    9  H11 UNL     1      23.006   6.780  52.638  1.00  0.00     0.192 HD
BRANCH   8  10
HETATM   10  C11 UNL     1      23.605   6.532  50.705  1.00  0.00     0.732 A 
HETATM   11  N3  UNL     1      22.774   7.239  49.884  1.00  0.00    -0.074 NA
HETATM   12  C12 UNL     1      23.215   7.734  48.713  1.00  0.00     0.139 A 
HETATM   13  C13 UNL     1      24.535   7.494  48.388  1.00  0.00     0.053 A 
HETATM   14  C14 UNL     1      25.407   6.787  49.189  1.00  0.00     0.089 A 
HETATM   15  N5  UNL     1      24.875   6.333  50.335  1.00  0.00    -0.062 NA
BRANCH  14  16
HETATM   16  C15 UNL     1      26.797   6.545  48.828  1.00  0.00     0.011 A 
HETATM   17  C16 UNL     1      27.356   5.308  48.653  1.00  0.00     0.017 A 
HETATM   18  C17 UNL     1      28.674   5.197  48.313  1.00  0.00     0.020 A 
HETATM   19  C18 UNL     1      29.509   6.306  48.131  1.00  0.00     0.116 A 
HETATM   20  N4  UNL     1      28.912   7.512  48.316  1.00  0.00    -0.272 NA
HETATM   21  C19 UNL     1      27.616   7.640  48.649  1.00  0.00     0.130 A 
ENDBRANCH  14  16
ENDBRANCH   8  10
ENDBRANCH   6   8
BRANCH   1  22
HETATM   22  N1  UNL     1      25.190   0.941  52.031  1.00  0.00    -0.322 N 
HETATM   23  C5  UNL     1      25.363  -0.083  53.004  1.00  0.00     0.255 C 
HETATM   24  O1  UNL     1      24.489  -0.369  53.863  1.00  0.00    -0.267 OA
HETATM   25  H5  UNL     1      25.936   1.158  51.328  1.00  0.00     0.169 HD
BRANCH  23  26
HETATM   26  C4  UNL     1      26.613  -0.836  53.006  1.00  0.00     0.029 A 
HETATM   27  C3  UNL     1      27.888  -0.277  53.475  1.00  0.00     0.019 A 
HETATM   28  C2  UNL     1      28.818  -1.209  53.345  1.00  0.00    -0.079 A 
HETATM   29  C1  UNL     1      30.252  -1.029  53.716  1.00  0.00     0.043 C 
HETATM   30  C22 UNL     1      28.230  -2.461  52.780  1.00  0.00     0.061 A 
HETATM   31  C21 UNL     1      26.815  -2.080  52.611  1.00  0.00    -0.006 A 
ENDBRANCH  23  26
ENDBRANCH   1  22
TORSDOF 5
ENDMDL
MODEL 5
REMARK VINA RESULT:      -9.0      1.297      1.706
REMARK  5 active torsions:
REMARK  status: ('A' for Active; 'I' for Inactive)
REMARK    1  A    between atoms: C4_4  and  C5_5 
REMARK       I    between atoms: C5_5  and  N1_7 
REMARK    2  A    between atoms: N1_7  and  C6_8 
REMARK    3  A    between atoms: S1_13  and  N2_14 
REMARK    4  A    between atoms: N2_14  and  C11_15 
REMARK    5  A    between atoms: C14_19  and  C15_20 
ROOT
HETATM    1  C6  UNL     1      24.154   3.859  49.234  1.00  0.00     0.042 A 
HETATM    2  C7  UNL     1      23.357   3.336  48.345  1.00  0.00     0.031 A 
HETATM    3  C8  UNL     1      22.267   2.381  48.477  1.00  0.00     0.017 A 
HETATM    4  C9  UNL     1      21.896   1.854  49.647  1.00  0.00    -0.012 A 
HETATM    5  C10 UNL     1      20.787   0.878  49.810  1.00  0.00     0.057 C 
HETATM    6  S1  UNL     1      22.868   2.436  51.046  1.00  0.00    -0.054 SA
HETATM    7  C20 UNL     1      24.041   3.507  50.666  1.00  0.00     0.090 A 
ENDROOT
BRANCH   6   8
HETATM    8  N2  UNL     1      22.279   2.169  52.701  1.00  0.00    -0.163 N 
HETATM    9  H11 UNL     1      21.615   2.669  53.353  1.00  0.00     0.192 HD
BRANCH   8  10
HETATM   10  C11 UNL     1      22.804   1.012  53.345  1.00  0.00     0.732 A 
HETATM   11  N3  UNL     1      22.001   0.091  53.954  1.00  0.00    -0.074 NA
HETATM   12  C12 UNL     1      22.525  -0.994  54.555  1.00  0.00     0.139 A 
HETATM   13  C13 UNL     1      23.898  -1.125  54.525  1.00  0.00     0.053 A 
HETATM   14  C14 UNL     1      24.744  -0.218  53.921  1.00  0.00     0.089 A 
HETATM   15  N5  UNL     1      24.129   0.829  53.350  1.00  0.00    -0.062 NA
BRANCH  14  16
HETATM   16  C15 UNL     1      26.192  -0.376  53.901  1.00  0.00     0.011 A 
HETATM   17  C16 UNL     1      27.073   0.407  54.596  1.00  0.00     0.017 A 
HETATM   18  C17 UNL     1      28.416   0.169  54.503  1.00  0.00     0.020 A 
HETATM   19  C18 UNL     1      28.955  -0.855  53.716  1.00  0.00     0.116 A 
HETATM   20  N4  UNL     1      28.043  -1.605  53.044  1.00  0.00    -0.272 NA
HETATM   21  C19 UNL     1      26.719  -1.386  53.124  1.00  0.00     0.130 A 
ENDBRANCH  14  16
ENDBRANCH   8  10
ENDBRANCH   6   8
BRANCH   1  22
HETATM   22  N1  UNL     1      25.196   4.803  48.932  1.00  0.00    -0.322 N 
HETATM   23  C5  UNL     1      26.603   4.601  48.991  1.00  0.00     0.255 C 
HETATM   24  O1  UNL     1      27.128   3.510  49.334  1.00  0.00    -0.267 OA
HETATM   25  H5  UNL     1      24.787   5.723  48.643  1.00  0.00     0.169 HD
BRANCH  23  26
HETATM   26  C4  UNL     1      27.480   5.713  48.637  1.00  0.00     0.029 A 
HETATM   27  C3  UNL     1      28.888   5.538  48.256  1.00  0.00     0.019 A 
HETATM   28  C2  UNL     1      29.396   6.732  47.999  1.00  0.00    -0.079 A 
HETATM   29  C1  UNL     1      30.805   6.977  47.577  1.00  0.00     0.043 C 
HETATM   30  C22 UNL     1      28.361   7.793  48.188  1.00  0.00     0.061 A 
HETATM   31  C21 UNL     1      27.186   7.000  48.595  1.00  0.00    -0.006 A 
ENDBRANCH  23  26
ENDBRANCH   1  22
TORSDOF 5
ENDMDL
MODEL 6
REMARK VINA RESULT:      -8.6      2.335      6.823
REMARK  5 active torsions:
REMARK  status: ('A' for Active; 'I' for Inactive)
REMARK    1  A    between atoms: C4_4  and  C5_5 
REMARK       I    between atoms: C5_5  and  N1_7 
REMARK    2  A    between atoms: N1_7  and  C6_8 
REMARK    3  A    between atoms: S1_13  and  N2_14 
REMARK    4  A    between atoms: N2_14  and  C11_15 
REMARK    5  A    between atoms: C14_19  and  C15_20 
ROOT
HETATM    1  C6  UNL     1      22.725  -0.501  53.878  1.00  0.00     0.042 A 
HETATM    2  C7  UNL     1      21.929  -1.460  54.260  1.00  0.00     0.031 A 
HETATM    3  C8  UNL     1      20.499  -1.652  54.074  1.00  0.00     0.017 A 
HETATM    4  C9  UNL     1      19.725  -0.782  53.419  1.00  0.00    -0.012 A 
HETATM    5  C10 UNL     1      18.263  -0.953  53.214  1.00  0.00     0.057 C 
HETATM    6  S1  UNL     1      20.616   0.649  52.788  1.00  0.00    -0.054 SA
HETATM    7  C20 UNL     1      22.216   0.658  53.114  1.00  0.00     0.090 A 
ENDROOT
BRANCH   6   8
HETATM    8  N2  UNL     1      19.856   1.695  51.568  1.00  0.00    -0.163 N 
HETATM    9  H11 UNL     1      18.899   2.123  51.435  1.00  0.00     0.192 HD
BRANCH   8  10
HETATM   10  C11 UNL     1      20.705   2.072  50.489  1.00  0.00     0.732 A 
HETATM   11  N3  UNL     1      20.671   1.439  49.280  1.00  0.00    -0.074 NA
HETATM   12  C12 UNL     1      21.485   1.817  48.278  1.00  0.00     0.139 A 
HETATM   13  C13 UNL     1      22.345   2.866  48.531  1.00  0.00     0.053 A 
HETATM   14  C14 UNL     1      22.411   3.533  49.737  1.00  0.00     0.089 A 
HETATM   15  N5  UNL     1      21.561   3.083  50.673  1.00  0.00    -0.062 NA
BRANCH  14  16
HETATM   16  C15 UNL     1      23.326   4.639  49.983  1.00  0.00     0.011 A 
HETATM   17  C16 UNL     1      23.219   5.526  51.020  1.00  0.00     0.017 A 
HETATM   18  C17 UNL     1      24.137   6.528  51.157  1.00  0.00     0.020 A 
HETATM   19  C18 UNL     1      25.208   6.706  50.272  1.00  0.00     0.116 A 
HETATM   20  N4  UNL     1      25.273   5.803  49.259  1.00  0.00    -0.272 NA
HETATM   21  C19 UNL     1      24.379   4.810  49.110  1.00  0.00     0.130 A 
ENDBRANCH  14  16
ENDBRANCH   8  10
ENDBRANCH   6   8
BRANCH   1  22
HETATM   22  N1  UNL     1      24.137  -0.464  54.149  1.00  0.00    -0.322 N 
HETATM   23  C5  UNL     1      25.183  -0.039  53.284  1.00  0.00     0.255 C 
HETATM   24  O1  UNL     1      24.981   0.377  52.113  1.00  0.00    -0.267 OA
HETATM   25  H5  UNL     1      24.336  -0.807  55.119  1.00  0.00     0.169 HD
BRANCH  23  26
HETATM   26  C4  UNL     1      26.556  -0.089  53.776  1.00  0.00     0.029 A 
HETATM   27  C3  UNL     1      27.637  -0.795  53.076  1.00  0.00     0.019 A 
HETATM   28  C2  UNL     1      28.747  -0.649  53.779  1.00  0.00    -0.079 A 
HETATM   29  C1  UNL     1      30.071  -1.221  53.397  1.00  0.00     0.043 C 
HETATM   30  C22 UNL     1      28.489   0.168  55.002  1.00  0.00     0.061 A 
HETATM   31  C21 UNL     1      27.048   0.458  54.873  1.00  0.00    -0.006 A 
ENDBRANCH  23  26
ENDBRANCH   1  22
TORSDOF 5
ENDMDL
MODEL 7
REMARK VINA RESULT:      -8.5      3.143      8.137
REMARK  5 active torsions:
REMARK  status: ('A' for Active; 'I' for Inactive)
REMARK    1  A    between atoms: C4_4  and  C5_5 
REMARK       I    between atoms: C5_5  and  N1_7 
REMARK    2  A    between atoms: N1_7  and  C6_8 
REMARK    3  A    between atoms: S1_13  and  N2_14 
REMARK    4  A    between atoms: N2_14  and  C11_15 
REMARK    5  A    between atoms: C14_19  and  C15_20 
ROOT
HETATM    1  C6  UNL     1      25.007   2.451  51.802  1.00  0.00     0.042 A 
HETATM    2  C7  UNL     1      23.796   2.384  52.279  1.00  0.00     0.031 A 
HETATM    3  C8  UNL     1      22.622   3.209  52.040  1.00  0.00     0.017 A 
HETATM    4  C9  UNL     1      22.624   4.257  51.212  1.00  0.00    -0.012 A 
HETATM    5  C10 UNL     1      21.441   5.117  50.948  1.00  0.00     0.057 C 
HETATM    6  S1  UNL     1      24.213   4.554  50.420  1.00  0.00    -0.054 SA
HETATM    7  C20 UNL     1      25.392   3.502  50.837  1.00  0.00     0.090 A 
ENDROOT
BRANCH   6   8
HETATM    8  N2  UNL     1      24.310   5.629  49.009  1.00  0.00    -0.163 N 
HETATM    9  H11 UNL     1      23.782   5.725  48.099  1.00  0.00     0.192 HD
BRANCH   8  10
HETATM   10  C11 UNL     1      25.333   6.617  49.076  1.00  0.00     0.732 A 
HETATM   11  N3  UNL     1      25.119   7.850  49.625  1.00  0.00    -0.074 NA
HETATM   12  C12 UNL     1      26.105   8.764  49.675  1.00  0.00     0.139 A 
HETATM   13  C13 UNL     1      27.328   8.398  49.151  1.00  0.00     0.053 A 
HETATM   14  C14 UNL     1      27.585   7.165  48.589  1.00  0.00     0.089 A 
HETATM   15  N5  UNL     1      26.541   6.321  48.584  1.00  0.00    -0.062 NA
BRANCH  14  16
HETATM   16  C15 UNL     1      28.884   6.798  48.041  1.00  0.00     0.011 A 
HETATM   17  C16 UNL     1      29.672   7.619  47.281  1.00  0.00     0.017 A 
HETATM   18  C17 UNL     1      30.876   7.169  46.818  1.00  0.00     0.020 A 
HETATM   19  C18 UNL     1      31.362   5.883  47.082  1.00  0.00     0.116 A 
HETATM   20  N4  UNL     1      30.546   5.105  47.839  1.00  0.00    -0.272 NA
HETATM   21  C19 UNL     1      29.358   5.530  48.304  1.00  0.00     0.130 A 
ENDBRANCH  14  16
ENDBRANCH   8  10
ENDBRANCH   6   8
BRANCH   1  22
HETATM   22  N1  UNL     1      26.066   1.542  52.148  1.00  0.00    -0.322 N 
HETATM   23  C5  UNL     1      26.907   1.575  53.295  1.00  0.00     0.255 C 
HETATM   24  O1  UNL     1      26.816   2.456  54.190  1.00  0.00    -0.267 OA
HETATM   25  H5  UNL     1      26.166   0.796  51.419  1.00  0.00     0.169 HD
BRANCH  23  26
HETATM   26  C4  UNL     1      27.925   0.540  53.441  1.00  0.00     0.029 A 
HETATM   27  C3  UNL     1      27.704  -0.864  53.069  1.00  0.00     0.019 A 
HETATM   28  C2  UNL     1      28.814  -1.537  53.323  1.00  0.00    -0.079 A 
HETATM   29  C1  UNL     1      28.992  -2.998  53.080  1.00  0.00     0.043 C 
HETATM   30  C22 UNL     1      29.860  -0.629  53.884  1.00  0.00     0.061 A 
HETATM   31  C21 UNL     1      29.156   0.667  53.904  1.00  0.00    -0.006 A 
ENDBRANCH  23  26
ENDBRANCH   1  22
TORSDOF 5
ENDMDL
MODEL 8
REMARK VINA RESULT:      -8.4      2.329      5.330
REMARK  5 active torsions:
REMARK  status: ('A' for Active; 'I' for Inactive)
REMARK    1  A    between atoms: C4_4  and  C5_5 
REMARK       I    between atoms: C5_5  and  N1_7 
REMARK    2  A    between atoms: N1_7  and  C6_8 
REMARK    3  A    between atoms: S1_13  and  N2_14 
REMARK    4  A    between atoms: N2_14  and  C11_15 
REMARK    5  A    between atoms: C14_19  and  C15_20 
ROOT
HETATM    1  C6  UNL     1      25.445   2.482  51.996  1.00  0.00     0.042 A 
HETATM    2  C7  UNL     1      26.491   1.824  51.581  1.00  0.00     0.031 A 
HETATM    3  C8  UNL     1      26.902   0.444  51.790  1.00  0.00     0.017 A 
HETATM    4  C9  UNL     1      26.191  -0.428  52.509  1.00  0.00    -0.012 A 
HETATM    5  C10 UNL     1      26.586  -1.842  52.738  1.00  0.00     0.057 C 
HETATM    6  S1  UNL     1      24.677   0.262  53.196  1.00  0.00    -0.054 SA
HETATM    7  C20 UNL     1      24.415   1.832  52.834  1.00  0.00     0.090 A 
ENDROOT
BRANCH   6   8
HETATM    8  N2  UNL     1      23.420  -0.824  53.830  1.00  0.00    -0.163 N 
HETATM    9  H11 UNL     1      23.399  -1.638  54.502  1.00  0.00     0.192 HD
BRANCH   8  10
HETATM   10  C11 UNL     1      22.107  -0.571  53.340  1.00  0.00     0.732 A 
HETATM   11  N3  UNL     1      20.989  -0.965  54.018  1.00  0.00    -0.074 NA
HETATM   12  C12 UNL     1      19.760  -0.713  53.531  1.00  0.00     0.139 A 
HETATM   13  C13 UNL     1      19.688  -0.044  52.327  1.00  0.00     0.053 A 
HETATM   14  C14 UNL     1      20.791   0.372  51.611  1.00  0.00     0.089 A 
HETATM   15  N5  UNL     1      21.972   0.075  52.177  1.00  0.00    -0.062 NA
BRANCH  14  16
HETATM   16  C15 UNL     1      20.694   1.078  50.341  1.00  0.00     0.011 A 
HETATM   17  C16 UNL     1      21.656   1.073  49.368  1.00  0.00     0.017 A 
HETATM   18  C17 UNL     1      21.459   1.773  48.211  1.00  0.00     0.020 A 
HETATM   19  C18 UNL     1      20.299   2.516  47.959  1.00  0.00     0.116 A 
HETATM   20  N4  UNL     1      19.374   2.492  48.952  1.00  0.00    -0.272 NA
HETATM   21  C19 UNL     1      19.550   1.809  50.097  1.00  0.00     0.130 A 
ENDBRANCH  14  16
ENDBRANCH   8  10
ENDBRANCH   6   8
BRANCH   1  22
HETATM   22  N1  UNL     1      25.186   3.864  51.695  1.00  0.00    -0.322 N 
HETATM   23  C5  UNL     1      24.579   4.407  50.528  1.00  0.00     0.255 C 
HETATM   24  O1  UNL     1      24.177   3.698  49.569  1.00  0.00    -0.267 OA
HETATM   25  H5  UNL     1      25.512   4.479  52.478  1.00  0.00     0.169 HD
BRANCH  23  26
HETATM   26  C4  UNL     1      24.417   5.854  50.438  1.00  0.00     0.029 A 
HETATM   27  C3  UNL     1      25.526   6.772  50.147  1.00  0.00     0.019 A 
HETATM   28  C2  UNL     1      25.048   8.005  50.136  1.00  0.00    -0.079 A 
HETATM   29  C1  UNL     1      25.865   9.226  49.875  1.00  0.00     0.043 C 
HETATM   30  C22 UNL     1      23.581   8.001  50.420  1.00  0.00     0.061 A 
HETATM   31  C21 UNL     1      23.311   6.561  50.592  1.00  0.00    -0.006 A 
ENDBRANCH  23  26
ENDBRANCH   1  22
TORSDOF 5
ENDMDL
MODEL 9
REMARK VINA RESULT:      -8.3      5.152      9.728
REMARK  5 active torsions:
REMARK  status: ('A' for Active; 'I' for Inactive)
REMARK    1  A    between atoms: C4_4  and  C5_5 
REMARK       I    between atoms: C5_5  and  N1_7 
REMARK    2  A    between atoms: N1_7  and  C6_8 
REMARK    3  A    between atoms: S1_13  and  N2_14 
REMARK    4  A    between atoms: N2_14  and  C11_15 
REMARK    5  A    between atoms: C14_19  and  C15_20 
ROOT
HETATM    1  C6  UNL     1      31.664   8.238  47.825  1.00  0.00     0.042 A 
HETATM    2  C7  UNL     1      32.293   9.360  47.613  1.00  0.00     0.031 A 
HETATM    3  C8  UNL     1      31.954  10.731  47.961  1.00  0.00     0.017 A 
HETATM    4  C9  UNL     1      30.838  11.064  48.614  1.00  0.00    -0.012 A 
HETATM    5  C10 UNL     1      30.468  12.455  48.983  1.00  0.00     0.057 C 
HETATM    6  S1  UNL     1      29.791   9.658  49.024  1.00  0.00    -0.054 SA
HETATM    7  C20 UNL     1      30.367   8.210  48.535  1.00  0.00     0.090 A 
ENDROOT
BRANCH   6   8
HETATM    8  N2  UNL     1      28.490   9.845  50.221  1.00  0.00    -0.163 N 
HETATM    9  H11 UNL     1      28.418  10.243  51.196  1.00  0.00     0.192 HD
BRANCH   8  10
HETATM   10  C11 UNL     1      27.220   9.353  49.807  1.00  0.00     0.732 A 
HETATM   11  N3  UNL     1      26.268  10.166  49.260  1.00  0.00    -0.074 NA
HETATM   12  C12 UNL     1      25.075   9.673  48.878  1.00  0.00     0.139 A 
HETATM   13  C13 UNL     1      24.866   8.323  49.065  1.00  0.00     0.053 A 
HETATM   14  C14 UNL     1      25.799   7.468  49.612  1.00  0.00     0.089 A 
HETATM   15  N5  UNL     1      26.957   8.051  49.962  1.00  0.00    -0.062 NA
BRANCH  14  16
HETATM   16  C15 UNL     1      25.558   6.044  49.801  1.00  0.00     0.011 A 
HETATM   17  C16 UNL     1      26.261   5.044  49.185  1.00  0.00     0.017 A 
HETATM   18  C17 UNL     1      25.949   3.738  49.436  1.00  0.00     0.020 A 
HETATM   19  C18 UNL     1      24.923   3.354  50.308  1.00  0.00     0.116 A 
HETATM   20  N4  UNL     1      24.253   4.380  50.894  1.00  0.00    -0.272 NA
HETATM   21  C19 UNL     1      24.546   5.670  50.660  1.00  0.00     0.130 A 
ENDBRANCH  14  16
ENDBRANCH   8  10
ENDBRANCH   6   8
BRANCH   1  22
HETATM   22  N1  UNL     1      32.144   6.949  47.408  1.00  0.00    -0.322 N 
HETATM   23  C5  UNL     1      32.798   5.961  48.197  1.00  0.00     0.255 C 
HETATM   24  O1  UNL     1      33.046   6.113  49.421  1.00  0.00    -0.267 OA
HETATM   25  H5  UNL     1      31.952   6.795  46.390  1.00  0.00     0.169 HD
BRANCH  23  26
HETATM   26  C4  UNL     1      33.202   4.714  47.555  1.00  0.00     0.029 A 
HETATM   27  C3  UNL     1      32.370   3.503  47.554  1.00  0.00     0.019 A 
HETATM   28  C2  UNL     1      33.019   2.559  46.894  1.00  0.00    -0.079 A 
HETATM   29  C1  UNL     1      32.503   1.177  46.672  1.00  0.00     0.043 C 
HETATM   30  C22 UNL     1      34.333   3.072  46.403  1.00  0.00     0.061 A 
HETATM   31  C21 UNL     1      34.319   4.462  46.897  1.00  0.00    -0.006 A 
ENDBRANCH  23  26
ENDBRANCH   1  22
TORSDOF 5
ENDMDL
