MODEL 1
REMARK VINA RESULT:      -7.3      0.000      0.000
REMARK  5 active torsions:
REMARK  status: ('A' for Active; 'I' for Inactive)
REMARK    1  A    between atoms: C3_3  and  C4_5 
REMARK    2  A    between atoms: C5_7  and  C6_8 
REMARK    3  A    between atoms: C10_13  and  C11_14 
REMARK    4  A    between atoms: C12_15  and  O1_16 
REMARK    5  A    between atoms: O1_16  and  C13_17 
ROOT
HETATM    1  C6  UNL     1      24.297   0.369  53.205  1.00  0.00    -0.019 A 
HETATM    2  C7  UNL     1      23.842   1.170  52.148  1.00  0.00    -0.034 A 
HETATM    3  C8  UNL     1      24.826   1.977  51.367  1.00  0.00     0.050 C 
HETATM    4  C9  UNL     1      22.512   1.255  51.773  1.00  0.00     0.124 A 
HETATM    5  N1  UNL     1      21.643   0.515  52.484  1.00  0.00    -0.260 NA
HETATM    6  C10 UNL     1      21.995  -0.274  53.507  1.00  0.00     0.065 A 
HETATM    7  C15 UNL     1      23.337  -0.361  53.888  1.00  0.00    -0.022 A 
HETATM    8  C16 UNL     1      23.596  -1.236  55.054  1.00  0.00     0.051 C 
ENDROOT
BRANCH   1   9
HETATM    9  C5  UNL     1      25.696   0.304  53.593  1.00  0.00     0.039 C 
HETATM   10  C4  UNL     1      26.653  -0.558  53.308  1.00  0.00     0.073 C 
HETATM   11 CL1  UNL     1      26.532  -1.963  52.276  1.00  0.00    -0.081 Cl
BRANCH  10  12
HETATM   12  C3  UNL     1      27.955  -0.292  53.894  1.00  0.00     0.134 C 
HETATM   13  C2  UNL     1      29.051  -0.840  53.414  1.00  0.00     0.013 C 
HETATM   14  C1  UNL     1      30.455  -0.716  53.844  1.00  0.00     0.039 C 
HETATM   15  F1  UNL     1      28.697   0.338  54.834  1.00  0.00    -0.205 F 
ENDBRANCH  10  12
ENDBRANCH   1   9
BRANCH   6  16
HETATM   16  C11 UNL     1      20.977  -1.043  54.199  1.00  0.00     0.056 C 
HETATM   17  C12 UNL     1      19.734  -1.048  53.777  1.00  0.00     0.137 C 
BRANCH  17  18
HETATM   18  O1  UNL     1      18.735  -0.663  52.908  1.00  0.00    -0.363 OA
BRANCH  18  19
HETATM   19  C13 UNL     1      17.529  -1.409  52.861  1.00  0.00     0.170 C 
HETATM   20  C14 UNL     1      17.729  -2.721  53.618  1.00  0.00     0.034 C 
ENDBRANCH  18  19
ENDBRANCH  17  18
ENDBRANCH   6  16
TORSDOF 5
ENDMDL
MODEL 2
REMARK VINA RESULT:      -7.2      1.833      2.939
REMARK  5 active torsions:
REMARK  status: ('A' for Active; 'I' for Inactive)
REMARK    1  A    between atoms: C3_3  and  C4_5 
REMARK    2  A    between atoms: C5_7  and  C6_8 
REMARK    3  A    between atoms: C10_13  and  C11_14 
REMARK    4  A    between atoms: C12_15  and  O1_16 
REMARK    5  A    between atoms: O1_16  and  C13_17 
ROOT
HETATM    1  C6  UNL     1      23.338  -0.050  53.476  1.00  0.00    -0.019 A 
HETATM    2  C7  UNL     1      22.495  -0.511  54.497  1.00  0.00    -0.034 A 
HETATM    3  C8  UNL     1      23.011  -1.518  55.472  1.00  0.00     0.050 C 
HETATM    4  C9  UNL     1      21.191  -0.076  54.665  1.00  0.00     0.124 A 
HETATM    5  N1  UNL     1      20.748   0.836  53.782  1.00  0.00    -0.260 NA
HETATM    6  C10 UNL     1      21.488   1.326  52.778  1.00  0.00     0.065 A 
HETATM    7  C15 UNL     1      22.804   0.888  52.607  1.00  0.00    -0.022 A 
HETATM    8  C16 UNL     1      23.506   1.474  51.442  1.00  0.00     0.051 C 
ENDROOT
BRANCH   1   9
HETATM    9  C5  UNL     1      24.700  -0.530  53.308  1.00  0.00     0.039 C 
HETATM   10  C4  UNL     1      25.870   0.044  53.510  1.00  0.00     0.073 C 
HETATM   11 CL1  UNL     1      26.162   1.657  54.118  1.00  0.00    -0.081 Cl
BRANCH  10  12
HETATM   12  C3  UNL     1      27.043  -0.763  53.222  1.00  0.00     0.134 C 
HETATM   13  C2  UNL     1      28.247  -0.384  53.592  1.00  0.00     0.013 C 
HETATM   14  C1  UNL     1      29.557  -1.033  53.407  1.00  0.00     0.039 C 
HETATM   15  F1  UNL     1      27.575  -1.880  52.677  1.00  0.00    -0.205 F 
ENDBRANCH  10  12
ENDBRANCH   1   9
BRANCH   6  16
HETATM   16  C11 UNL     1      20.915   2.319  51.888  1.00  0.00     0.056 C 
HETATM   17  C12 UNL     1      19.671   2.222  51.481  1.00  0.00     0.137 C 
BRANCH  17  18
HETATM   18  O1  UNL     1      18.444   1.595  51.438  1.00  0.00    -0.363 OA
BRANCH  18  19
HETATM   19  C13 UNL     1      18.361   0.261  50.961  1.00  0.00     0.170 C 
HETATM   20  C14 UNL     1      17.941  -0.651  52.112  1.00  0.00     0.034 C 
ENDBRANCH  18  19
ENDBRANCH  17  18
ENDBRANCH   6  16
TORSDOF 5
ENDMDL
MODEL 3
REMARK VINA RESULT:      -7.2      4.255      7.107
REMARK  5 active torsions:
REMARK  status: ('A' for Active; 'I' for Inactive)
REMARK    1  A    between atoms: C3_3  and  C4_5 
REMARK    2  A    between atoms: C5_7  and  C6_8 
REMARK    3  A    between atoms: C10_13  and  C11_14 
REMARK    4  A    between atoms: C12_15  and  O1_16 
REMARK    5  A    between atoms: O1_16  and  C13_17 
ROOT
HETATM    1  C6  UNL     1      24.961   0.823  52.893  1.00  0.00    -0.019 A 
HETATM    2  C7  UNL     1      24.325  -0.117  53.715  1.00  0.00    -0.034 A 
HETATM    3  C8  UNL     1      22.889  -0.448  53.472  1.00  0.00     0.050 C 
HETATM    4  C9  UNL     1      24.960  -0.777  54.754  1.00  0.00     0.124 A 
HETATM    5  N1  UNL     1      26.254  -0.470  54.953  1.00  0.00    -0.260 NA
HETATM    6  C10 UNL     1      26.935   0.416  54.214  1.00  0.00     0.065 A 
HETATM    7  C15 UNL     1      26.295   1.082  53.165  1.00  0.00    -0.022 A 
HETATM    8  C16 UNL     1      27.141   2.064  52.446  1.00  0.00     0.051 C 
ENDROOT
BRANCH   1   9
HETATM    9  C5  UNL     1      24.274   1.515  51.816  1.00  0.00     0.039 C 
HETATM   10  C4  UNL     1      23.773   2.731  51.724  1.00  0.00     0.073 C 
HETATM   11 CL1  UNL     1      23.816   3.983  52.945  1.00  0.00    -0.081 Cl
BRANCH  10  12
HETATM   12  C3  UNL     1      23.141   3.076  50.463  1.00  0.00     0.134 C 
HETATM   13  C2  UNL     1      22.965   2.182  49.514  1.00  0.00     0.013 C 
HETATM   14  C1  UNL     1      22.359   2.308  48.177  1.00  0.00     0.039 C 
HETATM   15  F1  UNL     1      22.561   4.010  49.675  1.00  0.00    -0.205 F 
ENDBRANCH  10  12
ENDBRANCH   1   9
BRANCH   6  16
HETATM   16  C11 UNL     1      28.335   0.662  54.504  1.00  0.00     0.056 C 
HETATM   17  C12 UNL     1      29.276  -0.069  53.954  1.00  0.00     0.137 C 
BRANCH  17  18
HETATM   18  O1  UNL     1      29.710  -1.089  53.134  1.00  0.00    -0.363 OA
BRANCH  18  19
HETATM   19  C13 UNL     1      29.251  -2.411  53.367  1.00  0.00     0.170 C 
HETATM   20  C14 UNL     1      27.910  -2.602  52.661  1.00  0.00     0.034 C 
ENDBRANCH  18  19
ENDBRANCH  17  18
ENDBRANCH   6  16
TORSDOF 5
ENDMDL
MODEL 4
REMARK VINA RESULT:      -7.1      4.007      7.445
REMARK  5 active torsions:
REMARK  status: ('A' for Active; 'I' for Inactive)
REMARK    1  A    between atoms: C3_3  and  C4_5 
REMARK    2  A    between atoms: C5_7  and  C6_8 
REMARK    3  A    between atoms: C10_13  and  C11_14 
REMARK    4  A    between atoms: C12_15  and  O1_16 
REMARK    5  A    between atoms: O1_16  and  C13_17 
ROOT
HETATM    1  C6  UNL     1      23.100   0.756  52.075  1.00  0.00    -0.019 A 
HETATM    2  C7  UNL     1      23.819   1.689  51.315  1.00  0.00    -0.034 A 
HETATM    3  C8  UNL     1      23.142   2.383  50.179  1.00  0.00     0.050 C 
HETATM    4  C9  UNL     1      25.141   2.019  51.562  1.00  0.00     0.124 A 
HETATM    5  N1  UNL     1      25.730   1.389  52.593  1.00  0.00    -0.260 NA
HETATM    6  C10 UNL     1      25.116   0.485  53.367  1.00  0.00     0.065 A 
HETATM    7  C15 UNL     1      23.782   0.150  53.119  1.00  0.00    -0.022 A 
HETATM    8  C16 UNL     1      23.224  -0.887  54.018  1.00  0.00     0.051 C 
ENDROOT
BRANCH   1   9
HETATM    9  C5  UNL     1      21.717   0.412  51.791  1.00  0.00     0.039 C 
HETATM   10  C4  UNL     1      20.584   1.046  52.023  1.00  0.00     0.073 C 
HETATM   11 CL1  UNL     1      20.387   2.617  52.763  1.00  0.00    -0.081 Cl
BRANCH  10  12
HETATM   12  C3  UNL     1      19.370   0.375  51.591  1.00  0.00     0.134 C 
HETATM   13  C2  UNL     1      18.617  -0.297  52.435  1.00  0.00     0.013 C 
HETATM   14  C1  UNL     1      17.365  -1.043  52.221  1.00  0.00     0.039 C 
HETATM   15  F1  UNL     1      18.512   0.061  50.594  1.00  0.00    -0.205 F 
ENDBRANCH  10  12
ENDBRANCH   1   9
BRANCH   6  16
HETATM   16  C11 UNL     1      25.841  -0.127  54.465  1.00  0.00     0.056 C 
HETATM   17  C12 UNL     1      27.032   0.306  54.810  1.00  0.00     0.137 C 
BRANCH  17  18
HETATM   18  O1  UNL     1      28.116   1.146  54.670  1.00  0.00    -0.363 OA
BRANCH  18  19
HETATM   19  C13 UNL     1      29.123   0.828  53.721  1.00  0.00     0.170 C 
HETATM   20  C14 UNL     1      29.496  -0.646  53.870  1.00  0.00     0.034 C 
ENDBRANCH  18  19
ENDBRANCH  17  18
ENDBRANCH   6  16
TORSDOF 5
ENDMDL
MODEL 5
REMARK VINA RESULT:      -7.0      2.412      4.245
REMARK  5 active torsions:
REMARK  status: ('A' for Active; 'I' for Inactive)
REMARK    1  A    between atoms: C3_3  and  C4_5 
REMARK    2  A    between atoms: C5_7  and  C6_8 
REMARK    3  A    between atoms: C10_13  and  C11_14 
REMARK    4  A    between atoms: C12_15  and  O1_16 
REMARK    5  A    between atoms: O1_16  and  C13_17 
ROOT
HETATM    1  C6  UNL     1      23.240   0.028  53.282  1.00  0.00    -0.019 A 
HETATM    2  C7  UNL     1      22.380  -0.365  54.317  1.00  0.00    -0.034 A 
HETATM    3  C8  UNL     1      22.882  -1.297  55.370  1.00  0.00     0.050 C 
HETATM    4  C9  UNL     1      21.070   0.072  54.429  1.00  0.00     0.124 A 
HETATM    5  N1  UNL     1      20.639   0.916  53.475  1.00  0.00    -0.260 NA
HETATM    6  C10 UNL     1      21.395   1.340  52.454  1.00  0.00     0.065 A 
HETATM    7  C15 UNL     1      22.717   0.900  52.339  1.00  0.00    -0.022 A 
HETATM    8  C16 UNL     1      23.439   1.407  51.150  1.00  0.00     0.051 C 
ENDROOT
BRANCH   1   9
HETATM    9  C5  UNL     1      24.607  -0.452  53.174  1.00  0.00     0.039 C 
HETATM   10  C4  UNL     1      25.767   0.121  53.427  1.00  0.00     0.073 C 
HETATM   11 CL1  UNL     1      26.033   1.734  54.047  1.00  0.00    -0.081 Cl
BRANCH  10  12
HETATM   12  C3  UNL     1      26.951  -0.687  53.191  1.00  0.00     0.134 C 
HETATM   13  C2  UNL     1      28.145  -0.287  53.572  1.00  0.00     0.013 C 
HETATM   14  C1  UNL     1      29.462  -0.932  53.436  1.00  0.00     0.039 C 
HETATM   15  F1  UNL     1      27.501  -1.819  52.696  1.00  0.00    -0.205 F 
ENDBRANCH  10  12
ENDBRANCH   1   9
BRANCH   6  16
HETATM   16  C11 UNL     1      20.835   2.264  51.485  1.00  0.00     0.056 C 
HETATM   17  C12 UNL     1      21.003   3.559  51.615  1.00  0.00     0.137 C 
BRANCH  17  18
HETATM   18  O1  UNL     1      21.493   4.670  52.269  1.00  0.00    -0.363 OA
BRANCH  18  19
HETATM   19  C13 UNL     1      22.834   5.075  52.040  1.00  0.00     0.170 C 
HETATM   20  C14 UNL     1      23.725   4.475  53.127  1.00  0.00     0.034 C 
ENDBRANCH  18  19
ENDBRANCH  17  18
ENDBRANCH   6  16
TORSDOF 5
ENDMDL
MODEL 6
REMARK VINA RESULT:      -7.0      4.063      7.836
REMARK  5 active torsions:
REMARK  status: ('A' for Active; 'I' for Inactive)
REMARK    1  A    between atoms: C3_3  and  C4_5 
REMARK    2  A    between atoms: C5_7  and  C6_8 
REMARK    3  A    between atoms: C10_13  and  C11_14 
REMARK    4  A    between atoms: C12_15  and  O1_16 
REMARK    5  A    between atoms: O1_16  and  C13_17 
ROOT
HETATM    1  C6  UNL     1      22.552   0.014  52.698  1.00  0.00    -0.019 A 
HETATM    2  C7  UNL     1      22.735  -0.813  53.815  1.00  0.00    -0.034 A 
HETATM    3  C8  UNL     1      21.616  -1.694  54.264  1.00  0.00     0.050 C 
HETATM    4  C9  UNL     1      23.916  -0.870  54.537  1.00  0.00     0.124 A 
HETATM    5  N1  UNL     1      24.913  -0.075  54.113  1.00  0.00    -0.260 NA
HETATM    6  C10 UNL     1      24.820   0.744  53.057  1.00  0.00     0.065 A 
HETATM    7  C15 UNL     1      23.629   0.803  52.327  1.00  0.00    -0.022 A 
HETATM    8  C16 UNL     1      23.636   1.771  51.206  1.00  0.00     0.051 C 
ENDROOT
BRANCH   1   9
HETATM    9  C5  UNL     1      21.300   0.070  51.961  1.00  0.00     0.039 C 
HETATM   10  C4  UNL     1      20.344   0.976  51.912  1.00  0.00     0.073 C 
HETATM   11 CL1  UNL     1      20.301   2.510  52.749  1.00  0.00    -0.081 Cl
BRANCH  10  12
HETATM   12  C3  UNL     1      19.216   0.678  51.046  1.00  0.00     0.134 C 
HETATM   13  C2  UNL     1      18.194  -0.035  51.468  1.00  0.00     0.013 C 
HETATM   14  C1  UNL     1      16.964  -0.454  50.773  1.00  0.00     0.039 C 
HETATM   15  F1  UNL     1      18.621   0.795  49.838  1.00  0.00    -0.205 F 
ENDBRANCH  10  12
ENDBRANCH   1   9
BRANCH   6  16
HETATM   16  C11 UNL     1      25.964   1.551  52.675  1.00  0.00     0.056 C 
HETATM   17  C12 UNL     1      27.048   1.575  53.415  1.00  0.00     0.137 C 
BRANCH  17  18
HETATM   18  O1  UNL     1      27.788   1.194  54.514  1.00  0.00    -0.363 OA
BRANCH  18  19
HETATM   19  C13 UNL     1      29.185   0.986  54.373  1.00  0.00     0.170 C 
HETATM   20  C14 UNL     1      29.420  -0.380  53.732  1.00  0.00     0.034 C 
ENDBRANCH  18  19
ENDBRANCH  17  18
ENDBRANCH   6  16
TORSDOF 5
ENDMDL
MODEL 7
REMARK VINA RESULT:      -6.9      4.047      5.661
REMARK  5 active torsions:
REMARK  status: ('A' for Active; 'I' for Inactive)
REMARK    1  A    between atoms: C3_3  and  C4_5 
REMARK    2  A    between atoms: C5_7  and  C6_8 
REMARK    3  A    between atoms: C10_13  and  C11_14 
REMARK    4  A    between atoms: C12_15  and  O1_16 
REMARK    5  A    between atoms: O1_16  and  C13_17 
ROOT
HETATM    1  C6  UNL     1      25.100   2.809  50.283  1.00  0.00    -0.019 A 
HETATM    2  C7  UNL     1      23.754   2.836  49.892  1.00  0.00    -0.034 A 
HETATM    3  C8  UNL     1      23.358   3.626  48.688  1.00  0.00     0.050 C 
HETATM    4  C9  UNL     1      22.750   2.155  50.561  1.00  0.00     0.124 A 
HETATM    5  N1  UNL     1      23.127   1.444  51.638  1.00  0.00    -0.260 NA
HETATM    6  C10 UNL     1      24.390   1.367  52.079  1.00  0.00     0.065 A 
HETATM    7  C15 UNL     1      25.404   2.053  51.405  1.00  0.00    -0.022 A 
HETATM    8  C16 UNL     1      26.750   1.921  52.009  1.00  0.00     0.051 C 
ENDROOT
BRANCH   1   9
HETATM    9  C5  UNL     1      26.136   3.541  49.576  1.00  0.00     0.039 C 
HETATM   10  C4  UNL     1      26.380   4.832  49.453  1.00  0.00     0.073 C 
HETATM   11 CL1  UNL     1      25.487   6.146  50.182  1.00  0.00    -0.081 Cl
BRANCH  10  12
HETATM   12  C3  UNL     1      27.530   5.197  48.646  1.00  0.00     0.134 C 
HETATM   13  C2  UNL     1      27.708   6.428  48.217  1.00  0.00     0.013 C 
HETATM   14  C1  UNL     1      28.783   7.014  47.398  1.00  0.00     0.039 C 
HETATM   15  F1  UNL     1      28.677   4.830  48.030  1.00  0.00    -0.205 F 
ENDBRANCH  10  12
ENDBRANCH   1   9
BRANCH   6  16
HETATM   16  C11 UNL     1      24.691   0.558  53.246  1.00  0.00     0.056 C 
HETATM   17  C12 UNL     1      23.871  -0.387  53.639  1.00  0.00     0.137 C 
BRANCH  17  18
HETATM   18  O1  UNL     1      22.714  -1.129  53.526  1.00  0.00    -0.363 OA
BRANCH  18  19
HETATM   19  C13 UNL     1      21.773  -1.116  54.589  1.00  0.00     0.170 C 
HETATM   20  C14 UNL     1      20.943   0.163  54.500  1.00  0.00     0.034 C 
ENDBRANCH  18  19
ENDBRANCH  17  18
ENDBRANCH   6  16
TORSDOF 5
ENDMDL
MODEL 8
REMARK VINA RESULT:      -6.9      3.341      4.681
REMARK  5 active torsions:
REMARK  status: ('A' for Active; 'I' for Inactive)
REMARK    1  A    between atoms: C3_3  and  C4_5 
REMARK    2  A    between atoms: C5_7  and  C6_8 
REMARK    3  A    between atoms: C10_13  and  C11_14 
REMARK    4  A    between atoms: C12_15  and  O1_16 
REMARK    5  A    between atoms: O1_16  and  C13_17 
ROOT
HETATM    1  C6  UNL     1      25.336   1.274  52.084  1.00  0.00    -0.019 A 
HETATM    2  C7  UNL     1      24.103   0.951  52.668  1.00  0.00    -0.034 A 
HETATM    3  C8  UNL     1      24.039  -0.143  53.682  1.00  0.00     0.050 C 
HETATM    4  C9  UNL     1      22.920   1.602  52.361  1.00  0.00     0.124 A 
HETATM    5  N1  UNL     1      23.000   2.588  51.451  1.00  0.00    -0.260 NA
HETATM    6  C10 UNL     1      24.137   2.958  50.847  1.00  0.00     0.065 A 
HETATM    7  C15 UNL     1      25.332   2.303  51.155  1.00  0.00    -0.022 A 
HETATM    8  C16 UNL     1      26.513   2.775  50.396  1.00  0.00     0.051 C 
ENDROOT
BRANCH   1   9
HETATM    9  C5  UNL     1      26.565   0.570  52.409  1.00  0.00     0.039 C 
HETATM   10  C4  UNL     1      27.667   0.952  53.026  1.00  0.00     0.073 C 
HETATM   11 CL1  UNL     1      27.994   2.523  53.720  1.00  0.00    -0.081 Cl
BRANCH  10  12
HETATM   12  C3  UNL     1      28.709  -0.049  53.166  1.00  0.00     0.134 C 
HETATM   13  C2  UNL     1      28.429  -1.335  53.195  1.00  0.00     0.013 C 
HETATM   14  C1  UNL     1      29.311  -2.507  53.329  1.00  0.00     0.039 C 
HETATM   15  F1  UNL     1      30.021  -0.344  53.303  1.00  0.00    -0.205 F 
ENDBRANCH  10  12
ENDBRANCH   1   9
BRANCH   6  16
HETATM   16  C11 UNL     1      24.115   4.048  49.888  1.00  0.00     0.056 C 
HETATM   17  C12 UNL     1      23.285   4.033  48.872  1.00  0.00     0.137 C 
BRANCH  17  18
HETATM   18  O1  UNL     1      22.283   3.459  48.118  1.00  0.00    -0.363 OA
BRANCH  18  19
HETATM   19  C13 UNL     1      22.423   2.115  47.684  1.00  0.00     0.170 C 
HETATM   20  C14 UNL     1      21.546   1.219  48.556  1.00  0.00     0.034 C 
ENDBRANCH  18  19
ENDBRANCH  17  18
ENDBRANCH   6  16
TORSDOF 5
ENDMDL
MODEL 9
REMARK VINA RESULT:      -6.8      2.476      2.916
REMARK  5 active torsions:
REMARK  status: ('A' for Active; 'I' for Inactive)
REMARK    1  A    between atoms: C3_3  and  C4_5 
REMARK    2  A    between atoms: C5_7  and  C6_8 
REMARK    3  A    between atoms: C10_13  and  C11_14 
REMARK    4  A    between atoms: C12_15  and  O1_16 
REMARK    5  A    between atoms: O1_16  and  C13_17 
ROOT
HETATM    1  C6  UNL     1      24.823   1.176  52.004  1.00  0.00    -0.019 A 
HETATM    2  C7  UNL     1      24.912   2.380  51.292  1.00  0.00    -0.034 A 
HETATM    3  C8  UNL     1      26.238   2.825  50.770  1.00  0.00     0.050 C 
HETATM    4  C9  UNL     1      23.822   3.194  51.030  1.00  0.00     0.124 A 
HETATM    5  N1  UNL     1      22.635   2.772  51.502  1.00  0.00    -0.260 NA
HETATM    6  C10 UNL     1      22.465   1.636  52.192  1.00  0.00     0.065 A 
HETATM    7  C15 UNL     1      23.564   0.814  52.457  1.00  0.00    -0.022 A 
HETATM    8  C16 UNL     1      23.256  -0.393  53.259  1.00  0.00     0.051 C 
ENDROOT
BRANCH   1   9
HETATM    9  C5  UNL     1      25.981   0.342  52.281  1.00  0.00     0.039 C 
HETATM   10  C4  UNL     1      26.665   0.118  53.386  1.00  0.00     0.073 C 
HETATM   11 CL1  UNL     1      26.344   0.773  54.975  1.00  0.00    -0.081 Cl
BRANCH  10  12
HETATM   12  C3  UNL     1      27.789  -0.795  53.275  1.00  0.00     0.134 C 
HETATM   13  C2  UNL     1      28.982  -0.476  53.727  1.00  0.00     0.013 C 
HETATM   14  C1  UNL     1      30.246  -1.233  53.719  1.00  0.00     0.039 C 
HETATM   15  F1  UNL     1      28.275  -1.991  52.871  1.00  0.00    -0.205 F 
ENDBRANCH  10  12
ENDBRANCH   1   9
BRANCH   6  16
HETATM   16  C11 UNL     1      21.137   1.267  52.644  1.00  0.00     0.056 C 
HETATM   17  C12 UNL     1      20.147   2.127  52.597  1.00  0.00     0.137 C 
BRANCH  17  18
HETATM   18  O1  UNL     1      19.615   3.367  52.312  1.00  0.00    -0.363 OA
BRANCH  18  19
HETATM   19  C13 UNL     1      18.471   3.456  51.476  1.00  0.00     0.170 C 
HETATM   20  C14 UNL     1      18.793   2.819  50.125  1.00  0.00     0.034 C 
ENDBRANCH  18  19
ENDBRANCH  17  18
ENDBRANCH   6  16
TORSDOF 5
ENDMDL
