MODEL 1
REMARK VINA RESULT:      -6.7      0.000      0.000
REMARK  7 active torsions:
REMARK  status: ('A' for Active; 'I' for Inactive)
REMARK    1  A    between atoms: C2_2  and  S1_3 
REMARK    2  A    between atoms: S1_3  and  C3_5 
REMARK    3  A    between atoms: N1_9  and  C7_10 
REMARK    4  A    between atoms: C7_10  and  N2_11 
REMARK    5  A    between atoms: N2_11  and  C8_12 
REMARK    6  A    between atoms: C8_12  and  S2_13 
REMARK    7  A    between atoms: S2_13  and  C9_14 
ROOT
HETATM    1  C3  UNL     1      27.185   0.813  53.508  1.00  0.00     0.120 A 
HETATM    2  C4  UNL     1      26.310   0.145  54.225  1.00  0.00     0.021 A 
HETATM    3  C5  UNL     1      24.858  -0.034  53.985  1.00  0.00     0.090 A 
HETATM    4  C6  UNL     1      24.513   0.696  52.738  1.00  0.00     0.057 A 
HETATM    5  N1  UNL     1      23.251   0.607  52.425  1.00  0.00    -0.244 NA
HETATM    6  C15 UNL     1      25.505   1.423  51.973  1.00  0.00     0.145 A 
HETATM    7  N3  UNL     1      26.740   1.469  52.343  1.00  0.00    -0.250 NA
ENDROOT
BRANCH   5   8
HETATM    8  C7  UNL     1      22.834   1.276  51.247  1.00  0.00     0.244 C 
BRANCH   8   9
HETATM    9  N2  UNL     1      22.521   2.118  50.290  1.00  0.00    -0.192 NA
BRANCH   9  10
HETATM   10  C8  UNL     1      23.320   3.104  49.887  1.00  0.00     0.035 C 
BRANCH  10  11
HETATM   11  S2  UNL     1      24.204   4.154  49.449  1.00  0.00    -0.027 SA
BRANCH  11  12
HETATM   12  C9  UNL     1      25.299   5.409  48.918  1.00  0.00     0.015 A 
HETATM   13  C10 UNL     1      24.747   6.639  48.629  1.00  0.00     0.019 A 
HETATM   14  C11 UNL     1      25.610   7.633  48.209  1.00  0.00     0.003 A 
HETATM   15  C12 UNL     1      26.932   7.254  48.133  1.00  0.00     0.019 A 
HETATM   16  C13 UNL     1      27.511   6.035  48.414  1.00  0.00     0.012 A 
HETATM   17 BR1  UNL     1      29.384   5.747  48.231  1.00  0.00    -0.051 Br
HETATM   18  C14 UNL     1      26.618   5.046  48.837  1.00  0.00     0.038 A 
ENDBRANCH  11  12
ENDBRANCH  10  11
ENDBRANCH   9  10
ENDBRANCH   8   9
ENDBRANCH   5   8
BRANCH   1  19
HETATM   19  S1  UNL     1      28.923   1.014  53.818  1.00  0.00     0.074 S 
HETATM   20  O1  UNL     1      29.189   1.565  55.196  1.00  0.00    -0.251 OA
BRANCH  19  21
HETATM   21  C2  UNL     1      29.719  -0.550  53.678  1.00  0.00     0.103 C 
HETATM   22  C1  UNL     1      29.238  -1.736  53.327  1.00  0.00     0.020 C 
ENDBRANCH  19  21
ENDBRANCH   1  19
TORSDOF 7
ENDMDL
MODEL 2
REMARK VINA RESULT:      -6.6      1.615      2.085
REMARK  7 active torsions:
REMARK  status: ('A' for Active; 'I' for Inactive)
REMARK    1  A    between atoms: C2_2  and  S1_3 
REMARK    2  A    between atoms: S1_3  and  C3_5 
REMARK    3  A    between atoms: N1_9  and  C7_10 
REMARK    4  A    between atoms: C7_10  and  N2_11 
REMARK    5  A    between atoms: N2_11  and  C8_12 
REMARK    6  A    between atoms: C8_12  and  S2_13 
REMARK    7  A    between atoms: S2_13  and  C9_14 
ROOT
HETATM    1  C3  UNL     1      26.247  -0.033  53.794  1.00  0.00     0.120 A 
HETATM    2  C4  UNL     1      25.235  -0.623  54.386  1.00  0.00     0.021 A 
HETATM    3  C5  UNL     1      23.794  -0.561  54.042  1.00  0.00     0.090 A 
HETATM    4  C6  UNL     1      23.652   0.322  52.856  1.00  0.00     0.057 A 
HETATM    5  N1  UNL     1      22.416   0.452  52.460  1.00  0.00    -0.244 NA
HETATM    6  C15 UNL     1      24.792   0.958  52.229  1.00  0.00     0.145 A 
HETATM    7  N3  UNL     1      25.989   0.784  52.675  1.00  0.00    -0.250 NA
ENDROOT
BRANCH   5   8
HETATM    8  C7  UNL     1      22.189   1.279  51.332  1.00  0.00     0.244 C 
BRANCH   8   9
HETATM    9  N2  UNL     1      22.214   1.945  50.201  1.00  0.00    -0.192 NA
BRANCH   9  10
HETATM   10  C8  UNL     1      23.190   2.784  49.861  1.00  0.00     0.035 C 
BRANCH  10  11
HETATM   11  S2  UNL     1      24.257   3.674  49.478  1.00  0.00    -0.027 SA
BRANCH  11  12
HETATM   12  C9  UNL     1      25.565   4.748  49.039  1.00  0.00     0.015 A 
HETATM   13  C10 UNL     1      26.837   4.218  49.045  1.00  0.00     0.019 A 
HETATM   14  C11 UNL     1      27.872   5.065  48.698  1.00  0.00     0.003 A 
HETATM   15  C12 UNL     1      27.487   6.350  48.389  1.00  0.00     0.019 A 
HETATM   16  C13 UNL     1      26.226   6.907  48.375  1.00  0.00     0.012 A 
HETATM   17 BR1  UNL     1      25.938   8.730  47.908  1.00  0.00    -0.051 Br
HETATM   18  C14 UNL     1      25.196   6.031  48.729  1.00  0.00     0.038 A 
ENDBRANCH  11  12
ENDBRANCH  10  11
ENDBRANCH   9  10
ENDBRANCH   8   9
ENDBRANCH   5   8
BRANCH   1  19
HETATM   19  S1  UNL     1      27.969  -0.123  54.227  1.00  0.00     0.074 S 
HETATM   20  O1  UNL     1      28.596  -1.418  53.770  1.00  0.00    -0.251 OA
BRANCH  19  21
HETATM   21  C2  UNL     1      28.827   1.211  53.465  1.00  0.00     0.103 C 
HETATM   22  C1  UNL     1      28.824   2.510  53.741  1.00  0.00     0.020 C 
ENDBRANCH  19  21
ENDBRANCH   1  19
TORSDOF 7
ENDMDL
MODEL 3
REMARK VINA RESULT:      -6.6      5.869      8.507
REMARK  7 active torsions:
REMARK  status: ('A' for Active; 'I' for Inactive)
REMARK    1  A    between atoms: C2_2  and  S1_3 
REMARK    2  A    between atoms: S1_3  and  C3_5 
REMARK    3  A    between atoms: N1_9  and  C7_10 
REMARK    4  A    between atoms: C7_10  and  N2_11 
REMARK    5  A    between atoms: N2_11  and  C8_12 
REMARK    6  A    between atoms: C8_12  and  S2_13 
REMARK    7  A    between atoms: S2_13  and  C9_14 
ROOT
HETATM    1  C3  UNL     1      27.484   1.397  53.135  1.00  0.00     0.120 A 
HETATM    2  C4  UNL     1      27.063   2.039  52.070  1.00  0.00     0.021 A 
HETATM    3  C5  UNL     1      25.681   2.165  51.548  1.00  0.00     0.090 A 
HETATM    4  C6  UNL     1      24.784   1.413  52.463  1.00  0.00     0.057 A 
HETATM    5  N1  UNL     1      23.532   1.455  52.101  1.00  0.00    -0.244 NA
HETATM    6  C15 UNL     1      25.283   0.716  53.630  1.00  0.00     0.145 A 
HETATM    7  N3  UNL     1      26.538   0.717  53.928  1.00  0.00    -0.250 NA
ENDROOT
BRANCH   5   8
HETATM    8  C7  UNL     1      22.605   0.762  52.919  1.00  0.00     0.244 C 
BRANCH   8   9
HETATM    9  N2  UNL     1      21.785   0.326  53.846  1.00  0.00    -0.192 NA
BRANCH   9  10
HETATM   10  C8  UNL     1      20.622  -0.265  53.581  1.00  0.00     0.035 C 
BRANCH  10  11
HETATM   11  S2  UNL     1      19.360  -0.910  53.319  1.00  0.00    -0.027 SA
BRANCH  11  12
HETATM   12  C9  UNL     1      17.826  -1.696  53.031  1.00  0.00     0.015 A 
HETATM   13  C10 UNL     1      16.903  -1.007  52.273  1.00  0.00     0.019 A 
HETATM   14  C11 UNL     1      15.689  -1.626  52.044  1.00  0.00     0.003 A 
HETATM   15  C12 UNL     1      15.561  -2.873  52.615  1.00  0.00     0.019 A 
HETATM   16  C13 UNL     1      16.464  -3.585  53.375  1.00  0.00     0.012 A 
HETATM   17 BR1  UNL     1      16.055  -5.312  54.064  1.00  0.00    -0.051 Br
HETATM   18  C14 UNL     1      17.684  -2.938  53.593  1.00  0.00     0.038 A 
ENDBRANCH  11  12
ENDBRANCH  10  11
ENDBRANCH   9  10
ENDBRANCH   8   9
ENDBRANCH   5   8
BRANCH   1  19
HETATM   19  S1  UNL     1      29.149   1.260  53.740  1.00  0.00     0.074 S 
HETATM   20  O1  UNL     1      29.350   2.042  55.015  1.00  0.00    -0.251 OA
BRANCH  19  21
HETATM   21  C2  UNL     1      29.511  -0.433  54.060  1.00  0.00     0.103 C 
HETATM   22  C1  UNL     1      29.297  -1.515  53.323  1.00  0.00     0.020 C 
ENDBRANCH  19  21
ENDBRANCH   1  19
TORSDOF 7
ENDMDL
MODEL 4
REMARK VINA RESULT:      -6.5      4.614      7.796
REMARK  7 active torsions:
REMARK  status: ('A' for Active; 'I' for Inactive)
REMARK    1  A    between atoms: C2_2  and  S1_3 
REMARK    2  A    between atoms: S1_3  and  C3_5 
REMARK    3  A    between atoms: N1_9  and  C7_10 
REMARK    4  A    between atoms: C7_10  and  N2_11 
REMARK    5  A    between atoms: N2_11  and  C8_12 
REMARK    6  A    between atoms: C8_12  and  S2_13 
REMARK    7  A    between atoms: S2_13  and  C9_14 
ROOT
HETATM    1  C3  UNL     1      25.868   1.935  51.897  1.00  0.00     0.120 A 
HETATM    2  C4  UNL     1      26.894   1.226  52.307  1.00  0.00     0.021 A 
HETATM    3  C5  UNL     1      26.929   0.145  53.322  1.00  0.00     0.090 A 
HETATM    4  C6  UNL     1      25.548  -0.032  53.839  1.00  0.00     0.057 A 
HETATM    5  N1  UNL     1      25.457  -0.965  54.745  1.00  0.00    -0.244 NA
HETATM    6  C15 UNL     1      24.439   0.769  53.363  1.00  0.00     0.145 A 
HETATM    7  N3  UNL     1      24.603   1.678  52.463  1.00  0.00    -0.250 NA
ENDROOT
BRANCH   5   8
HETATM    8  C7  UNL     1      24.172  -1.201  55.294  1.00  0.00     0.244 C 
BRANCH   8   9
HETATM    9  N2  UNL     1      22.967  -1.612  55.615  1.00  0.00    -0.192 NA
BRANCH   9  10
HETATM   10  C8  UNL     1      21.888  -1.381  54.869  1.00  0.00     0.035 C 
BRANCH  10  11
HETATM   11  S2  UNL     1      20.706  -1.130  54.084  1.00  0.00    -0.027 SA
BRANCH  11  12
HETATM   12  C9  UNL     1      19.289  -0.827  53.106  1.00  0.00     0.015 A 
HETATM   13  C10 UNL     1      18.148  -1.529  53.427  1.00  0.00     0.019 A 
HETATM   14  C11 UNL     1      17.026  -1.291  52.655  1.00  0.00     0.003 A 
HETATM   15  C12 UNL     1      17.203  -0.367  51.649  1.00  0.00     0.019 A 
HETATM   16  C13 UNL     1      18.330   0.349  51.307  1.00  0.00     0.012 A 
HETATM   17 BR1  UNL     1      18.332   1.584  49.858  1.00  0.00    -0.051 Br
HETATM   18  C14 UNL     1      19.451   0.091  52.101  1.00  0.00     0.038 A 
ENDBRANCH  11  12
ENDBRANCH  10  11
ENDBRANCH   9  10
ENDBRANCH   8   9
ENDBRANCH   5   8
BRANCH   1  19
HETATM   19  S1  UNL     1      25.852   3.228  50.678  1.00  0.00     0.074 S 
HETATM   20  O1  UNL     1      26.661   2.861  49.458  1.00  0.00    -0.251 OA
BRANCH  19  21
HETATM   21  C2  UNL     1      24.192   3.528  50.176  1.00  0.00     0.103 C 
HETATM   22  C1  UNL     1      23.684   3.778  48.975  1.00  0.00     0.020 C 
ENDBRANCH  19  21
ENDBRANCH   1  19
TORSDOF 7
ENDMDL
MODEL 5
REMARK VINA RESULT:      -6.4      3.981      7.378
REMARK  7 active torsions:
REMARK  status: ('A' for Active; 'I' for Inactive)
REMARK    1  A    between atoms: C2_2  and  S1_3 
REMARK    2  A    between atoms: S1_3  and  C3_5 
REMARK    3  A    between atoms: N1_9  and  C7_10 
REMARK    4  A    between atoms: C7_10  and  N2_11 
REMARK    5  A    between atoms: N2_11  and  C8_12 
REMARK    6  A    between atoms: C8_12  and  S2_13 
REMARK    7  A    between atoms: S2_13  and  C9_14 
ROOT
HETATM    1  C3  UNL     1      29.754   6.082  48.018  1.00  0.00     0.120 A 
HETATM    2  C4  UNL     1      29.179   7.243  47.807  1.00  0.00     0.021 A 
HETATM    3  C5  UNL     1      27.746   7.606  47.934  1.00  0.00     0.090 A 
HETATM    4  C6  UNL     1      27.010   6.390  48.362  1.00  0.00     0.057 A 
HETATM    5  N1  UNL     1      25.730   6.591  48.509  1.00  0.00    -0.244 NA
HETATM    6  C15 UNL     1      27.677   5.124  48.585  1.00  0.00     0.145 A 
HETATM    7  N3  UNL     1      28.950   4.996  48.421  1.00  0.00    -0.250 NA
ENDROOT
BRANCH   5   8
HETATM    8  C7  UNL     1      24.949   5.481  48.916  1.00  0.00     0.244 C 
BRANCH   8   9
HETATM    9  N2  UNL     1      24.079   4.638  49.421  1.00  0.00    -0.192 NA
BRANCH   9  10
HETATM   10  C8  UNL     1      24.412   3.635  50.232  1.00  0.00     0.035 C 
BRANCH  10  11
HETATM   11  S2  UNL     1      24.749   2.538  51.104  1.00  0.00    -0.027 SA
BRANCH  11  12
HETATM   12  C9  UNL     1      25.131   1.198  52.159  1.00  0.00     0.015 A 
HETATM   13  C10 UNL     1      24.074   0.585  52.797  1.00  0.00     0.019 A 
HETATM   14  C11 UNL     1      24.373  -0.475  53.631  1.00  0.00     0.003 A 
HETATM   15  C12 UNL     1      25.712  -0.783  53.715  1.00  0.00     0.019 A 
HETATM   16  C13 UNL     1      26.788  -0.190  53.090  1.00  0.00     0.012 A 
HETATM   17 BR1  UNL     1      28.571  -0.798  53.366  1.00  0.00    -0.051 Br
HETATM   18  C14 UNL     1      26.461   0.880  52.252  1.00  0.00     0.038 A 
ENDBRANCH  11  12
ENDBRANCH  10  11
ENDBRANCH   9  10
ENDBRANCH   8   9
ENDBRANCH   5   8
BRANCH   1  19
HETATM   19  S1  UNL     1      31.475   5.671  47.858  1.00  0.00     0.074 S 
HETATM   20  O1  UNL     1      32.188   5.706  49.187  1.00  0.00    -0.251 OA
BRANCH  19  21
HETATM   21  C2  UNL     1      31.623   4.050  47.187  1.00  0.00     0.103 C 
HETATM   22  C1  UNL     1      32.699   3.317  46.930  1.00  0.00     0.020 C 
ENDBRANCH  19  21
ENDBRANCH   1  19
TORSDOF 7
ENDMDL
MODEL 6
REMARK VINA RESULT:      -6.4      3.845      5.689
REMARK  7 active torsions:
REMARK  status: ('A' for Active; 'I' for Inactive)
REMARK    1  A    between atoms: C2_2  and  S1_3 
REMARK    2  A    between atoms: S1_3  and  C3_5 
REMARK    3  A    between atoms: N1_9  and  C7_10 
REMARK    4  A    between atoms: C7_10  and  N2_11 
REMARK    5  A    between atoms: N2_11  and  C8_12 
REMARK    6  A    between atoms: C8_12  and  S2_13 
REMARK    7  A    between atoms: S2_13  and  C9_14 
ROOT
HETATM    1  C3  UNL     1      21.687  -0.220  53.903  1.00  0.00     0.120 A 
HETATM    2  C4  UNL     1      22.093  -0.924  54.934  1.00  0.00     0.021 A 
HETATM    3  C5  UNL     1      23.476  -1.301  55.314  1.00  0.00     0.090 A 
HETATM    4  C6  UNL     1      24.394  -0.732  54.295  1.00  0.00     0.057 A 
HETATM    5  N1  UNL     1      25.649  -1.001  54.529  1.00  0.00    -0.244 NA
HETATM    6  C15 UNL     1      23.911   0.040  53.169  1.00  0.00     0.145 A 
HETATM    7  N3  UNL     1      22.653   0.268  53.000  1.00  0.00    -0.250 NA
ENDROOT
BRANCH   5   8
HETATM    8  C7  UNL     1      26.595  -0.495  53.604  1.00  0.00     0.244 C 
BRANCH   8   9
HETATM    9  N2  UNL     1      27.420   0.210  52.864  1.00  0.00    -0.192 NA
BRANCH   9  10
HETATM   10  C8  UNL     1      27.039   1.247  52.121  1.00  0.00     0.035 C 
BRANCH  10  11
HETATM   11  S2  UNL     1      26.607   2.355  51.308  1.00  0.00    -0.027 SA
BRANCH  11  12
HETATM   12  C9  UNL     1      26.054   3.694  50.329  1.00  0.00     0.015 A 
HETATM   13  C10 UNL     1      26.979   4.276  49.488  1.00  0.00     0.019 A 
HETATM   14  C11 UNL     1      26.544   5.334  48.713  1.00  0.00     0.003 A 
HETATM   15  C12 UNL     1      25.221   5.672  48.887  1.00  0.00     0.019 A 
HETATM   16  C13 UNL     1      24.276   5.109  49.718  1.00  0.00     0.012 A 
HETATM   17 BR1  UNL     1      22.487   5.756  49.787  1.00  0.00    -0.051 Br
HETATM   18  C14 UNL     1      24.739   4.041  50.492  1.00  0.00     0.038 A 
ENDBRANCH  11  12
ENDBRANCH  10  11
ENDBRANCH   9  10
ENDBRANCH   8   9
ENDBRANCH   5   8
BRANCH   1  19
HETATM   19  S1  UNL     1      20.021   0.219  53.468  1.00  0.00     0.074 S 
HETATM   20  O1  UNL     1      19.940   0.819  52.086  1.00  0.00    -0.251 OA
BRANCH  19  21
HETATM   21  C2  UNL     1      19.014  -1.224  53.509  1.00  0.00     0.103 C 
HETATM   22  C1  UNL     1      17.755  -1.409  53.132  1.00  0.00     0.020 C 
ENDBRANCH  19  21
ENDBRANCH   1  19
TORSDOF 7
ENDMDL
MODEL 7
REMARK VINA RESULT:      -6.3      3.562      4.496
REMARK  7 active torsions:
REMARK  status: ('A' for Active; 'I' for Inactive)
REMARK    1  A    between atoms: C2_2  and  S1_3 
REMARK    2  A    between atoms: S1_3  and  C3_5 
REMARK    3  A    between atoms: N1_9  and  C7_10 
REMARK    4  A    between atoms: C7_10  and  N2_11 
REMARK    5  A    between atoms: N2_11  and  C8_12 
REMARK    6  A    between atoms: C8_12  and  S2_13 
REMARK    7  A    between atoms: S2_13  and  C9_14 
ROOT
HETATM    1  C3  UNL     1      26.899   1.213  53.206  1.00  0.00     0.120 A 
HETATM    2  C4  UNL     1      25.674   0.991  52.789  1.00  0.00     0.021 A 
HETATM    3  C5  UNL     1      24.949   1.620  51.659  1.00  0.00     0.090 A 
HETATM    4  C6  UNL     1      25.868   2.601  51.025  1.00  0.00     0.057 A 
HETATM    5  N1  UNL     1      25.334   3.220  50.010  1.00  0.00    -0.244 NA
HETATM    6  C15 UNL     1      27.214   2.821  51.512  1.00  0.00     0.145 A 
HETATM    7  N3  UNL     1      27.678   2.170  52.524  1.00  0.00    -0.250 NA
ENDROOT
BRANCH   5   8
HETATM    8  C7  UNL     1      26.142   4.176  49.345  1.00  0.00     0.244 C 
BRANCH   8   9
HETATM    9  N2  UNL     1      26.662   5.126  48.604  1.00  0.00    -0.192 NA
BRANCH   9  10
HETATM   10  C8  UNL     1      27.972   5.336  48.489  1.00  0.00     0.035 C 
BRANCH  10  11
HETATM   11  S2  UNL     1      29.394   5.539  48.373  1.00  0.00    -0.027 SA
BRANCH  11  12
HETATM   12  C9  UNL     1      31.123   5.757  48.238  1.00  0.00     0.015 A 
HETATM   13  C10 UNL     1      31.620   7.009  48.531  1.00  0.00     0.019 A 
HETATM   14  C11 UNL     1      32.987   7.183  48.424  1.00  0.00     0.003 A 
HETATM   15  C12 UNL     1      33.682   6.062  48.032  1.00  0.00     0.019 A 
HETATM   16  C13 UNL     1      33.213   4.800  47.733  1.00  0.00     0.012 A 
HETATM   17 BR1  UNL     1      34.383   3.393  47.207  1.00  0.00    -0.051 Br
HETATM   18  C14 UNL     1      31.829   4.649  47.848  1.00  0.00     0.038 A 
ENDBRANCH  11  12
ENDBRANCH  10  11
ENDBRANCH   9  10
ENDBRANCH   8   9
ENDBRANCH   5   8
BRANCH   1  19
HETATM   19  S1  UNL     1      27.746   0.445  54.566  1.00  0.00     0.074 S 
HETATM   20  O1  UNL     1      26.862  -0.534  55.298  1.00  0.00    -0.251 OA
BRANCH  19  21
HETATM   21  C2  UNL     1      29.152  -0.422  53.955  1.00  0.00     0.103 C 
HETATM   22  C1  UNL     1      29.236  -1.550  53.261  1.00  0.00     0.020 C 
ENDBRANCH  19  21
ENDBRANCH   1  19
TORSDOF 7
ENDMDL
MODEL 8
REMARK VINA RESULT:      -6.2      1.920      2.698
REMARK  7 active torsions:
REMARK  status: ('A' for Active; 'I' for Inactive)
REMARK    1  A    between atoms: C2_2  and  S1_3 
REMARK    2  A    between atoms: S1_3  and  C3_5 
REMARK    3  A    between atoms: N1_9  and  C7_10 
REMARK    4  A    between atoms: C7_10  and  N2_11 
REMARK    5  A    between atoms: N2_11  and  C8_12 
REMARK    6  A    between atoms: C8_12  and  S2_13 
REMARK    7  A    between atoms: S2_13  and  C9_14 
ROOT
HETATM    1  C3  UNL     1      25.818   0.927  53.213  1.00  0.00     0.120 A 
HETATM    2  C4  UNL     1      24.628   0.381  53.110  1.00  0.00     0.021 A 
HETATM    3  C5  UNL     1      23.482   0.805  52.270  1.00  0.00     0.090 A 
HETATM    4  C6  UNL     1      23.901   2.012  51.513  1.00  0.00     0.057 A 
HETATM    5  N1  UNL     1      22.966   2.478  50.733  1.00  0.00    -0.244 NA
HETATM    6  C15 UNL     1      25.223   2.588  51.652  1.00  0.00     0.145 A 
HETATM    7  N3  UNL     1      26.101   2.074  52.444  1.00  0.00    -0.250 NA
ENDROOT
BRANCH   5   8
HETATM    8  C7  UNL     1      23.281   3.631  49.972  1.00  0.00     0.244 C 
BRANCH   8   9
HETATM    9  N2  UNL     1      23.552   4.827  49.503  1.00  0.00    -0.192 NA
BRANCH   9  10
HETATM   10  C8  UNL     1      24.784   5.242  49.215  1.00  0.00     0.035 C 
BRANCH  10  11
HETATM   11  S2  UNL     1      26.110   5.695  48.879  1.00  0.00    -0.027 SA
BRANCH  11  12
HETATM   12  C9  UNL     1      27.707   6.269  48.458  1.00  0.00     0.015 A 
HETATM   13  C10 UNL     1      28.696   5.319  48.323  1.00  0.00     0.019 A 
HETATM   14  C11 UNL     1      29.960   5.770  47.990  1.00  0.00     0.003 A 
HETATM   15  C12 UNL     1      30.063   7.135  47.837  1.00  0.00     0.019 A 
HETATM   16  C13 UNL     1      29.093   8.106  47.966  1.00  0.00     0.012 A 
HETATM   17 BR1  UNL     1      29.480   9.951  47.702  1.00  0.00    -0.051 Br
HETATM   18  C14 UNL     1      27.825   7.625  48.303  1.00  0.00     0.038 A 
ENDBRANCH  11  12
ENDBRANCH  10  11
ENDBRANCH   9  10
ENDBRANCH   8   9
ENDBRANCH   5   8
BRANCH   1  19
HETATM   19  S1  UNL     1      27.177   0.399  54.229  1.00  0.00     0.074 S 
HETATM   20  O1  UNL     1      26.713  -0.423  55.406  1.00  0.00    -0.251 OA
BRANCH  19  21
HETATM   21  C2  UNL     1      28.275  -0.581  53.263  1.00  0.00     0.103 C 
HETATM   22  C1  UNL     1      29.422  -1.166  53.586  1.00  0.00     0.020 C 
ENDBRANCH  19  21
ENDBRANCH   1  19
TORSDOF 7
ENDMDL
MODEL 9
REMARK VINA RESULT:      -6.2      2.359      2.944
REMARK  7 active torsions:
REMARK  status: ('A' for Active; 'I' for Inactive)
REMARK    1  A    between atoms: C2_2  and  S1_3 
REMARK    2  A    between atoms: S1_3  and  C3_5 
REMARK    3  A    between atoms: N1_9  and  C7_10 
REMARK    4  A    between atoms: C7_10  and  N2_11 
REMARK    5  A    between atoms: N2_11  and  C8_12 
REMARK    6  A    between atoms: C8_12  and  S2_13 
REMARK    7  A    between atoms: S2_13  and  C9_14 
ROOT
HETATM    1  C3  UNL     1      26.910   0.703  53.612  1.00  0.00     0.120 A 
HETATM    2  C4  UNL     1      26.476  -0.101  54.555  1.00  0.00     0.021 A 
HETATM    3  C5  UNL     1      25.121  -0.677  54.733  1.00  0.00     0.090 A 
HETATM    4  C6  UNL     1      24.273  -0.184  53.618  1.00  0.00     0.057 A 
HETATM    5  N1  UNL     1      23.049  -0.631  53.670  1.00  0.00    -0.244 NA
HETATM    6  C15 UNL     1      24.785   0.703  52.594  1.00  0.00     0.145 A 
HETATM    7  N3  UNL     1      26.010   1.106  52.605  1.00  0.00    -0.250 NA
ENDROOT
BRANCH   5   8
HETATM    8  C7  UNL     1      22.169  -0.209  52.642  1.00  0.00     0.244 C 
BRANCH   8   9
HETATM    9  N2  UNL     1      21.444  -0.036  51.562  1.00  0.00    -0.192 NA
BRANCH   9  10
HETATM   10  C8  UNL     1      21.636   0.958  50.697  1.00  0.00     0.035 C 
BRANCH  10  11
HETATM   11  S2  UNL     1      21.847   2.050  49.781  1.00  0.00    -0.027 SA
BRANCH  11  12
HETATM   12  C9  UNL     1      22.107   3.355  48.647  1.00  0.00     0.015 A 
HETATM   13  C10 UNL     1      21.348   3.343  47.497  1.00  0.00     0.019 A 
HETATM   14  C11 UNL     1      21.551   4.374  46.599  1.00  0.00     0.003 A 
HETATM   15  C12 UNL     1      22.505   5.291  46.980  1.00  0.00     0.019 A 
HETATM   16  C13 UNL     1      23.277   5.328  48.122  1.00  0.00     0.012 A 
HETATM   17 BR1  UNL     1      24.544   6.715  48.432  1.00  0.00    -0.051 Br
HETATM   18  C14 UNL     1      23.053   4.276  49.014  1.00  0.00     0.038 A 
ENDBRANCH  11  12
ENDBRANCH  10  11
ENDBRANCH   9  10
ENDBRANCH   8   9
ENDBRANCH   5   8
BRANCH   1  19
HETATM   19  S1  UNL     1      28.541   1.382  53.422  1.00  0.00     0.074 S 
HETATM   20  O1  UNL     1      28.780   2.543  54.355  1.00  0.00    -0.251 OA
BRANCH  19  21
HETATM   21  C2  UNL     1      29.732   0.132  53.770  1.00  0.00     0.103 C 
HETATM   22  C1  UNL     1      29.780  -1.141  53.401  1.00  0.00     0.020 C 
ENDBRANCH  19  21
ENDBRANCH   1  19
TORSDOF 7
ENDMDL
