MODEL 1
REMARK VINA RESULT:      -8.7      0.000      0.000
REMARK  6 active torsions:
REMARK  status: ('A' for Active; 'I' for Inactive)
REMARK    1  A    between atoms: N1_2  and  C2_3 
REMARK    2  A    between atoms: C2_3  and  C3_4 
REMARK    3  A    between atoms: C3_4  and  C4_5 
REMARK    4  A    between atoms: C4_5  and  C5_6 
REMARK    5  A    between atoms: C8_9  and  C9_10 
REMARK    6  A    between atoms: C15_18  and  N3_19 
ROOT
HETATM    1  C9  UNL     1      25.726   0.656  53.000  1.00  0.00     0.148 A 
HETATM    2  C10 UNL     1      25.796   2.081  53.478  1.00  0.00     0.235 A 
HETATM    3  O1  UNL     1      24.975   3.020  53.553  1.00  0.00    -0.272 OA
HETATM    4  N2  UNL     1      27.130   2.356  53.936  1.00  0.00    -0.326 N 
HETATM    5  C11 UNL     1      27.940   1.195  53.787  1.00  0.00     0.044 A 
HETATM    6  C12 UNL     1      29.262   0.866  54.046  1.00  0.00     0.030 A 
HETATM    7  C13 UNL     1      29.786  -0.385  53.788  1.00  0.00     0.004 A 
HETATM    8  C14 UNL     1      28.956  -1.355  53.246  1.00  0.00     0.029 A 
HETATM    9  C15 UNL     1      27.637  -1.030  52.986  1.00  0.00     0.035 A 
HETATM   10  C16 UNL     1      27.123   0.223  53.247  1.00  0.00     0.012 A 
HETATM   11  H15 UNL     1      27.574   3.212  54.336  1.00  0.00     0.169 HD
ENDROOT
BRANCH   1  12
HETATM   12  C8  UNL     1      24.731  -0.111  53.792  1.00  0.00    -0.038 A 
HETATM   13  C6  UNL     1      23.350  -0.252  53.321  1.00  0.00    -0.052 A 
HETATM   14  C5  UNL     1      22.692  -0.974  54.208  1.00  0.00    -0.070 A 
HETATM   15  C7  UNL     1      22.619   0.229  52.130  1.00  0.00     0.049 C 
HETATM   16  C18 UNL     1      23.585  -1.360  55.324  1.00  0.00     0.062 A 
HETATM   17  C17 UNL     1      24.885  -0.742  54.942  1.00  0.00    -0.014 A 
BRANCH  14  18
HETATM   18  C4  UNL     1      21.275  -1.423  54.245  1.00  0.00     0.037 C 
BRANCH  18  19
HETATM   19  C3  UNL     1      20.300  -0.280  54.303  1.00  0.00     0.034 C 
BRANCH  19  20
HETATM   20  C2  UNL     1      19.205  -0.615  53.288  1.00  0.00     0.269 C 
BRANCH  20  21
HETATM   21  N1  UNL     1      18.445  -1.725  53.849  1.00  0.00     0.079 N 
HETATM   22  C1  UNL     1      17.243  -1.974  53.116  1.00  0.00     0.306 C 
HETATM   23  H4  UNL     1      19.000  -2.584  53.913  1.00  0.00     0.315 HD
ENDBRANCH  20  21
ENDBRANCH  19  20
ENDBRANCH  18  19
ENDBRANCH  14  18
ENDBRANCH   1  12
BRANCH   9  24
HETATM   24  N3  UNL     1      26.920  -2.148  52.427  1.00  0.00    -0.399 N 
HETATM   25  H19 UNL     1      25.898  -2.281  52.213  1.00  0.00     0.156 HD
HETATM   26  H20 UNL     1      27.328  -3.064  52.124  1.00  0.00     0.156 HD
ENDBRANCH   9  24
TORSDOF 6
ENDMDL
MODEL 2
REMARK VINA RESULT:      -8.1      3.532      6.135
REMARK  6 active torsions:
REMARK  status: ('A' for Active; 'I' for Inactive)
REMARK    1  A    between atoms: N1_2  and  C2_3 
REMARK    2  A    between atoms: C2_3  and  C3_4 
REMARK    3  A    between atoms: C3_4  and  C4_5 
REMARK    4  A    between atoms: C4_5  and  C5_6 
REMARK    5  A    between atoms: C8_9  and  C9_10 
REMARK    6  A    between atoms: C15_18  and  N3_19 
ROOT
HETATM    1  C9  UNL     1      26.209   0.976  53.344  1.00  0.00     0.148 A 
HETATM    2  C10 UNL     1      25.400  -0.280  53.165  1.00  0.00     0.235 A 
HETATM    3  O1  UNL     1      24.184  -0.525  53.024  1.00  0.00    -0.272 OA
HETATM    4  N2  UNL     1      26.288  -1.411  53.164  1.00  0.00    -0.326 N 
HETATM    5  C11 UNL     1      27.630  -0.971  53.332  1.00  0.00     0.044 A 
HETATM    6  C12 UNL     1      28.873  -1.581  53.409  1.00  0.00     0.030 A 
HETATM    7  C13 UNL     1      30.045  -0.871  53.582  1.00  0.00     0.004 A 
HETATM    8  C14 UNL     1      29.978   0.510  53.684  1.00  0.00     0.029 A 
HETATM    9  C15 UNL     1      28.739   1.121  53.608  1.00  0.00     0.035 A 
HETATM   10  C16 UNL     1      27.574   0.404  53.435  1.00  0.00     0.012 A 
HETATM   11  H15 UNL     1      26.119  -2.436  53.066  1.00  0.00     0.169 HD
ENDROOT
BRANCH   1  12
HETATM   12  C8  UNL     1      26.034   1.880  52.178  1.00  0.00    -0.038 A 
HETATM   13  C6  UNL     1      25.008   2.925  52.191  1.00  0.00    -0.052 A 
HETATM   14  C5  UNL     1      25.073   3.571  51.043  1.00  0.00    -0.070 A 
HETATM   15  C7  UNL     1      23.992   3.354  53.176  1.00  0.00     0.049 C 
HETATM   16  C18 UNL     1      26.143   3.002  50.192  1.00  0.00     0.062 A 
HETATM   17  C17 UNL     1      26.697   1.908  51.037  1.00  0.00    -0.014 A 
BRANCH  14  18
HETATM   18  C4  UNL     1      24.279   4.712  50.516  1.00  0.00     0.037 C 
BRANCH  18  19
HETATM   19  C3  UNL     1      24.993   5.471  49.432  1.00  0.00     0.034 C 
BRANCH  19  20
HETATM   20  C2  UNL     1      25.503   6.755  50.089  1.00  0.00     0.269 C 
BRANCH  20  21
HETATM   21  N1  UNL     1      26.881   6.927  49.649  1.00  0.00     0.079 N 
HETATM   22  C1  UNL     1      27.174   6.141  48.491  1.00  0.00     0.306 C 
HETATM   23  H4  UNL     1      27.115   7.909  49.472  1.00  0.00     0.315 HD
ENDBRANCH  20  21
ENDBRANCH  19  20
ENDBRANCH  18  19
ENDBRANCH  14  18
ENDBRANCH   1  12
BRANCH   9  24
HETATM   24  N3  UNL     1      28.851   2.553  53.733  1.00  0.00    -0.399 N 
HETATM   25  H19 UNL     1      28.181   3.272  54.109  1.00  0.00     0.156 HD
HETATM   26  H20 UNL     1      29.669   3.143  53.451  1.00  0.00     0.156 HD
ENDBRANCH   9  24
TORSDOF 6
ENDMDL
MODEL 3
REMARK VINA RESULT:      -8.0      2.177      7.266
REMARK  6 active torsions:
REMARK  status: ('A' for Active; 'I' for Inactive)
REMARK    1  A    between atoms: N1_2  and  C2_3 
REMARK    2  A    between atoms: C2_3  and  C3_4 
REMARK    3  A    between atoms: C3_4  and  C4_5 
REMARK    4  A    between atoms: C4_5  and  C5_6 
REMARK    5  A    between atoms: C8_9  and  C9_10 
REMARK    6  A    between atoms: C15_18  and  N3_19 
ROOT
HETATM    1  C9  UNL     1      22.948  -0.585  53.068  1.00  0.00     0.148 A 
HETATM    2  C10 UNL     1      22.740  -0.989  54.503  1.00  0.00     0.235 A 
HETATM    3  O1  UNL     1      23.490  -1.395  55.415  1.00  0.00    -0.272 OA
HETATM    4  N2  UNL     1      21.347  -0.850  54.830  1.00  0.00    -0.326 N 
HETATM    5  C11 UNL     1      20.629  -0.380  53.695  1.00  0.00     0.044 A 
HETATM    6  C12 UNL     1      19.307  -0.068  53.414  1.00  0.00     0.030 A 
HETATM    7  C13 UNL     1      18.891   0.381  52.177  1.00  0.00     0.004 A 
HETATM    8  C14 UNL     1      19.834   0.527  51.170  1.00  0.00     0.029 A 
HETATM    9  C15 UNL     1      21.154   0.217  51.447  1.00  0.00     0.035 A 
HETATM   10  C16 UNL     1      21.559  -0.231  52.687  1.00  0.00     0.012 A 
HETATM   11  H15 UNL     1      20.810  -1.026  55.708  1.00  0.00     0.169 HD
ENDROOT
BRANCH   1  12
HETATM   12  C8  UNL     1      23.886   0.563  52.980  1.00  0.00    -0.038 A 
HETATM   13  C6  UNL     1      25.311   0.344  52.719  1.00  0.00    -0.052 A 
HETATM   14  C5  UNL     1      25.903   1.523  52.693  1.00  0.00    -0.070 A 
HETATM   15  C7  UNL     1      26.141  -0.859  52.498  1.00  0.00     0.049 C 
HETATM   16  C18 UNL     1      24.917   2.601  52.933  1.00  0.00     0.062 A 
HETATM   17  C17 UNL     1      23.640   1.854  53.106  1.00  0.00    -0.014 A 
BRANCH  14  18
HETATM   18  C4  UNL     1      27.324   1.898  52.471  1.00  0.00     0.037 C 
BRANCH  18  19
HETATM   19  C3  UNL     1      28.015   2.343  53.731  1.00  0.00     0.034 C 
BRANCH  19  20
HETATM   20  C2  UNL     1      28.608   1.076  54.351  1.00  0.00     0.269 C 
BRANCH  20  21
HETATM   21  N1  UNL     1      29.736   0.693  53.514  1.00  0.00     0.079 N 
HETATM   22  C1  UNL     1      29.963  -0.718  53.535  1.00  0.00     0.306 C 
HETATM   23  H4  UNL     1      29.631   1.016  52.547  1.00  0.00     0.315 HD
ENDBRANCH  20  21
ENDBRANCH  19  20
ENDBRANCH  18  19
ENDBRANCH  14  18
ENDBRANCH   1  12
BRANCH   9  24
HETATM   24  N3  UNL     1      21.995   0.424  50.296  1.00  0.00    -0.399 N 
HETATM   25  H19 UNL     1      21.802   0.321  49.266  1.00  0.00     0.156 HD
HETATM   26  H20 UNL     1      22.997   0.731  50.300  1.00  0.00     0.156 HD
ENDBRANCH   9  24
TORSDOF 6
ENDMDL
MODEL 4
REMARK VINA RESULT:      -7.7      3.356      4.816
REMARK  6 active torsions:
REMARK  status: ('A' for Active; 'I' for Inactive)
REMARK    1  A    between atoms: N1_2  and  C2_3 
REMARK    2  A    between atoms: C2_3  and  C3_4 
REMARK    3  A    between atoms: C3_4  and  C4_5 
REMARK    4  A    between atoms: C4_5  and  C5_6 
REMARK    5  A    between atoms: C8_9  and  C9_10 
REMARK    6  A    between atoms: C15_18  and  N3_19 
ROOT
HETATM    1  C9  UNL     1      26.192   1.001  53.330  1.00  0.00     0.148 A 
HETATM    2  C10 UNL     1      25.379  -0.255  53.169  1.00  0.00     0.235 A 
HETATM    3  O1  UNL     1      24.162  -0.498  53.032  1.00  0.00    -0.272 OA
HETATM    4  N2  UNL     1      26.263  -1.389  53.184  1.00  0.00    -0.326 N 
HETATM    5  C11 UNL     1      27.607  -0.950  53.346  1.00  0.00     0.044 A 
HETATM    6  C12 UNL     1      28.848  -1.562  53.431  1.00  0.00     0.030 A 
HETATM    7  C13 UNL     1      30.022  -0.853  53.593  1.00  0.00     0.004 A 
HETATM    8  C14 UNL     1      29.959   0.530  53.676  1.00  0.00     0.029 A 
HETATM    9  C15 UNL     1      28.722   1.143  53.592  1.00  0.00     0.035 A 
HETATM   10  C16 UNL     1      27.555   0.426  53.429  1.00  0.00     0.012 A 
HETATM   11  H15 UNL     1      26.091  -2.415  53.101  1.00  0.00     0.169 HD
ENDROOT
BRANCH   1  12
HETATM   12  C8  UNL     1      26.019   1.888  52.151  1.00  0.00    -0.038 A 
HETATM   13  C6  UNL     1      24.962   2.904  52.129  1.00  0.00    -0.052 A 
HETATM   14  C5  UNL     1      25.037   3.540  50.977  1.00  0.00    -0.070 A 
HETATM   15  C7  UNL     1      23.912   3.312  53.086  1.00  0.00     0.049 C 
HETATM   16  C18 UNL     1      26.143   2.994  50.157  1.00  0.00     0.062 A 
HETATM   17  C17 UNL     1      26.708   1.925  51.026  1.00  0.00    -0.014 A 
BRANCH  14  18
HETATM   18  C4  UNL     1      24.223   4.653  50.420  1.00  0.00     0.037 C 
BRANCH  18  19
HETATM   19  C3  UNL     1      23.626   4.326  49.079  1.00  0.00     0.034 C 
BRANCH  19  20
HETATM   20  C2  UNL     1      22.489   3.339  49.359  1.00  0.00     0.269 C 
BRANCH  20  21
HETATM   21  N1  UNL     1      22.555   2.325  48.315  1.00  0.00     0.079 N 
HETATM   22  C1  UNL     1      21.622   1.265  48.541  1.00  0.00     0.306 C 
HETATM   23  H4  UNL     1      22.416   2.719  47.379  1.00  0.00     0.315 HD
ENDBRANCH  20  21
ENDBRANCH  19  20
ENDBRANCH  18  19
ENDBRANCH  14  18
ENDBRANCH   1  12
BRANCH   9  24
HETATM   24  N3  UNL     1      28.837   2.576  53.695  1.00  0.00    -0.399 N 
HETATM   25  H19 UNL     1      28.115   3.320  53.868  1.00  0.00     0.156 HD
HETATM   26  H20 UNL     1      29.716   3.140  53.611  1.00  0.00     0.156 HD
ENDBRANCH   9  24
TORSDOF 6
ENDMDL
MODEL 5
REMARK VINA RESULT:      -7.6      3.754      7.139
REMARK  6 active torsions:
REMARK  status: ('A' for Active; 'I' for Inactive)
REMARK    1  A    between atoms: N1_2  and  C2_3 
REMARK    2  A    between atoms: C2_3  and  C3_4 
REMARK    3  A    between atoms: C3_4  and  C4_5 
REMARK    4  A    between atoms: C4_5  and  C5_6 
REMARK    5  A    between atoms: C8_9  and  C9_10 
REMARK    6  A    between atoms: C15_18  and  N3_19 
ROOT
HETATM    1  C9  UNL     1      23.946   1.105  51.905  1.00  0.00     0.148 A 
HETATM    2  C10 UNL     1      25.286   0.679  52.442  1.00  0.00     0.235 A 
HETATM    3  O1  UNL     1      26.470   0.928  52.135  1.00  0.00    -0.272 OA
HETATM    4  N2  UNL     1      25.082  -0.210  53.553  1.00  0.00    -0.326 N 
HETATM    5  C11 UNL     1      23.688  -0.392  53.776  1.00  0.00     0.044 A 
HETATM    6  C12 UNL     1      22.912  -1.111  54.672  1.00  0.00     0.030 A 
HETATM    7  C13 UNL     1      21.532  -1.095  54.646  1.00  0.00     0.004 A 
HETATM    8  C14 UNL     1      20.893  -0.327  53.683  1.00  0.00     0.029 A 
HETATM    9  C15 UNL     1      21.665   0.392  52.788  1.00  0.00     0.035 A 
HETATM   10  C16 UNL     1      23.044   0.368  52.823  1.00  0.00     0.012 A 
HETATM   11  H15 UNL     1      25.747  -0.711  54.182  1.00  0.00     0.169 HD
ENDROOT
BRANCH   1  12
HETATM   12  C8  UNL     1      23.792   2.580  51.998  1.00  0.00    -0.038 A 
HETATM   13  C6  UNL     1      23.554   3.384  50.796  1.00  0.00    -0.052 A 
HETATM   14  C5  UNL     1      23.458   4.646  51.165  1.00  0.00    -0.070 A 
HETATM   15  C7  UNL     1      23.415   3.064  49.359  1.00  0.00     0.049 C 
HETATM   16  C18 UNL     1      23.624   4.768  52.632  1.00  0.00     0.062 A 
HETATM   17  C17 UNL     1      23.835   3.359  53.063  1.00  0.00    -0.014 A 
BRANCH  14  18
HETATM   18  C4  UNL     1      23.223   5.881  50.372  1.00  0.00     0.037 C 
BRANCH  18  19
HETATM   19  C3  UNL     1      24.056   7.043  50.838  1.00  0.00     0.034 C 
BRANCH  19  20
HETATM   20  C2  UNL     1      25.421   6.873  50.166  1.00  0.00     0.269 C 
BRANCH  20  21
HETATM   21  N1  UNL     1      26.338   7.770  50.856  1.00  0.00     0.079 N 
HETATM   22  C1  UNL     1      26.827   8.800  49.995  1.00  0.00     0.306 C 
HETATM   23  H4  UNL     1      25.920   8.185  51.695  1.00  0.00     0.315 HD
ENDBRANCH  20  21
ENDBRANCH  19  20
ENDBRANCH  18  19
ENDBRANCH  14  18
ENDBRANCH   1  12
BRANCH   9  24
HETATM   24  N3  UNL     1      20.846   1.130  51.861  1.00  0.00    -0.399 N 
HETATM   25  H19 UNL     1      20.649   0.984  50.838  1.00  0.00     0.156 HD
HETATM   26  H20 UNL     1      20.278   1.985  52.072  1.00  0.00     0.156 HD
ENDBRANCH   9  24
TORSDOF 6
ENDMDL
MODEL 6
REMARK VINA RESULT:      -7.5      4.233      7.419
REMARK  6 active torsions:
REMARK  status: ('A' for Active; 'I' for Inactive)
REMARK    1  A    between atoms: N1_2  and  C2_3 
REMARK    2  A    between atoms: C2_3  and  C3_4 
REMARK    3  A    between atoms: C3_4  and  C4_5 
REMARK    4  A    between atoms: C4_5  and  C5_6 
REMARK    5  A    between atoms: C8_9  and  C9_10 
REMARK    6  A    between atoms: C15_18  and  N3_19 
ROOT
HETATM    1  C9  UNL     1      24.223   2.791  52.465  1.00  0.00     0.148 A 
HETATM    2  C10 UNL     1      22.938   2.158  52.006  1.00  0.00     0.235 A 
HETATM    3  O1  UNL     1      21.949   2.558  51.357  1.00  0.00    -0.272 OA
HETATM    4  N2  UNL     1      22.907   0.790  52.446  1.00  0.00    -0.326 N 
HETATM    5  C11 UNL     1      24.097   0.488  53.167  1.00  0.00     0.044 A 
HETATM    6  C12 UNL     1      24.613  -0.627  53.810  1.00  0.00     0.030 A 
HETATM    7  C13 UNL     1      25.838  -0.622  54.447  1.00  0.00     0.004 A 
HETATM    8  C14 UNL     1      26.584   0.547  54.447  1.00  0.00     0.029 A 
HETATM    9  C15 UNL     1      26.071   1.661  53.807  1.00  0.00     0.035 A 
HETATM   10  C16 UNL     1      24.847   1.646  53.173  1.00  0.00     0.012 A 
HETATM   11  H15 UNL     1      22.201   0.030  52.331  1.00  0.00     0.169 HD
ENDROOT
BRANCH   1  12
HETATM   12  C8  UNL     1      25.019   3.258  51.301  1.00  0.00    -0.038 A 
HETATM   13  C6  UNL     1      24.724   4.544  50.663  1.00  0.00    -0.052 A 
HETATM   14  C5  UNL     1      25.574   4.706  49.667  1.00  0.00    -0.070 A 
HETATM   15  C7  UNL     1      23.726   5.607  50.910  1.00  0.00     0.049 C 
HETATM   16  C18 UNL     1      26.488   3.545  49.576  1.00  0.00     0.062 A 
HETATM   17  C17 UNL     1      26.030   2.670  50.691  1.00  0.00    -0.014 A 
BRANCH  14  18
HETATM   18  C4  UNL     1      25.733   5.814  48.689  1.00  0.00     0.037 C 
BRANCH  18  19
HETATM   19  C3  UNL     1      26.833   6.769  49.061  1.00  0.00     0.034 C 
BRANCH  19  20
HETATM   20  C2  UNL     1      26.137   7.982  49.684  1.00  0.00     0.269 C 
BRANCH  20  21
HETATM   21  N1  UNL     1      27.112   8.612  50.564  1.00  0.00     0.079 N 
HETATM   22  C1  UNL     1      28.079   9.371  49.835  1.00  0.00     0.306 C 
HETATM   23  H4  UNL     1      26.670   9.201  51.277  1.00  0.00     0.315 HD
ENDBRANCH  20  21
ENDBRANCH  19  20
ENDBRANCH  18  19
ENDBRANCH  14  18
ENDBRANCH   1  12
BRANCH   9  24
HETATM   24  N3  UNL     1      26.971   2.783  53.903  1.00  0.00    -0.399 N 
HETATM   25  H19 UNL     1      26.970   3.622  54.538  1.00  0.00     0.156 HD
HETATM   26  H20 UNL     1      27.824   2.952  53.319  1.00  0.00     0.156 HD
ENDBRANCH   9  24
TORSDOF 6
ENDMDL
MODEL 7
REMARK VINA RESULT:      -7.2      3.609      6.303
REMARK  6 active torsions:
REMARK  status: ('A' for Active; 'I' for Inactive)
REMARK    1  A    between atoms: N1_2  and  C2_3 
REMARK    2  A    between atoms: C2_3  and  C3_4 
REMARK    3  A    between atoms: C3_4  and  C4_5 
REMARK    4  A    between atoms: C4_5  and  C5_6 
REMARK    5  A    between atoms: C8_9  and  C9_10 
REMARK    6  A    between atoms: C15_18  and  N3_19 
ROOT
HETATM    1  C9  UNL     1      23.817   1.691  52.977  1.00  0.00     0.148 A 
HETATM    2  C10 UNL     1      22.782   0.627  53.225  1.00  0.00     0.235 A 
HETATM    3  O1  UNL     1      21.539   0.626  53.341  1.00  0.00    -0.272 OA
HETATM    4  N2  UNL     1      23.440  -0.645  53.344  1.00  0.00    -0.326 N 
HETATM    5  C11 UNL     1      24.845  -0.478  53.190  1.00  0.00     0.044 A 
HETATM    6  C12 UNL     1      25.952  -1.313  53.206  1.00  0.00     0.030 A 
HETATM    7  C13 UNL     1      27.240  -0.851  53.021  1.00  0.00     0.004 A 
HETATM    8  C14 UNL     1      27.437   0.505  52.809  1.00  0.00     0.029 A 
HETATM    9  C15 UNL     1      26.334   1.341  52.793  1.00  0.00     0.035 A 
HETATM   10  C16 UNL     1      25.051   0.869  52.979  1.00  0.00     0.012 A 
HETATM   11  H15 UNL     1      23.079  -1.610  53.515  1.00  0.00     0.169 HD
ENDROOT
BRANCH   1  12
HETATM   12  C8  UNL     1      23.570   2.366  51.676  1.00  0.00    -0.038 A 
HETATM   13  C6  UNL     1      23.518   3.828  51.591  1.00  0.00    -0.052 A 
HETATM   14  C5  UNL     1      23.287   4.152  50.334  1.00  0.00    -0.070 A 
HETATM   15  C7  UNL     1      23.664   4.919  52.579  1.00  0.00     0.049 C 
HETATM   16  C18 UNL     1      23.171   2.934  49.500  1.00  0.00     0.062 A 
HETATM   17  C17 UNL     1      23.373   1.834  50.484  1.00  0.00    -0.014 A 
BRANCH  14  18
HETATM   18  C4  UNL     1      23.137   5.478  49.678  1.00  0.00     0.037 C 
BRANCH  18  19
HETATM   19  C3  UNL     1      24.350   5.880  48.887  1.00  0.00     0.034 C 
BRANCH  19  20
HETATM   20  C2  UNL     1      25.178   6.770  49.817  1.00  0.00     0.269 C 
BRANCH  20  21
HETATM   21  N1  UNL     1      26.556   6.306  49.716  1.00  0.00     0.079 N 
HETATM   22  C1  UNL     1      26.661   5.109  48.942  1.00  0.00     0.306 C 
HETATM   23  H4  UNL     1      27.182   7.024  49.336  1.00  0.00     0.315 HD
ENDBRANCH  20  21
ENDBRANCH  19  20
ENDBRANCH  18  19
ENDBRANCH  14  18
ENDBRANCH   1  12
BRANCH   9  24
HETATM   24  N3  UNL     1      26.716   2.711  52.563  1.00  0.00    -0.399 N 
HETATM   25  H19 UNL     1      26.553   3.582  53.130  1.00  0.00     0.156 HD
HETATM   26  H20 UNL     1      27.252   3.081  51.743  1.00  0.00     0.156 HD
ENDBRANCH   9  24
TORSDOF 6
ENDMDL
MODEL 8
REMARK VINA RESULT:      -7.0      4.535      6.428
REMARK  6 active torsions:
REMARK  status: ('A' for Active; 'I' for Inactive)
REMARK    1  A    between atoms: N1_2  and  C2_3 
REMARK    2  A    between atoms: C2_3  and  C3_4 
REMARK    3  A    between atoms: C3_4  and  C4_5 
REMARK    4  A    between atoms: C4_5  and  C5_6 
REMARK    5  A    between atoms: C8_9  and  C9_10 
REMARK    6  A    between atoms: C15_18  and  N3_19 
ROOT
HETATM    1  C9  UNL     1      25.072   4.176  50.500  1.00  0.00     0.148 A 
HETATM    2  C10 UNL     1      26.324   4.008  49.681  1.00  0.00     0.235 A 
HETATM    3  O1  UNL     1      27.025   3.031  49.346  1.00  0.00    -0.272 OA
HETATM    4  N2  UNL     1      26.752   5.298  49.213  1.00  0.00    -0.326 N 
HETATM    5  C11 UNL     1      25.855   6.301  49.676  1.00  0.00     0.044 A 
HETATM    6  C12 UNL     1      25.755   7.679  49.551  1.00  0.00     0.030 A 
HETATM    7  C13 UNL     1      24.739   8.411  50.132  1.00  0.00     0.004 A 
HETATM    8  C14 UNL     1      23.777   7.742  50.874  1.00  0.00     0.029 A 
HETATM    9  C15 UNL     1      23.874   6.368  51.000  1.00  0.00     0.035 A 
HETATM   10  C16 UNL     1      24.893   5.645  50.415  1.00  0.00     0.012 A 
HETATM   11  H15 UNL     1      27.560   5.599  48.626  1.00  0.00     0.169 HD
ENDROOT
BRANCH   1  12
HETATM   12  C8  UNL     1      23.948   3.417  49.894  1.00  0.00    -0.038 A 
HETATM   13  C6  UNL     1      23.352   2.277  50.597  1.00  0.00    -0.052 A 
HETATM   14  C5  UNL     1      22.385   1.795  49.840  1.00  0.00    -0.070 A 
HETATM   15  C7  UNL     1      23.615   1.621  51.895  1.00  0.00     0.049 C 
HETATM   16  C18 UNL     1      22.273   2.578  48.588  1.00  0.00     0.062 A 
HETATM   17  C17 UNL     1      23.340   3.605  48.737  1.00  0.00    -0.014 A 
BRANCH  14  18
HETATM   18  C4  UNL     1      21.455   0.655  50.050  1.00  0.00     0.037 C 
BRANCH  18  19
HETATM   19  C3  UNL     1      20.165   1.064  50.703  1.00  0.00     0.034 C 
BRANCH  19  20
HETATM   20  C2  UNL     1      20.037   0.193  51.956  1.00  0.00     0.269 C 
BRANCH  20  21
HETATM   21  N1  UNL     1      20.307   1.062  53.094  1.00  0.00     0.079 N 
HETATM   22  C1  UNL     1      20.725   0.322  54.243  1.00  0.00     0.306 C 
HETATM   23  H4  UNL     1      20.996   1.789  52.875  1.00  0.00     0.315 HD
ENDBRANCH  20  21
ENDBRANCH  19  20
ENDBRANCH  18  19
ENDBRANCH  14  18
ENDBRANCH   1  12
BRANCH   9  24
HETATM   24  N3  UNL     1      22.799   5.836  51.799  1.00  0.00    -0.399 N 
HETATM   25  H19 UNL     1      22.373   6.169  52.702  1.00  0.00     0.156 HD
HETATM   26  H20 UNL     1      22.232   4.979  51.594  1.00  0.00     0.156 HD
ENDBRANCH   9  24
TORSDOF 6
ENDMDL
MODEL 9
REMARK VINA RESULT:      -6.8      4.297      6.716
REMARK  6 active torsions:
REMARK  status: ('A' for Active; 'I' for Inactive)
REMARK    1  A    between atoms: N1_2  and  C2_3 
REMARK    2  A    between atoms: C2_3  and  C3_4 
REMARK    3  A    between atoms: C3_4  and  C4_5 
REMARK    4  A    between atoms: C4_5  and  C5_6 
REMARK    5  A    between atoms: C8_9  and  C9_10 
REMARK    6  A    between atoms: C15_18  and  N3_19 
ROOT
HETATM    1  C9  UNL     1      23.015   4.499  50.644  1.00  0.00     0.148 A 
HETATM    2  C10 UNL     1      21.706   5.104  51.074  1.00  0.00     0.235 A 
HETATM    3  O1  UNL     1      20.579   4.644  51.353  1.00  0.00    -0.272 OA
HETATM    4  N2  UNL     1      21.859   6.531  51.164  1.00  0.00    -0.326 N 
HETATM    5  C11 UNL     1      23.190   6.897  50.818  1.00  0.00     0.044 A 
HETATM    6  C12 UNL     1      23.901   8.083  50.725  1.00  0.00     0.030 A 
HETATM    7  C13 UNL     1      25.230   8.131  50.350  1.00  0.00     0.004 A 
HETATM    8  C14 UNL     1      25.881   6.943  50.053  1.00  0.00     0.029 A 
HETATM    9  C15 UNL     1      25.173   5.758  50.145  1.00  0.00     0.035 A 
HETATM   10  C16 UNL     1      23.847   5.720  50.521  1.00  0.00     0.012 A 
HETATM   11  H15 UNL     1      21.195   7.293  51.425  1.00  0.00     0.169 HD
ENDROOT
BRANCH   1  12
HETATM   12  C8  UNL     1      23.517   3.556  51.677  1.00  0.00    -0.038 A 
HETATM   13  C6  UNL     1      23.196   2.128  51.603  1.00  0.00    -0.052 A 
HETATM   14  C5  UNL     1      23.763   1.532  52.634  1.00  0.00    -0.070 A 
HETATM   15  C7  UNL     1      22.414   1.299  50.660  1.00  0.00     0.049 C 
HETATM   16  C18 UNL     1      24.497   2.518  53.460  1.00  0.00     0.062 A 
HETATM   17  C17 UNL     1      24.265   3.799  52.737  1.00  0.00    -0.014 A 
BRANCH  14  18
HETATM   18  C4  UNL     1      23.770   0.107  53.057  1.00  0.00     0.037 C 
BRANCH  18  19
HETATM   19  C3  UNL     1      25.156  -0.468  53.154  1.00  0.00     0.034 C 
BRANCH  19  20
HETATM   20  C2  UNL     1      25.371  -0.787  54.636  1.00  0.00     0.269 C 
BRANCH  20  21
HETATM   21  N1  UNL     1      26.724  -0.356  54.960  1.00  0.00     0.079 N 
HETATM   22  C1  UNL     1      27.466  -0.001  53.791  1.00  0.00     0.306 C 
HETATM   23  H4  UNL     1      26.737   0.420  55.630  1.00  0.00     0.315 HD
ENDBRANCH  20  21
ENDBRANCH  19  20
ENDBRANCH  18  19
ENDBRANCH  14  18
ENDBRANCH   1  12
BRANCH   9  24
HETATM   24  N3  UNL     1      25.997   4.626  49.804  1.00  0.00    -0.399 N 
HETATM   25  H19 UNL     1      26.300   3.791  50.369  1.00  0.00     0.156 HD
HETATM   26  H20 UNL     1      26.454   4.441  48.880  1.00  0.00     0.156 HD
ENDBRANCH   9  24
TORSDOF 6
ENDMDL
