MODEL 1
REMARK VINA RESULT:      -9.0      0.000      0.000
REMARK  3 active torsions:
REMARK  status: ('A' for Active; 'I' for Inactive)
REMARK    1  A    between atoms: N3_10  and  C8_11 
REMARK    2  A    between atoms: C12_15  and  N4_16 
REMARK       I    between atoms: N4_16  and  C13_17 
REMARK    3  A    between atoms: C13_17  and  C14_19 
ROOT
HETATM    1  C8  UNL     1      25.885   0.891  52.339  1.00  0.00     0.154 A 
HETATM    2  C9  UNL     1      26.699   0.035  53.300  1.00  0.00     0.001 A 
HETATM    3  C10 UNL     1      27.868   0.589  53.594  1.00  0.00     0.000 A 
HETATM    4  C11 UNL     1      27.946   1.864  52.859  1.00  0.00     0.027 A 
HETATM    5  C12 UNL     1      26.831   2.015  52.162  1.00  0.00     0.035 A 
ENDROOT
BRANCH   1   6
HETATM    6  N3  UNL     1      24.729   1.314  53.064  1.00  0.00    -0.194 NA
HETATM    7  C7  UNL     1      24.693   2.731  53.379  1.00  0.00     0.263 C 
HETATM    8  N2  UNL     1      23.913   3.519  52.439  1.00  0.00    -0.280 NA
HETATM    9  C6  UNL     1      22.881   3.065  51.837  1.00  0.00     0.031 C 
HETATM   10  C5  UNL     1      21.501   3.512  51.766  1.00  0.00     0.084 C 
HETATM   11  C20 UNL     1      23.437   1.786  51.205  1.00  0.00     0.199 C 
HETATM   12  C4  UNL     1      20.523   2.505  52.259  1.00  0.00    -0.002 C 
HETATM   13  C3  UNL     1      20.322   1.283  52.794  1.00  0.00     0.115 C 
HETATM   14  N1  UNL     1      21.271   0.188  52.882  1.00  0.00    -0.247 NA
HETATM   15  C2  UNL     1      22.561   0.176  53.129  1.00  0.00     0.112 C 
HETATM   16  C1  UNL     1      23.346  -0.623  54.101  1.00  0.00     0.092 C 
HETATM   17  N5  UNL     1      23.505   1.010  52.480  1.00  0.00    -0.290 N 
ENDBRANCH   1   6
BRANCH   5  18
HETATM   18  N4  UNL     1      26.781   3.202  51.394  1.00  0.00    -0.325 N 
HETATM   19  C13 UNL     1      26.625   3.363  50.017  1.00  0.00     0.256 C 
HETATM   20  O1  UNL     1      26.504   2.342  49.289  1.00  0.00    -0.267 OA
HETATM   21  H14 UNL     1      26.857   4.132  51.852  1.00  0.00     0.169 HD
BRANCH  19  22
HETATM   22  C14 UNL     1      26.585   4.642  49.322  1.00  0.00     0.032 A 
HETATM   23  C15 UNL     1      25.458   5.417  49.164  1.00  0.00     0.017 A 
HETATM   24  C16 UNL     1      25.416   6.629  48.507  1.00  0.00     0.001 A 
HETATM   25  C17 UNL     1      26.578   7.127  47.956  1.00  0.00     0.000 A 
HETATM   26  C18 UNL     1      27.733   6.384  48.088  1.00  0.00     0.001 A 
HETATM   27  C19 UNL     1      27.713   5.188  48.752  1.00  0.00     0.017 A 
ENDBRANCH  19  22
ENDBRANCH   5  18
TORSDOF 3
ENDMDL
MODEL 2
REMARK VINA RESULT:      -8.8      1.886      4.260
REMARK  3 active torsions:
REMARK  status: ('A' for Active; 'I' for Inactive)
REMARK    1  A    between atoms: N3_10  and  C8_11 
REMARK    2  A    between atoms: C12_15  and  N4_16 
REMARK       I    between atoms: N4_16  and  C13_17 
REMARK    3  A    between atoms: C13_17  and  C14_19 
ROOT
HETATM    1  C8  UNL     1      24.013   2.036  52.006  1.00  0.00     0.154 A 
HETATM    2  C9  UNL     1      22.800   1.116  52.007  1.00  0.00     0.001 A 
HETATM    3  C10 UNL     1      22.150   1.146  50.851  1.00  0.00     0.000 A 
HETATM    4  C11 UNL     1      22.864   2.086  49.970  1.00  0.00     0.027 A 
HETATM    5  C12 UNL     1      23.902   2.575  50.633  1.00  0.00     0.035 A 
ENDROOT
BRANCH   1   6
HETATM    6  N3  UNL     1      25.156   1.187  52.123  1.00  0.00    -0.194 NA
HETATM    7  C7  UNL     1      26.219   1.462  51.172  1.00  0.00     0.263 C 
HETATM    8  N2  UNL     1      27.275   2.306  51.705  1.00  0.00    -0.280 NA
HETATM    9  C6  UNL     1      27.630   2.287  52.933  1.00  0.00     0.031 C 
HETATM   10  C5  UNL     1      28.903   2.050  53.591  1.00  0.00     0.084 C 
HETATM   11  C20 UNL     1      26.290   2.515  53.638  1.00  0.00     0.199 C 
HETATM   12  C4  UNL     1      28.880   0.899  54.532  1.00  0.00    -0.002 C 
HETATM   13  C3  UNL     1      28.168  -0.107  55.082  1.00  0.00     0.115 C 
HETATM   14  N1  UNL     1      26.727  -0.286  55.059  1.00  0.00    -0.247 NA
HETATM   15  C2  UNL     1      25.840  -0.060  54.118  1.00  0.00     0.112 C 
HETATM   16  C1  UNL     1      24.773  -0.933  53.571  1.00  0.00     0.092 C 
HETATM   17  N5  UNL     1      25.753   1.146  53.377  1.00  0.00    -0.290 N 
ENDBRANCH   1   6
BRANCH   5  18
HETATM   18  N4  UNL     1      24.673   3.508  49.900  1.00  0.00    -0.325 N 
HETATM   19  C13 UNL     1      24.768   4.892  50.048  1.00  0.00     0.256 C 
HETATM   20  O1  UNL     1      24.096   5.461  50.949  1.00  0.00    -0.267 OA
HETATM   21  H14 UNL     1      25.290   3.192  49.125  1.00  0.00     0.169 HD
BRANCH  19  22
HETATM   22  C14 UNL     1      25.600   5.767  49.234  1.00  0.00     0.032 A 
HETATM   23  C15 UNL     1      25.207   6.990  48.739  1.00  0.00     0.017 A 
HETATM   24  C16 UNL     1      25.991   7.822  47.969  1.00  0.00     0.001 A 
HETATM   25  C17 UNL     1      27.274   7.423  47.655  1.00  0.00     0.000 A 
HETATM   26  C18 UNL     1      27.713   6.205  48.130  1.00  0.00     0.001 A 
HETATM   27  C19 UNL     1      26.888   5.422  48.890  1.00  0.00     0.017 A 
ENDBRANCH  19  22
ENDBRANCH   5  18
TORSDOF 3
ENDMDL
MODEL 3
REMARK VINA RESULT:      -8.4      2.062      6.240
REMARK  3 active torsions:
REMARK  status: ('A' for Active; 'I' for Inactive)
REMARK    1  A    between atoms: N3_10  and  C8_11 
REMARK    2  A    between atoms: C12_15  and  N4_16 
REMARK       I    between atoms: N4_16  and  C13_17 
REMARK    3  A    between atoms: C13_17  and  C14_19 
ROOT
HETATM    1  C8  UNL     1      23.848   2.302  50.897  1.00  0.00     0.154 A 
HETATM    2  C9  UNL     1      22.425   2.639  51.321  1.00  0.00     0.001 A 
HETATM    3  C10 UNL     1      22.008   1.875  52.322  1.00  0.00     0.000 A 
HETATM    4  C11 UNL     1      23.110   0.957  52.661  1.00  0.00     0.027 A 
HETATM    5  C12 UNL     1      24.129   1.209  51.853  1.00  0.00     0.035 A 
ENDROOT
BRANCH   1   6
HETATM    6  N3  UNL     1      24.637   3.454  51.202  1.00  0.00    -0.194 NA
HETATM    7  C7  UNL     1      26.038   3.346  50.835  1.00  0.00     0.263 C 
HETATM    8  N2  UNL     1      26.354   3.949  49.551  1.00  0.00    -0.280 NA
HETATM    9  C6  UNL     1      25.746   4.978  49.096  1.00  0.00     0.031 C 
HETATM   10  C5  UNL     1      26.204   6.285  48.658  1.00  0.00     0.084 C 
HETATM   11  C20 UNL     1      24.284   4.529  49.186  1.00  0.00     0.199 C 
HETATM   12  C4  UNL     1      25.610   7.411  49.427  1.00  0.00    -0.002 C 
HETATM   13  C3  UNL     1      24.791   7.798  50.427  1.00  0.00     0.115 C 
HETATM   14  N1  UNL     1      23.797   6.996  51.118  1.00  0.00    -0.247 NA
HETATM   15  C2  UNL     1      23.812   5.741  51.503  1.00  0.00     0.112 C 
HETATM   16  C1  UNL     1      23.501   5.135  52.820  1.00  0.00     0.092 C 
HETATM   17  N5  UNL     1      24.184   4.655  50.670  1.00  0.00    -0.290 N 
ENDBRANCH   1   6
BRANCH   5  18
HETATM   18  N4  UNL     1      25.257   0.382  52.065  1.00  0.00    -0.325 N 
HETATM   19  C13 UNL     1      26.301   0.523  52.979  1.00  0.00     0.256 C 
HETATM   20  O1  UNL     1      26.303   1.509  53.763  1.00  0.00    -0.267 OA
HETATM   21  H14 UNL     1      25.395  -0.480  51.500  1.00  0.00     0.169 HD
BRANCH  19  22
HETATM   22  C14 UNL     1      27.424  -0.394  53.116  1.00  0.00     0.032 A 
HETATM   23  C15 UNL     1      27.386  -1.737  52.812  1.00  0.00     0.017 A 
HETATM   24  C16 UNL     1      28.446  -2.609  52.940  1.00  0.00     0.001 A 
HETATM   25  C17 UNL     1      29.651  -2.125  53.406  1.00  0.00     0.000 A 
HETATM   26  C18 UNL     1      29.738  -0.786  53.724  1.00  0.00     0.001 A 
HETATM   27  C19 UNL     1      28.650   0.031  53.576  1.00  0.00     0.017 A 
ENDBRANCH  19  22
ENDBRANCH   5  18
TORSDOF 3
ENDMDL
MODEL 4
REMARK VINA RESULT:      -8.3      5.141      9.871
REMARK  3 active torsions:
REMARK  status: ('A' for Active; 'I' for Inactive)
REMARK    1  A    between atoms: N3_10  and  C8_11 
REMARK    2  A    between atoms: C12_15  and  N4_16 
REMARK       I    between atoms: N4_16  and  C13_17 
REMARK    3  A    between atoms: C13_17  and  C14_19 
ROOT
HETATM    1  C8  UNL     1      30.891   8.498  47.814  1.00  0.00     0.154 A 
HETATM    2  C9  UNL     1      31.329   9.921  48.134  1.00  0.00     0.001 A 
HETATM    3  C10 UNL     1      30.586  10.469  49.087  1.00  0.00     0.000 A 
HETATM    4  C11 UNL     1      29.584   9.468  49.492  1.00  0.00     0.027 A 
HETATM    5  C12 UNL     1      29.768   8.374  48.769  1.00  0.00     0.035 A 
ENDROOT
BRANCH   1   6
HETATM    6  N3  UNL     1      31.976   7.652  48.198  1.00  0.00    -0.194 NA
HETATM    7  C7  UNL     1      31.702   6.788  49.332  1.00  0.00     0.263 C 
HETATM    8  N2  UNL     1      31.296   5.443  48.957  1.00  0.00    -0.280 NA
HETATM    9  C6  UNL     1      31.727   4.852  47.909  1.00  0.00     0.031 C 
HETATM   10  C5  UNL     1      32.415   3.591  47.697  1.00  0.00     0.084 C 
HETATM   11  C20 UNL     1      31.402   5.883  46.825  1.00  0.00     0.199 C 
HETATM   12  C4  UNL     1      33.743   3.741  47.043  1.00  0.00    -0.002 C 
HETATM   13  C3  UNL     1      34.671   4.577  46.533  1.00  0.00     0.115 C 
HETATM   14  N1  UNL     1      34.506   5.977  46.186  1.00  0.00    -0.247 NA
HETATM   15  C2  UNL     1      33.838   6.943  46.774  1.00  0.00     0.112 C 
HETATM   16  C1  UNL     1      34.265   8.308  47.165  1.00  0.00     0.092 C 
HETATM   17  N5  UNL     1      32.490   6.836  47.198  1.00  0.00    -0.290 N 
ENDBRANCH   1   6
BRANCH   5  18
HETATM   18  N4  UNL     1      28.856   7.330  49.052  1.00  0.00    -0.325 N 
HETATM   19  C13 UNL     1      27.738   6.909  48.333  1.00  0.00     0.256 C 
HETATM   20  O1  UNL     1      27.436   7.502  47.263  1.00  0.00    -0.267 OA
HETATM   21  H14 UNL     1      28.975   6.738  49.899  1.00  0.00     0.169 HD
BRANCH  19  22
HETATM   22  C14 UNL     1      26.859   5.812  48.715  1.00  0.00     0.032 A 
HETATM   23  C15 UNL     1      25.488   5.900  48.814  1.00  0.00     0.017 A 
HETATM   24  C16 UNL     1      24.652   4.864  49.174  1.00  0.00     0.001 A 
HETATM   25  C17 UNL     1      25.206   3.634  49.462  1.00  0.00     0.000 A 
HETATM   26  C18 UNL     1      26.576   3.497  49.376  1.00  0.00     0.001 A 
HETATM   27  C19 UNL     1      27.354   4.563  49.013  1.00  0.00     0.017 A 
ENDBRANCH  19  22
ENDBRANCH   5  18
TORSDOF 3
ENDMDL
MODEL 5
REMARK VINA RESULT:      -8.3      2.376      5.384
REMARK  3 active torsions:
REMARK  status: ('A' for Active; 'I' for Inactive)
REMARK    1  A    between atoms: N3_10  and  C8_11 
REMARK    2  A    between atoms: C12_15  and  N4_16 
REMARK       I    between atoms: N4_16  and  C13_17 
REMARK    3  A    between atoms: C13_17  and  C14_19 
ROOT
HETATM    1  C8  UNL     1      22.624   0.074  52.681  1.00  0.00     0.154 A 
HETATM    2  C9  UNL     1      21.353  -0.472  53.316  1.00  0.00     0.001 A 
HETATM    3  C10 UNL     1      21.587  -1.041  54.492  1.00  0.00     0.000 A 
HETATM    4  C11 UNL     1      23.033  -0.930  54.752  1.00  0.00     0.027 A 
HETATM    5  C12 UNL     1      23.597  -0.306  53.729  1.00  0.00     0.035 A 
ENDROOT
BRANCH   1   6
HETATM    6  N3  UNL     1      22.465   1.493  52.631  1.00  0.00    -0.194 NA
HETATM    7  C7  UNL     1      23.646   2.252  53.004  1.00  0.00     0.263 C 
HETATM    8  N2  UNL     1      24.441   2.690  51.869  1.00  0.00    -0.280 NA
HETATM    9  C6  UNL     1      23.932   2.991  50.736  1.00  0.00     0.031 C 
HETATM   10  C5  UNL     1      23.982   4.189  49.916  1.00  0.00     0.084 C 
HETATM   11  C20 UNL     1      23.118   1.732  50.426  1.00  0.00     0.199 C 
HETATM   12  C4  UNL     1      22.643   4.778  49.642  1.00  0.00    -0.002 C 
HETATM   13  C3  UNL     1      21.309   4.709  49.834  1.00  0.00     0.115 C 
HETATM   14  N1  UNL     1      20.547   3.586  50.351  1.00  0.00    -0.247 NA
HETATM   15  C2  UNL     1      20.814   2.722  51.303  1.00  0.00     0.112 C 
HETATM   16  C1  UNL     1      20.001   2.290  52.466  1.00  0.00     0.092 C 
HETATM   17  N5  UNL     1      22.035   2.011  51.415  1.00  0.00    -0.290 N 
ENDBRANCH   1   6
BRANCH   5  18
HETATM   18  N4  UNL     1      24.997  -0.142  53.847  1.00  0.00    -0.325 N 
HETATM   19  C13 UNL     1      26.026  -0.776  53.151  1.00  0.00     0.256 C 
HETATM   20  O1  UNL     1      25.739  -1.632  52.273  1.00  0.00    -0.267 OA
HETATM   21  H14 UNL     1      25.396   0.538  54.525  1.00  0.00     0.169 HD
BRANCH  19  22
HETATM   22  C14 UNL     1      27.448  -0.531  53.351  1.00  0.00     0.032 A 
HETATM   23  C15 UNL     1      27.996   0.682  53.702  1.00  0.00     0.017 A 
HETATM   24  C16 UNL     1      29.341   0.919  53.893  1.00  0.00     0.001 A 
HETATM   25  C17 UNL     1      30.229  -0.124  53.726  1.00  0.00     0.000 A 
HETATM   26  C18 UNL     1      29.726  -1.359  53.374  1.00  0.00     0.001 A 
HETATM   27  C19 UNL     1      28.380  -1.532  53.198  1.00  0.00     0.017 A 
ENDBRANCH  19  22
ENDBRANCH   5  18
TORSDOF 3
ENDMDL
MODEL 6
REMARK VINA RESULT:      -8.2      1.823      5.307
REMARK  3 active torsions:
REMARK  status: ('A' for Active; 'I' for Inactive)
REMARK    1  A    between atoms: N3_10  and  C8_11 
REMARK    2  A    between atoms: C12_15  and  N4_16 
REMARK       I    between atoms: N4_16  and  C13_17 
REMARK    3  A    between atoms: C13_17  and  C14_19 
ROOT
HETATM    1  C8  UNL     1      24.533   4.272  51.055  1.00  0.00     0.154 A 
HETATM    2  C9  UNL     1      24.842   5.457  50.150  1.00  0.00     0.001 A 
HETATM    3  C10 UNL     1      25.929   5.254  49.416  1.00  0.00     0.000 A 
HETATM    4  C11 UNL     1      26.448   3.919  49.760  1.00  0.00     0.027 A 
HETATM    5  C12 UNL     1      25.656   3.386  50.678  1.00  0.00     0.035 A 
ENDROOT
BRANCH   1   6
HETATM    6  N3  UNL     1      23.291   3.735  50.596  1.00  0.00    -0.194 NA
HETATM    7  C7  UNL     1      23.400   2.479  49.875  1.00  0.00     0.263 C 
HETATM    8  N2  UNL     1      23.156   1.308  50.701  1.00  0.00    -0.280 NA
HETATM    9  C6  UNL     1      22.338   1.307  51.684  1.00  0.00     0.031 C 
HETATM   10  C5  UNL     1      21.175   0.497  52.002  1.00  0.00     0.084 C 
HETATM   11  C20 UNL     1      22.843   2.501  52.499  1.00  0.00     0.199 C 
HETATM   12  C4  UNL     1      19.924   1.287  52.151  1.00  0.00    -0.002 C 
HETATM   13  C3  UNL     1      19.331   2.499  52.109  1.00  0.00     0.115 C 
HETATM   14  N1  UNL     1      19.977   3.799  52.103  1.00  0.00    -0.247 NA
HETATM   15  C2  UNL     1      21.073   4.220  51.514  1.00  0.00     0.112 C 
HETATM   16  C1  UNL     1      21.310   5.410  50.661  1.00  0.00     0.092 C 
HETATM   17  N5  UNL     1      22.318   3.545  51.570  1.00  0.00    -0.290 N 
ENDBRANCH   1   6
BRANCH   5  18
HETATM   18  N4  UNL     1      26.051   2.097  51.110  1.00  0.00    -0.325 N 
HETATM   19  C13 UNL     1      27.066   1.729  51.993  1.00  0.00     0.256 C 
HETATM   20  O1  UNL     1      27.776   2.626  52.522  1.00  0.00    -0.267 OA
HETATM   21  H14 UNL     1      25.555   1.249  50.769  1.00  0.00     0.169 HD
BRANCH  19  22
HETATM   22  C14 UNL     1      27.392   0.362  52.373  1.00  0.00     0.032 A 
HETATM   23  C15 UNL     1      28.535  -0.019  53.040  1.00  0.00     0.017 A 
HETATM   24  C16 UNL     1      28.847  -1.312  53.403  1.00  0.00     0.001 A 
HETATM   25  C17 UNL     1      27.963  -2.322  53.087  1.00  0.00     0.000 A 
HETATM   26  C18 UNL     1      26.803  -1.989  52.419  1.00  0.00     0.001 A 
HETATM   27  C19 UNL     1      26.548  -0.687  52.084  1.00  0.00     0.017 A 
ENDBRANCH  19  22
ENDBRANCH   5  18
TORSDOF 3
ENDMDL
MODEL 7
REMARK VINA RESULT:      -8.0      2.258      5.737
REMARK  3 active torsions:
REMARK  status: ('A' for Active; 'I' for Inactive)
REMARK    1  A    between atoms: N3_10  and  C8_11 
REMARK    2  A    between atoms: C12_15  and  N4_16 
REMARK       I    between atoms: N4_16  and  C13_17 
REMARK    3  A    between atoms: C13_17  and  C14_19 
ROOT
HETATM    1  C8  UNL     1      22.994   1.768  51.179  1.00  0.00     0.154 A 
HETATM    2  C9  UNL     1      21.582   1.895  51.734  1.00  0.00     0.001 A 
HETATM    3  C10 UNL     1      21.450   1.286  52.905  1.00  0.00     0.000 A 
HETATM    4  C11 UNL     1      22.757   0.695  53.242  1.00  0.00     0.027 A 
HETATM    5  C12 UNL     1      23.607   0.973  52.266  1.00  0.00     0.035 A 
ENDROOT
BRANCH   1   6
HETATM    6  N3  UNL     1      23.532   3.091  51.156  1.00  0.00    -0.194 NA
HETATM    7  C7  UNL     1      24.743   3.243  50.368  1.00  0.00     0.263 C 
HETATM    8  N2  UNL     1      24.505   3.734  49.021  1.00  0.00    -0.280 NA
HETATM    9  C6  UNL     1      23.557   4.542  48.731  1.00  0.00     0.031 C 
HETATM   10  C5  UNL     1      23.532   5.852  48.103  1.00  0.00     0.084 C 
HETATM   11  C20 UNL     1      22.345   3.804  49.305  1.00  0.00     0.199 C 
HETATM   12  C4  UNL     1      22.937   6.911  48.962  1.00  0.00    -0.002 C 
HETATM   13  C3  UNL     1      22.385   7.235  50.150  1.00  0.00     0.115 C 
HETATM   14  N1  UNL     1      21.869   6.330  51.162  1.00  0.00    -0.247 NA
HETATM   15  C2  UNL     1      22.303   5.166  51.587  1.00  0.00     0.112 C 
HETATM   16  C1  UNL     1      22.555   4.677  52.964  1.00  0.00     0.092 C 
HETATM   17  N5  UNL     1      22.663   4.091  50.736  1.00  0.00    -0.290 N 
ENDBRANCH   1   6
BRANCH   5  18
HETATM   18  N4  UNL     1      24.907   0.450  52.459  1.00  0.00    -0.325 N 
HETATM   19  C13 UNL     1      26.014   1.030  53.078  1.00  0.00     0.256 C 
HETATM   20  O1  UNL     1      25.912   2.191  53.558  1.00  0.00    -0.267 OA
HETATM   21  H14 UNL     1      25.149  -0.505  52.126  1.00  0.00     0.169 HD
BRANCH  19  22
HETATM   22  C14 UNL     1      27.318   0.399  53.227  1.00  0.00     0.032 A 
HETATM   23  C15 UNL     1      28.479   1.060  53.563  1.00  0.00     0.017 A 
HETATM   24  C16 UNL     1      29.715   0.467  53.706  1.00  0.00     0.001 A 
HETATM   25  C17 UNL     1      29.827  -0.893  53.502  1.00  0.00     0.000 A 
HETATM   26  C18 UNL     1      28.691  -1.598  53.163  1.00  0.00     0.001 A 
HETATM   27  C19 UNL     1      27.490  -0.953  53.036  1.00  0.00     0.017 A 
ENDBRANCH  19  22
ENDBRANCH   5  18
TORSDOF 3
ENDMDL
MODEL 8
REMARK VINA RESULT:      -7.9      2.523      6.900
REMARK  3 active torsions:
REMARK  status: ('A' for Active; 'I' for Inactive)
REMARK    1  A    between atoms: N3_10  and  C8_11 
REMARK    2  A    between atoms: C12_15  and  N4_16 
REMARK       I    between atoms: N4_16  and  C13_17 
REMARK    3  A    between atoms: C13_17  and  C14_19 
ROOT
HETATM    1  C8  UNL     1      23.614   1.328  52.876  1.00  0.00     0.154 A 
HETATM    2  C9  UNL     1      24.800   0.807  53.676  1.00  0.00     0.001 A 
HETATM    3  C10 UNL     1      24.629  -0.450  54.061  1.00  0.00     0.000 A 
HETATM    4  C11 UNL     1      23.316  -0.888  53.557  1.00  0.00     0.027 A 
HETATM    5  C12 UNL     1      22.762   0.119  52.899  1.00  0.00     0.035 A 
ENDROOT
BRANCH   1   6
HETATM    6  N3  UNL     1      24.102   1.576  51.557  1.00  0.00    -0.194 NA
HETATM    7  C7  UNL     1      23.071   1.722  50.544  1.00  0.00     0.263 C 
HETATM    8  N2  UNL     1      22.726   3.105  50.257  1.00  0.00    -0.280 NA
HETATM    9  C6  UNL     1      23.572   4.062  50.321  1.00  0.00     0.031 C 
HETATM   10  C5  UNL     1      24.016   5.055  49.359  1.00  0.00     0.084 C 
HETATM   11  C20 UNL     1      24.127   3.881  51.737  1.00  0.00     0.199 C 
HETATM   12  C4  UNL     1      25.477   5.004  49.085  1.00  0.00    -0.002 C 
HETATM   13  C3  UNL     1      26.661   4.404  49.330  1.00  0.00     0.115 C 
HETATM   14  N1  UNL     1      26.981   3.488  50.412  1.00  0.00    -0.247 NA
HETATM   15  C2  UNL     1      26.281   2.528  50.970  1.00  0.00     0.112 C 
HETATM   16  C1  UNL     1      26.637   1.115  51.247  1.00  0.00     0.092 C 
HETATM   17  N5  UNL     1      24.945   2.672  51.420  1.00  0.00    -0.290 N 
ENDBRANCH   1   6
BRANCH   5  18
HETATM   18  N4  UNL     1      21.481  -0.167  52.370  1.00  0.00    -0.325 N 
HETATM   19  C13 UNL     1      20.280   0.523  52.533  1.00  0.00     0.256 C 
HETATM   20  O1  UNL     1      20.259   1.563  53.244  1.00  0.00    -0.267 OA
HETATM   21  H14 UNL     1      21.335  -0.991  51.753  1.00  0.00     0.169 HD
BRANCH  19  22
HETATM   22  C14 UNL     1      19.007   0.141  51.937  1.00  0.00     0.032 A 
HETATM   23  C15 UNL     1      18.584   0.512  50.680  1.00  0.00     0.017 A 
HETATM   24  C16 UNL     1      17.380   0.153  50.112  1.00  0.00     0.001 A 
HETATM   25  C17 UNL     1      16.513  -0.639  50.836  1.00  0.00     0.000 A 
HETATM   26  C18 UNL     1      16.894  -1.036  52.101  1.00  0.00     0.001 A 
HETATM   27  C19 UNL     1      18.103  -0.647  52.612  1.00  0.00     0.017 A 
ENDBRANCH  19  22
ENDBRANCH   5  18
TORSDOF 3
ENDMDL
MODEL 9
REMARK VINA RESULT:      -7.7      3.326      5.542
REMARK  3 active torsions:
REMARK  status: ('A' for Active; 'I' for Inactive)
REMARK    1  A    between atoms: N3_10  and  C8_11 
REMARK    2  A    between atoms: C12_15  and  N4_16 
REMARK       I    between atoms: N4_16  and  C13_17 
REMARK    3  A    between atoms: C13_17  and  C14_19 
ROOT
HETATM    1  C8  UNL     1      21.744   0.333  51.703  1.00  0.00     0.154 A 
HETATM    2  C9  UNL     1      20.337   0.214  52.272  1.00  0.00     0.001 A 
HETATM    3  C10 UNL     1      20.342   0.090  53.593  1.00  0.00     0.000 A 
HETATM    4  C11 UNL     1      21.749   0.114  54.030  1.00  0.00     0.027 A 
HETATM    5  C12 UNL     1      22.518   0.248  52.961  1.00  0.00     0.035 A 
ENDROOT
BRANCH   1   6
HETATM    6  N3  UNL     1      21.836   1.643  51.141  1.00  0.00    -0.194 NA
HETATM    7  C7  UNL     1      22.816   1.782  50.078  1.00  0.00     0.263 C 
HETATM    8  N2  UNL     1      22.250   1.672  48.744  1.00  0.00    -0.280 NA
HETATM    9  C6  UNL     1      21.067   2.062  48.454  1.00  0.00     0.031 C 
HETATM   10  C5  UNL     1      20.548   3.002  47.475  1.00  0.00     0.084 C 
HETATM   11  C20 UNL     1      20.237   1.317  49.503  1.00  0.00     0.199 C 
HETATM   12  C4  UNL     1      19.782   4.125  48.079  1.00  0.00    -0.002 C 
HETATM   13  C3  UNL     1      19.329   4.719  49.203  1.00  0.00     0.115 C 
HETATM   14  N1  UNL     1      19.268   4.153  50.539  1.00  0.00    -0.247 NA
HETATM   15  C2  UNL     1      20.097   3.368  51.187  1.00  0.00     0.112 C 
HETATM   16  C1  UNL     1      20.681   3.496  52.544  1.00  0.00     0.092 C 
HETATM   17  N5  UNL     1      20.649   2.177  50.653  1.00  0.00    -0.290 N 
ENDBRANCH   1   6
BRANCH   5  18
HETATM   18  N4  UNL     1      23.905   0.273  53.241  1.00  0.00    -0.325 N 
HETATM   19  C13 UNL     1      24.758   1.365  53.401  1.00  0.00     0.256 C 
HETATM   20  O1  UNL     1      24.292   2.530  53.295  1.00  0.00    -0.267 OA
HETATM   21  H14 UNL     1      24.435  -0.612  53.367  1.00  0.00     0.169 HD
BRANCH  19  22
HETATM   22  C14 UNL     1      26.183   1.279  53.691  1.00  0.00     0.032 A 
HETATM   23  C15 UNL     1      26.769   0.314  54.479  1.00  0.00     0.017 A 
HETATM   24  C16 UNL     1      28.117   0.228  54.756  1.00  0.00     0.001 A 
HETATM   25  C17 UNL     1      28.967   1.170  54.214  1.00  0.00     0.000 A 
HETATM   26  C18 UNL     1      28.425   2.158  53.418  1.00  0.00     0.001 A 
HETATM   27  C19 UNL     1      27.078   2.190  53.179  1.00  0.00     0.017 A 
ENDBRANCH  19  22
ENDBRANCH   5  18
TORSDOF 3
ENDMDL
