MODEL 1
REMARK VINA RESULT:      -8.8      0.000      0.000
REMARK  7 active torsions:
REMARK  status: ('A' for Active; 'I' for Inactive)
REMARK    1  A    between atoms: C2_2  and  C3_4 
REMARK    2  A    between atoms: C3_4  and  N1_5 
REMARK    3  A    between atoms: N1_5  and  C4_6 
REMARK    4  A    between atoms: C4_6  and  C5_7 
REMARK    5  A    between atoms: C5_7  and  C6_8 
REMARK    6  A    between atoms: C6_8  and  N2_9 
REMARK    7  A    between atoms: C12_15  and  C13_16 
ROOT
HETATM    1  N2  UNL     1      22.981   2.206  50.769  1.00  0.00    -0.380 N 
HETATM    2  C7  UNL     1      21.643   2.615  51.184  1.00  0.00     0.128 C 
HETATM    3  C8  UNL     1      21.162   1.314  51.828  1.00  0.00     0.061 C 
HETATM    4  C9  UNL     1      22.419   0.845  52.478  1.00  0.00    -0.021 A 
HETATM    5  C10 UNL     1      23.497   1.399  51.820  1.00  0.00     0.038 A 
HETATM    6  C11 UNL     1      24.821   1.172  52.167  1.00  0.00     0.043 A 
HETATM    7  C12 UNL     1      25.104   0.330  53.250  1.00  0.00    -0.007 A 
HETATM    8  C19 UNL     1      24.013  -0.236  53.921  1.00  0.00     0.051 A 
HETATM    9  C20 UNL     1      22.707   0.016  53.547  1.00  0.00    -0.015 A 
HETATM   10  C21 UNL     1      21.798  -0.715  54.476  1.00  0.00     0.163 A 
HETATM   11  N3  UNL     1      22.665  -1.447  55.364  1.00  0.00    -0.353 N 
HETATM   12  C22 UNL     1      24.019  -1.146  55.057  1.00  0.00     0.253 A 
HETATM   13  O2  UNL     1      24.993  -1.615  55.693  1.00  0.00    -0.268 OA
HETATM   14  H25 UNL     1      22.316  -2.089  56.105  1.00  0.00     0.163 HD
ENDROOT
BRANCH   1  15
HETATM   15  C6  UNL     1      23.588   2.596  49.500  1.00  0.00     0.124 C 
BRANCH  15  16
HETATM   16  C5  UNL     1      23.766   4.076  49.533  1.00  0.00     0.050 C 
BRANCH  16  17
HETATM   17  C4  UNL     1      24.673   4.604  50.594  1.00  0.00     0.271 C 
BRANCH  17  18
HETATM   18  N1  UNL     1      26.048   4.725  50.223  1.00  0.00     0.090 N 
HETATM   19  H6  UNL     1      26.574   5.247  50.974  1.00  0.00     0.316 HD
BRANCH  18  20
HETATM   20  C3  UNL     1      26.137   5.571  49.050  1.00  0.00     0.346 C 
BRANCH  20  21
HETATM   21  C2  UNL     1      27.546   5.608  48.523  1.00  0.00     0.150 C 
HETATM   22  C1  UNL     1      28.411   6.648  47.907  1.00  0.00     0.092 C 
HETATM   23  O1  UNL     1      28.160   4.566  48.600  1.00  0.00    -0.297 OA
ENDBRANCH  20  21
ENDBRANCH  18  20
ENDBRANCH  17  18
ENDBRANCH  16  17
ENDBRANCH  15  16
ENDBRANCH   1  15
BRANCH   7  24
HETATM   24  C13 UNL     1      26.489   0.118  53.560  1.00  0.00    -0.025 A 
HETATM   25  C14 UNL     1      27.353   0.806  54.377  1.00  0.00     0.012 A 
HETATM   26  C15 UNL     1      28.677   0.455  54.531  1.00  0.00     0.001 A 
HETATM   27  C16 UNL     1      29.172  -0.640  53.837  1.00  0.00     0.000 A 
HETATM   28  C17 UNL     1      28.340  -1.378  52.989  1.00  0.00     0.001 A 
HETATM   29  C18 UNL     1      27.005  -0.984  52.865  1.00  0.00     0.012 A 
ENDBRANCH   7  24
TORSDOF 7
ENDMDL
MODEL 2
REMARK VINA RESULT:      -8.4      1.884      3.225
REMARK  7 active torsions:
REMARK  status: ('A' for Active; 'I' for Inactive)
REMARK    1  A    between atoms: C2_2  and  C3_4 
REMARK    2  A    between atoms: C3_4  and  N1_5 
REMARK    3  A    between atoms: N1_5  and  C4_6 
REMARK    4  A    between atoms: C4_6  and  C5_7 
REMARK    5  A    between atoms: C5_7  and  C6_8 
REMARK    6  A    between atoms: C6_8  and  N2_9 
REMARK    7  A    between atoms: C12_15  and  C13_16 
ROOT
HETATM    1  N2  UNL     1      25.981   4.308  49.958  1.00  0.00    -0.380 N 
HETATM    2  C7  UNL     1      24.880   5.233  50.211  1.00  0.00     0.128 C 
HETATM    3  C8  UNL     1      23.735   4.234  50.377  1.00  0.00     0.061 C 
HETATM    4  C9  UNL     1      24.432   3.131  51.100  1.00  0.00    -0.021 A 
HETATM    5  C10 UNL     1      25.782   3.202  50.828  1.00  0.00     0.038 A 
HETATM    6  C11 UNL     1      26.726   2.324  51.342  1.00  0.00     0.043 A 
HETATM    7  C12 UNL     1      26.303   1.293  52.190  1.00  0.00    -0.007 A 
HETATM    8  C19 UNL     1      24.933   1.215  52.468  1.00  0.00     0.051 A 
HETATM    9  C20 UNL     1      24.022   2.110  51.938  1.00  0.00    -0.015 A 
HETATM   10  C21 UNL     1      22.665   1.764  52.448  1.00  0.00     0.163 A 
HETATM   11  N3  UNL     1      22.848   0.581  53.251  1.00  0.00    -0.353 N 
HETATM   12  C22 UNL     1      24.228   0.249  53.295  1.00  0.00     0.253 A 
HETATM   13  O2  UNL     1      24.686  -0.718  53.951  1.00  0.00    -0.268 OA
HETATM   14  H25 UNL     1      22.063   0.076  53.712  1.00  0.00     0.163 HD
ENDROOT
BRANCH   1  15
HETATM   15  C6  UNL     1      27.034   4.555  48.978  1.00  0.00     0.124 C 
BRANCH  15  16
HETATM   16  C5  UNL     1      26.914   5.979  48.550  1.00  0.00     0.050 C 
BRANCH  16  17
HETATM   17  C4  UNL     1      28.158   6.611  48.021  1.00  0.00     0.271 C 
BRANCH  17  18
HETATM   18  N1  UNL     1      29.230   6.737  48.957  1.00  0.00     0.090 N 
HETATM   19  H6  UNL     1      29.157   7.661  49.459  1.00  0.00     0.316 HD
BRANCH  18  20
HETATM   20  C3  UNL     1      30.478   6.809  48.224  1.00  0.00     0.346 C 
BRANCH  20  21
HETATM   21  C2  UNL     1      31.248   5.522  48.350  1.00  0.00     0.150 C 
HETATM   22  C1  UNL     1      31.657   4.446  47.409  1.00  0.00     0.092 C 
HETATM   23  O1  UNL     1      31.650   5.261  49.463  1.00  0.00    -0.297 OA
ENDBRANCH  20  21
ENDBRANCH  18  20
ENDBRANCH  17  18
ENDBRANCH  16  17
ENDBRANCH  15  16
ENDBRANCH   1  15
BRANCH   7  24
HETATM   24  C13 UNL     1      27.317   0.406  52.685  1.00  0.00    -0.025 A 
HETATM   25  C14 UNL     1      27.465  -0.956  52.578  1.00  0.00     0.012 A 
HETATM   26  C15 UNL     1      28.514  -1.642  53.151  1.00  0.00     0.001 A 
HETATM   27  C16 UNL     1      29.470  -0.939  53.870  1.00  0.00     0.000 A 
HETATM   28  C17 UNL     1      29.372   0.449  54.013  1.00  0.00     0.001 A 
HETATM   29  C18 UNL     1      28.291   1.101  53.415  1.00  0.00     0.012 A 
ENDBRANCH   7  24
TORSDOF 7
ENDMDL
MODEL 3
REMARK VINA RESULT:      -8.4      1.772      1.954
REMARK  7 active torsions:
REMARK  status: ('A' for Active; 'I' for Inactive)
REMARK    1  A    between atoms: C2_2  and  C3_4 
REMARK    2  A    between atoms: C3_4  and  N1_5 
REMARK    3  A    between atoms: N1_5  and  C4_6 
REMARK    4  A    between atoms: C4_6  and  C5_7 
REMARK    5  A    between atoms: C5_7  and  C6_8 
REMARK    6  A    between atoms: C6_8  and  N2_9 
REMARK    7  A    between atoms: C12_15  and  C13_16 
ROOT
HETATM    1  N2  UNL     1      24.177   3.043  50.393  1.00  0.00    -0.380 N 
HETATM    2  C7  UNL     1      22.874   3.607  50.726  1.00  0.00     0.128 C 
HETATM    3  C8  UNL     1      22.161   2.346  51.213  1.00  0.00     0.061 C 
HETATM    4  C9  UNL     1      23.275   1.656  51.926  1.00  0.00    -0.021 A 
HETATM    5  C10 UNL     1      24.475   2.096  51.411  1.00  0.00     0.038 A 
HETATM    6  C11 UNL     1      25.717   1.658  51.849  1.00  0.00     0.043 A 
HETATM    7  C12 UNL     1      25.778   0.708  52.876  1.00  0.00    -0.007 A 
HETATM    8  C19 UNL     1      24.562   0.257  53.402  1.00  0.00     0.051 A 
HETATM    9  C20 UNL     1      23.343   0.719  52.940  1.00  0.00    -0.015 A 
HETATM   10  C21 UNL     1      22.259   0.060  53.724  1.00  0.00     0.163 A 
HETATM   11  N3  UNL     1      22.930  -0.850  54.617  1.00  0.00    -0.353 N 
HETATM   12  C22 UNL     1      24.335  -0.724  54.452  1.00  0.00     0.253 A 
HETATM   13  O2  UNL     1      25.171  -1.372  55.127  1.00  0.00    -0.268 OA
HETATM   14  H25 UNL     1      22.427  -1.487  55.268  1.00  0.00     0.163 HD
ENDROOT
BRANCH   1  15
HETATM   15  C6  UNL     1      24.950   3.433  49.217  1.00  0.00     0.124 C 
BRANCH  15  16
HETATM   16  C5  UNL     1      26.031   4.348  49.684  1.00  0.00     0.050 C 
BRANCH  16  17
HETATM   17  C4  UNL     1      26.235   5.587  48.877  1.00  0.00     0.271 C 
BRANCH  17  18
HETATM   18  N1  UNL     1      27.077   6.576  49.472  1.00  0.00     0.090 N 
HETATM   19  H6  UNL     1      27.500   6.196  50.360  1.00  0.00     0.316 HD
BRANCH  18  20
HETATM   20  C3  UNL     1      26.254   7.690  49.897  1.00  0.00     0.346 C 
BRANCH  20  21
HETATM   21  C2  UNL     1      27.062   8.958  49.964  1.00  0.00     0.150 C 
HETATM   22  C1  UNL     1      28.463   9.330  49.633  1.00  0.00     0.092 C 
HETATM   23  O1  UNL     1      26.472   9.932  50.380  1.00  0.00    -0.297 OA
ENDBRANCH  20  21
ENDBRANCH  18  20
ENDBRANCH  17  18
ENDBRANCH  16  17
ENDBRANCH  15  16
ENDBRANCH   1  15
BRANCH   7  24
HETATM   24  C13 UNL     1      27.086   0.280  53.284  1.00  0.00    -0.025 A 
HETATM   25  C14 UNL     1      28.049   0.896  54.045  1.00  0.00     0.012 A 
HETATM   26  C15 UNL     1      29.272   0.322  54.314  1.00  0.00     0.001 A 
HETATM   27  C16 UNL     1      29.557  -0.935  53.799  1.00  0.00     0.000 A 
HETATM   28  C17 UNL     1      28.616  -1.612  53.016  1.00  0.00     0.001 A 
HETATM   29  C18 UNL     1      27.390  -0.989  52.771  1.00  0.00     0.012 A 
ENDBRANCH   7  24
TORSDOF 7
ENDMDL
MODEL 4
REMARK VINA RESULT:      -8.1      1.983      3.291
REMARK  7 active torsions:
REMARK  status: ('A' for Active; 'I' for Inactive)
REMARK    1  A    between atoms: C2_2  and  C3_4 
REMARK    2  A    between atoms: C3_4  and  N1_5 
REMARK    3  A    between atoms: N1_5  and  C4_6 
REMARK    4  A    between atoms: C4_6  and  C5_7 
REMARK    5  A    between atoms: C5_7  and  C6_8 
REMARK    6  A    between atoms: C6_8  and  N2_9 
REMARK    7  A    between atoms: C12_15  and  C13_16 
ROOT
HETATM    1  N2  UNL     1      26.061   4.191  49.989  1.00  0.00    -0.380 N 
HETATM    2  C7  UNL     1      25.014   5.165  50.282  1.00  0.00     0.128 C 
HETATM    3  C8  UNL     1      23.829   4.220  50.479  1.00  0.00     0.061 C 
HETATM    4  C9  UNL     1      24.494   3.080  51.172  1.00  0.00    -0.021 A 
HETATM    5  C10 UNL     1      25.837   3.089  50.859  1.00  0.00     0.038 A 
HETATM    6  C11 UNL     1      26.754   2.164  51.337  1.00  0.00     0.043 A 
HETATM    7  C12 UNL     1      26.309   1.147  52.192  1.00  0.00    -0.007 A 
HETATM    8  C19 UNL     1      24.946   1.133  52.512  1.00  0.00     0.051 A 
HETATM    9  C20 UNL     1      24.063   2.074  52.017  1.00  0.00    -0.015 A 
HETATM   10  C21 UNL     1      22.707   1.788  52.568  1.00  0.00     0.163 A 
HETATM   11  N3  UNL     1      22.858   0.592  53.358  1.00  0.00    -0.353 N 
HETATM   12  C22 UNL     1      24.222   0.194  53.356  1.00  0.00     0.253 A 
HETATM   13  O2  UNL     1      24.654  -0.798  53.991  1.00  0.00    -0.268 OA
HETATM   14  H25 UNL     1      22.066   0.121  53.840  1.00  0.00     0.163 HD
ENDROOT
BRANCH   1  15
HETATM   15  C6  UNL     1      27.094   4.395  48.978  1.00  0.00     0.124 C 
BRANCH  15  16
HETATM   16  C5  UNL     1      27.073   5.840  48.611  1.00  0.00     0.050 C 
BRANCH  16  17
HETATM   17  C4  UNL     1      28.337   6.390  48.039  1.00  0.00     0.271 C 
BRANCH  17  18
HETATM   18  N1  UNL     1      29.412   6.552  48.966  1.00  0.00     0.090 N 
HETATM   19  H6  UNL     1      29.026   6.728  49.931  1.00  0.00     0.316 HD
BRANCH  18  20
HETATM   20  C3  UNL     1      30.134   7.763  48.629  1.00  0.00     0.346 C 
BRANCH  20  21
HETATM   21  C2  UNL     1      29.261   8.975  48.813  1.00  0.00     0.150 C 
HETATM   22  C1  UNL     1      28.219   9.381  49.793  1.00  0.00     0.092 C 
HETATM   23  O1  UNL     1      29.410   9.855  47.993  1.00  0.00    -0.297 OA
ENDBRANCH  20  21
ENDBRANCH  18  20
ENDBRANCH  17  18
ENDBRANCH  16  17
ENDBRANCH  15  16
ENDBRANCH   1  15
BRANCH   7  24
HETATM   24  C13 UNL     1      27.294   0.209  52.649  1.00  0.00    -0.025 A 
HETATM   25  C14 UNL     1      27.372  -1.158  52.533  1.00  0.00     0.012 A 
HETATM   26  C15 UNL     1      28.405  -1.897  53.068  1.00  0.00     0.001 A 
HETATM   27  C16 UNL     1      29.418  -1.245  53.757  1.00  0.00     0.000 A 
HETATM   28  C17 UNL     1      29.392   0.146  53.908  1.00  0.00     0.001 A 
HETATM   29  C18 UNL     1      28.325   0.852  53.348  1.00  0.00     0.012 A 
ENDBRANCH   7  24
TORSDOF 7
ENDMDL
MODEL 5
REMARK VINA RESULT:      -7.8      1.832      6.113
REMARK  7 active torsions:
REMARK  status: ('A' for Active; 'I' for Inactive)
REMARK    1  A    between atoms: C2_2  and  C3_4 
REMARK    2  A    between atoms: C3_4  and  N1_5 
REMARK    3  A    between atoms: N1_5  and  C4_6 
REMARK    4  A    between atoms: C4_6  and  C5_7 
REMARK    5  A    between atoms: C5_7  and  C6_8 
REMARK    6  A    between atoms: C6_8  and  N2_9 
REMARK    7  A    between atoms: C12_15  and  C13_16 
ROOT
HETATM    1  N2  UNL     1      20.732   2.208  51.244  1.00  0.00    -0.380 N 
HETATM    2  C7  UNL     1      20.191   2.689  49.977  1.00  0.00     0.128 C 
HETATM    3  C8  UNL     1      21.102   3.896  49.748  1.00  0.00     0.061 C 
HETATM    4  C9  UNL     1      22.399   3.365  50.259  1.00  0.00    -0.021 A 
HETATM    5  C10 UNL     1      22.144   2.350  51.157  1.00  0.00     0.038 A 
HETATM    6  C11 UNL     1      23.129   1.635  51.823  1.00  0.00     0.043 A 
HETATM    7  C12 UNL     1      24.473   1.947  51.585  1.00  0.00    -0.007 A 
HETATM    8  C19 UNL     1      24.737   2.978  50.675  1.00  0.00     0.051 A 
HETATM    9  C20 UNL     1      23.728   3.667  50.029  1.00  0.00    -0.015 A 
HETATM   10  C21 UNL     1      24.348   4.673  49.119  1.00  0.00     0.163 A 
HETATM   11  N3  UNL     1      25.769   4.557  49.331  1.00  0.00    -0.353 N 
HETATM   12  C22 UNL     1      26.025   3.510  50.257  1.00  0.00     0.253 A 
HETATM   13  O2  UNL     1      27.179   3.162  50.604  1.00  0.00    -0.268 OA
HETATM   14  H25 UNL     1      26.469   5.166  48.859  1.00  0.00     0.163 HD
ENDROOT
BRANCH   1  15
HETATM   15  C6  UNL     1      19.904   1.699  52.334  1.00  0.00     0.124 C 
BRANCH  15  16
HETATM   16  C5  UNL     1      19.927   0.211  52.248  1.00  0.00     0.050 C 
BRANCH  16  17
HETATM   17  C4  UNL     1      19.407  -0.522  53.440  1.00  0.00     0.271 C 
BRANCH  17  18
HETATM   18  N1  UNL     1      20.348  -1.372  54.098  1.00  0.00     0.090 N 
HETATM   19  H6  UNL     1      19.862  -1.924  54.853  1.00  0.00     0.316 HD
BRANCH  18  20
HETATM   20  C3  UNL     1      21.306  -0.544  54.802  1.00  0.00     0.346 C 
BRANCH  20  21
HETATM   21  C2  UNL     1      22.713  -1.008  54.535  1.00  0.00     0.150 C 
HETATM   22  C1  UNL     1      23.916  -1.251  55.373  1.00  0.00     0.092 C 
HETATM   23  O1  UNL     1      22.970  -1.255  53.376  1.00  0.00    -0.297 OA
ENDBRANCH  20  21
ENDBRANCH  18  20
ENDBRANCH  17  18
ENDBRANCH  16  17
ENDBRANCH  15  16
ENDBRANCH   1  15
BRANCH   7  24
HETATM   24  C13 UNL     1      25.452   1.186  52.307  1.00  0.00    -0.025 A 
HETATM   25  C14 UNL     1      26.162   0.061  51.966  1.00  0.00     0.012 A 
HETATM   26  C15 UNL     1      27.057  -0.547  52.819  1.00  0.00     0.001 A 
HETATM   27  C16 UNL     1      27.261  -0.009  54.082  1.00  0.00     0.000 A 
HETATM   28  C17 UNL     1      26.566   1.136  54.486  1.00  0.00     0.001 A 
HETATM   29  C18 UNL     1      25.669   1.717  53.587  1.00  0.00     0.012 A 
ENDBRANCH   7  24
TORSDOF 7
ENDMDL
MODEL 6
REMARK VINA RESULT:      -7.4      1.966      2.553
REMARK  7 active torsions:
REMARK  status: ('A' for Active; 'I' for Inactive)
REMARK    1  A    between atoms: C2_2  and  C3_4 
REMARK    2  A    between atoms: C3_4  and  N1_5 
REMARK    3  A    between atoms: N1_5  and  C4_6 
REMARK    4  A    between atoms: C4_6  and  C5_7 
REMARK    5  A    between atoms: C5_7  and  C6_8 
REMARK    6  A    between atoms: C6_8  and  N2_9 
REMARK    7  A    between atoms: C12_15  and  C13_16 
ROOT
HETATM    1  N2  UNL     1      21.065   1.784  49.903  1.00  0.00    -0.380 N 
HETATM    2  C7  UNL     1      19.680   1.904  50.347  1.00  0.00     0.128 C 
HETATM    3  C8  UNL     1      19.536   0.583  51.103  1.00  0.00     0.061 C 
HETATM    4  C9  UNL     1      20.884   0.471  51.728  1.00  0.00    -0.021 A 
HETATM    5  C10 UNL     1      21.784   1.205  50.984  1.00  0.00     0.038 A 
HETATM    6  C11 UNL     1      23.133   1.320  51.287  1.00  0.00     0.043 A 
HETATM    7  C12 UNL     1      23.635   0.655  52.412  1.00  0.00    -0.007 A 
HETATM    8  C19 UNL     1      22.727  -0.093  53.171  1.00  0.00     0.051 A 
HETATM    9  C20 UNL     1      21.388  -0.182  52.838  1.00  0.00    -0.015 A 
HETATM   10  C21 UNL     1      20.701  -1.027  53.857  1.00  0.00     0.163 A 
HETATM   11  N3  UNL     1      21.740  -1.465  54.755  1.00  0.00    -0.353 N 
HETATM   12  C22 UNL     1      22.976  -0.883  54.366  1.00  0.00     0.253 A 
HETATM   13  O2  UNL     1      24.050  -1.061  54.990  1.00  0.00    -0.268 OA
HETATM   14  H25 UNL     1      21.571  -2.109  55.554  1.00  0.00     0.163 HD
ENDROOT
BRANCH   1  15
HETATM   15  C6  UNL     1      21.529   2.202  48.583  1.00  0.00     0.124 C 
BRANCH  15  16
HETATM   16  C5  UNL     1      21.300   3.672  48.480  1.00  0.00     0.050 C 
BRANCH  16  17
HETATM   17  C4  UNL     1      22.185   4.534  49.319  1.00  0.00     0.271 C 
BRANCH  17  18
HETATM   18  N1  UNL     1      23.576   4.484  48.996  1.00  0.00     0.090 N 
HETATM   19  H6  UNL     1      24.133   4.237  49.856  1.00  0.00     0.316 HD
BRANCH  18  20
HETATM   20  C3  UNL     1      24.016   5.818  48.639  1.00  0.00     0.346 C 
BRANCH  20  21
HETATM   21  C2  UNL     1      24.443   6.585  49.861  1.00  0.00     0.150 C 
HETATM   22  C1  UNL     1      23.805   7.600  50.741  1.00  0.00     0.092 C 
HETATM   23  O1  UNL     1      25.564   6.353  50.258  1.00  0.00    -0.297 OA
ENDBRANCH  20  21
ENDBRANCH  18  20
ENDBRANCH  17  18
ENDBRANCH  16  17
ENDBRANCH  15  16
ENDBRANCH   1  15
BRANCH   7  24
HETATM   24  C13 UNL     1      25.039   0.796  52.675  1.00  0.00    -0.025 A 
HETATM   25  C14 UNL     1      26.109  -0.003  52.354  1.00  0.00     0.012 A 
HETATM   26  C15 UNL     1      27.403   0.297  52.720  1.00  0.00     0.001 A 
HETATM   27  C16 UNL     1      27.652   1.454  53.445  1.00  0.00     0.000 A 
HETATM   28  C17 UNL     1      26.601   2.307  53.801  1.00  0.00     0.001 A 
HETATM   29  C18 UNL     1      25.306   1.961  53.408  1.00  0.00     0.012 A 
ENDBRANCH   7  24
TORSDOF 7
ENDMDL
MODEL 7
REMARK VINA RESULT:      -7.4      2.982      6.647
REMARK  7 active torsions:
REMARK  status: ('A' for Active; 'I' for Inactive)
REMARK    1  A    between atoms: C2_2  and  C3_4 
REMARK    2  A    between atoms: C3_4  and  N1_5 
REMARK    3  A    between atoms: N1_5  and  C4_6 
REMARK    4  A    between atoms: C4_6  and  C5_7 
REMARK    5  A    between atoms: C5_7  and  C6_8 
REMARK    6  A    between atoms: C6_8  and  N2_9 
REMARK    7  A    between atoms: C12_15  and  C13_16 
ROOT
HETATM    1  N2  UNL     1      21.082   0.515  52.670  1.00  0.00    -0.380 N 
HETATM    2  C7  UNL     1      20.287   0.683  51.458  1.00  0.00     0.128 C 
HETATM    3  C8  UNL     1      20.871   2.001  50.946  1.00  0.00     0.061 C 
HETATM    4  C9  UNL     1      22.308   1.824  51.303  1.00  0.00    -0.021 A 
HETATM    5  C10 UNL     1      22.403   0.924  52.343  1.00  0.00     0.038 A 
HETATM    6  C11 UNL     1      23.600   0.529  52.923  1.00  0.00     0.043 A 
HETATM    7  C12 UNL     1      24.799   1.067  52.438  1.00  0.00    -0.007 A 
HETATM    8  C19 UNL     1      24.708   1.982  51.383  1.00  0.00     0.051 A 
HETATM    9  C20 UNL     1      23.496   2.350  50.830  1.00  0.00    -0.015 A 
HETATM   10  C21 UNL     1      23.754   3.313  49.720  1.00  0.00     0.163 A 
HETATM   11  N3  UNL     1      25.180   3.518  49.715  1.00  0.00    -0.353 N 
HETATM   12  C22 UNL     1      25.780   2.694  50.705  1.00  0.00     0.253 A 
HETATM   13  O2  UNL     1      27.018   2.641  50.902  1.00  0.00    -0.268 OA
HETATM   14  H25 UNL     1      25.660   4.178  49.069  1.00  0.00     0.163 HD
ENDROOT
BRANCH   1  15
HETATM   15  C6  UNL     1      20.537   0.019  53.931  1.00  0.00     0.124 C 
BRANCH  15  16
HETATM   16  C5  UNL     1      20.432  -1.464  53.812  1.00  0.00     0.050 C 
BRANCH  16  17
HETATM   17  C4  UNL     1      19.049  -2.026  53.827  1.00  0.00     0.271 C 
BRANCH  17  18
HETATM   18  N1  UNL     1      17.997  -1.075  53.657  1.00  0.00     0.090 N 
HETATM   19  H6  UNL     1      17.409  -1.035  54.531  1.00  0.00     0.316 HD
BRANCH  18  20
HETATM   20  C3  UNL     1      17.099  -1.559  52.627  1.00  0.00     0.346 C 
BRANCH  20  21
HETATM   21  C2  UNL     1      16.818  -0.482  51.614  1.00  0.00     0.150 C 
HETATM   22  C1  UNL     1      16.547  -0.460  50.152  1.00  0.00     0.092 C 
HETATM   23  O1  UNL     1      16.797   0.650  52.046  1.00  0.00    -0.297 OA
ENDBRANCH  20  21
ENDBRANCH  18  20
ENDBRANCH  17  18
ENDBRANCH  16  17
ENDBRANCH  15  16
ENDBRANCH   1  15
BRANCH   7  24
HETATM   24  C13 UNL     1      26.008   0.634  53.080  1.00  0.00    -0.025 A 
HETATM   25  C14 UNL     1      26.711   1.152  54.140  1.00  0.00     0.012 A 
HETATM   26  C15 UNL     1      27.883   0.597  54.604  1.00  0.00     0.001 A 
HETATM   27  C16 UNL     1      28.389  -0.536  53.981  1.00  0.00     0.000 A 
HETATM   28  C17 UNL     1      27.717  -1.108  52.896  1.00  0.00     0.001 A 
HETATM   29  C18 UNL     1      26.532  -0.510  52.461  1.00  0.00     0.012 A 
ENDBRANCH   7  24
TORSDOF 7
ENDMDL
MODEL 8
REMARK VINA RESULT:      -7.3      3.720      7.459
REMARK  7 active torsions:
REMARK  status: ('A' for Active; 'I' for Inactive)
REMARK    1  A    between atoms: C2_2  and  C3_4 
REMARK    2  A    between atoms: C3_4  and  N1_5 
REMARK    3  A    between atoms: N1_5  and  C4_6 
REMARK    4  A    between atoms: C4_6  and  C5_7 
REMARK    5  A    between atoms: C5_7  and  C6_8 
REMARK    6  A    between atoms: C6_8  and  N2_9 
REMARK    7  A    between atoms: C12_15  and  C13_16 
ROOT
HETATM    1  N2  UNL     1      22.430   0.150  53.178  1.00  0.00    -0.380 N 
HETATM    2  C7  UNL     1      22.753  -1.251  53.428  1.00  0.00     0.128 C 
HETATM    3  C8  UNL     1      21.497  -1.674  54.190  1.00  0.00     0.061 C 
HETATM    4  C9  UNL     1      20.454  -0.901  53.458  1.00  0.00    -0.021 A 
HETATM    5  C10 UNL     1      21.045   0.190  52.858  1.00  0.00     0.038 A 
HETATM    6  C11 UNL     1      20.360   1.124  52.093  1.00  0.00     0.043 A 
HETATM    7  C12 UNL     1      18.981   0.968  51.907  1.00  0.00    -0.007 A 
HETATM    8  C19 UNL     1      18.375  -0.138  52.515  1.00  0.00     0.051 A 
HETATM    9  C20 UNL     1      19.092  -1.049  53.268  1.00  0.00    -0.015 A 
HETATM   10  C21 UNL     1      18.158  -2.109  53.746  1.00  0.00     0.163 A 
HETATM   11  N3  UNL     1      16.856  -1.715  53.271  1.00  0.00    -0.353 N 
HETATM   12  C22 UNL     1      16.974  -0.530  52.496  1.00  0.00     0.253 A 
HETATM   13  O2  UNL     1      16.003   0.023  51.926  1.00  0.00    -0.268 OA
HETATM   14  H25 UNL     1      15.985  -2.243  53.484  1.00  0.00     0.163 HD
ENDROOT
BRANCH   1  15
HETATM   15  C6  UNL     1      23.405   1.233  53.266  1.00  0.00     0.124 C 
BRANCH  15  16
HETATM   16  C5  UNL     1      24.741   0.650  52.950  1.00  0.00     0.050 C 
BRANCH  16  17
HETATM   17  C4  UNL     1      25.919   1.528  53.215  1.00  0.00     0.271 C 
BRANCH  17  18
HETATM   18  N1  UNL     1      26.399   1.522  54.560  1.00  0.00     0.090 N 
HETATM   19  H6  UNL     1      27.173   2.231  54.665  1.00  0.00     0.316 HD
BRANCH  18  20
HETATM   20  C3  UNL     1      27.030   0.243  54.821  1.00  0.00     0.346 C 
BRANCH  20  21
HETATM   21  C2  UNL     1      28.507   0.307  54.539  1.00  0.00     0.150 C 
HETATM   22  C1  UNL     1      29.479  -0.562  53.824  1.00  0.00     0.092 C 
HETATM   23  O1  UNL     1      29.081   1.280  54.978  1.00  0.00    -0.297 OA
ENDBRANCH  20  21
ENDBRANCH  18  20
ENDBRANCH  17  18
ENDBRANCH  16  17
ENDBRANCH  15  16
ENDBRANCH   1  15
BRANCH   7  24
HETATM   24  C13 UNL     1      18.317   1.967  51.118  1.00  0.00    -0.025 A 
HETATM   25  C14 UNL     1      17.677   3.129  51.472  1.00  0.00     0.012 A 
HETATM   26  C15 UNL     1      17.072   3.959  50.555  1.00  0.00     0.001 A 
HETATM   27  C16 UNL     1      17.102   3.619  49.209  1.00  0.00     0.000 A 
HETATM   28  C17 UNL     1      17.739   2.447  48.788  1.00  0.00     0.001 A 
HETATM   29  C18 UNL     1      18.339   1.637  49.755  1.00  0.00     0.012 A 
ENDBRANCH   7  24
TORSDOF 7
ENDMDL
MODEL 9
REMARK VINA RESULT:      -7.3      3.129      6.217
REMARK  7 active torsions:
REMARK  status: ('A' for Active; 'I' for Inactive)
REMARK    1  A    between atoms: C2_2  and  C3_4 
REMARK    2  A    between atoms: C3_4  and  N1_5 
REMARK    3  A    between atoms: N1_5  and  C4_6 
REMARK    4  A    between atoms: C4_6  and  C5_7 
REMARK    5  A    between atoms: C5_7  and  C6_8 
REMARK    6  A    between atoms: C6_8  and  N2_9 
REMARK    7  A    between atoms: C12_15  and  C13_16 
ROOT
HETATM    1  N2  UNL     1      23.871   0.027  53.671  1.00  0.00    -0.380 N 
HETATM    2  C7  UNL     1      23.492  -1.226  54.316  1.00  0.00     0.128 C 
HETATM    3  C8  UNL     1      22.014  -0.942  54.586  1.00  0.00     0.061 C 
HETATM    4  C9  UNL     1      21.647  -0.185  53.355  1.00  0.00    -0.021 A 
HETATM    5  C10 UNL     1      22.785   0.386  52.827  1.00  0.00     0.038 A 
HETATM    6  C11 UNL     1      22.804   1.161  51.676  1.00  0.00     0.043 A 
HETATM    7  C12 UNL     1      21.603   1.392  50.993  1.00  0.00    -0.007 A 
HETATM    8  C19 UNL     1      20.444   0.815  51.527  1.00  0.00     0.051 A 
HETATM    9  C20 UNL     1      20.466   0.047  52.676  1.00  0.00    -0.015 A 
HETATM   10  C21 UNL     1      19.081  -0.431  52.953  1.00  0.00     0.163 A 
HETATM   11  N3  UNL     1      18.258   0.161  51.928  1.00  0.00    -0.353 N 
HETATM   12  C22 UNL     1      19.078   0.903  51.035  1.00  0.00     0.253 A 
HETATM   13  O2  UNL     1      18.635   1.499  50.024  1.00  0.00    -0.268 OA
HETATM   14  H25 UNL     1      17.226   0.042  51.883  1.00  0.00     0.163 HD
ENDROOT
BRANCH   1  15
HETATM   15  C6  UNL     1      25.139   0.708  53.912  1.00  0.00     0.124 C 
BRANCH  15  16
HETATM   16  C5  UNL     1      25.338   1.678  52.797  1.00  0.00     0.050 C 
BRANCH  16  17
HETATM   17  C4  UNL     1      26.721   2.216  52.635  1.00  0.00     0.271 C 
BRANCH  17  18
HETATM   18  N1  UNL     1      27.378   2.598  53.845  1.00  0.00     0.090 N 
HETATM   19  H6  UNL     1      27.334   3.646  53.958  1.00  0.00     0.316 HD
BRANCH  18  20
HETATM   20  C3  UNL     1      28.790   2.296  53.719  1.00  0.00     0.346 C 
BRANCH  20  21
HETATM   21  C2  UNL     1      29.075   0.883  54.151  1.00  0.00     0.150 C 
HETATM   22  C1  UNL     1      29.866  -0.247  53.595  1.00  0.00     0.092 C 
HETATM   23  O1  UNL     1      28.560   0.541  55.194  1.00  0.00    -0.297 OA
ENDBRANCH  20  21
ENDBRANCH  18  20
ENDBRANCH  17  18
ENDBRANCH  16  17
ENDBRANCH  15  16
ENDBRANCH   1  15
BRANCH   7  24
HETATM   24  C13 UNL     1      21.674   2.210  49.816  1.00  0.00    -0.025 A 
HETATM   25  C14 UNL     1      21.365   3.531  49.606  1.00  0.00     0.012 A 
HETATM   26  C15 UNL     1      21.482   4.141  48.376  1.00  0.00     0.001 A 
HETATM   27  C16 UNL     1      21.931   3.399  47.292  1.00  0.00     0.000 A 
HETATM   28  C17 UNL     1      22.261   2.048  47.445  1.00  0.00     0.001 A 
HETATM   29  C18 UNL     1      22.126   1.474  48.711  1.00  0.00     0.012 A 
ENDBRANCH   7  24
TORSDOF 7
ENDMDL
