MODEL 1
REMARK VINA RESULT:      -8.1      0.000      0.000
REMARK  8 active torsions:
REMARK  status: ('A' for Active; 'I' for Inactive)
REMARK    1  A    between atoms: C2_2  and  N1_4 
REMARK    2  A    between atoms: N1_4  and  C4_5 
REMARK    3  A    between atoms: N1_4  and  C20_27 
REMARK    4  A    between atoms: C4_5  and  C5_6 
REMARK    5  A    between atoms: C6_7  and  C7_8 
REMARK       I    between atoms: C7_8  and  N2_10 
REMARK    6  A    between atoms: N2_10  and  C8_11 
REMARK    7  A    between atoms: C9_12  and  C10_13 
REMARK    8  A    between atoms: C13_16  and  C14_17 
ROOT
HETATM    1  C8  UNL     1      26.709   6.934  49.166  1.00  0.00     0.092 C 
HETATM    2  C9  UNL     1      25.734   6.212  49.592  1.00  0.00     0.019 C 
ENDROOT
BRANCH   1   3
HETATM    3  N2  UNL     1      28.030   6.922  48.664  1.00  0.00    -0.326 N 
HETATM    4  C7  UNL     1      28.877   5.871  48.301  1.00  0.00     0.300 C 
HETATM    5  O1  UNL     1      28.508   4.674  48.389  1.00  0.00    -0.258 OA
HETATM    6  H10 UNL     1      28.579   7.816  48.492  1.00  0.00     0.169 HD
BRANCH   4   7
HETATM    7  C6  UNL     1      30.216   5.984  47.801  1.00  0.00    -0.004 C 
HETATM    8  C5  UNL     1      31.343   6.059  47.384  1.00  0.00    -0.077 C 
BRANCH   8   9
HETATM    9  C4  UNL     1      32.730   6.127  46.875  1.00  0.00     0.212 C 
BRANCH   9  10
HETATM   10  N1  UNL     1      33.638   5.466  47.737  1.00  0.00    -0.395 N 
BRANCH  10  11
HETATM   11  C2  UNL     1      34.293   6.308  48.639  1.00  0.00     0.072 C 
HETATM   12  C1  UNL     1      35.454   5.531  49.262  1.00  0.00     0.031 C 
HETATM   13  C3  UNL     1      34.781   7.629  48.189  1.00  0.00     0.031 C 
ENDBRANCH  10  11
BRANCH  10  14
HETATM   14  C20 UNL     1      34.141   4.215  47.377  1.00  0.00     0.072 C 
HETATM   15  C21 UNL     1      33.219   3.040  47.602  1.00  0.00     0.031 C 
HETATM   16  C22 UNL     1      34.390   4.237  45.862  1.00  0.00     0.031 C 
ENDBRANCH  10  14
ENDBRANCH   9  10
ENDBRANCH   8   9
ENDBRANCH   4   7
ENDBRANCH   1   3
BRANCH   2  17
HETATM   17  C10 UNL     1      25.493   4.795  49.791  1.00  0.00     0.029 C 
HETATM   18  C11 UNL     1      24.709   4.163  50.650  1.00  0.00     0.041 A 
HETATM   19  C12 UNL     1      24.532   2.701  50.774  1.00  0.00     0.115 A 
HETATM   20  N4  UNL     1      24.035   5.107  51.469  1.00  0.00    -0.246 NA
HETATM   21  C13 UNL     1      23.560   2.481  51.868  1.00  0.00     0.031 A 
HETATM   22  N3  UNL     1      22.981   3.362  52.575  1.00  0.00    -0.249 NA
HETATM   23  C19 UNL     1      23.205   4.769  52.396  1.00  0.00     0.233 A 
BRANCH  21  24
HETATM   24  C14 UNL     1      23.416   1.006  51.949  1.00  0.00     0.084 A 
HETATM   25  C15 UNL     1      24.521   0.378  52.747  1.00  0.00     0.032 A 
HETATM   26  C16 UNL     1      23.957  -0.243  53.772  1.00  0.00     0.135 A 
HETATM   27  F1  UNL     1      24.663  -0.919  54.698  1.00  0.00    -0.205 F 
HETATM   28  C17 UNL     1      22.510  -0.086  53.742  1.00  0.00     0.069 A 
HETATM   29 CL1  UNL     1      21.328  -0.700  54.843  1.00  0.00    -0.081 Cl
HETATM   30  C18 UNL     1      22.205   0.632  52.693  1.00  0.00     0.015 A 
ENDBRANCH  21  24
ENDBRANCH   2  17
TORSDOF 8
ENDMDL
MODEL 2
REMARK VINA RESULT:      -8.1      2.579      3.329
REMARK  8 active torsions:
REMARK  status: ('A' for Active; 'I' for Inactive)
REMARK    1  A    between atoms: C2_2  and  N1_4 
REMARK    2  A    between atoms: N1_4  and  C4_5 
REMARK    3  A    between atoms: N1_4  and  C20_27 
REMARK    4  A    between atoms: C4_5  and  C5_6 
REMARK    5  A    between atoms: C6_7  and  C7_8 
REMARK       I    between atoms: C7_8  and  N2_10 
REMARK    6  A    between atoms: N2_10  and  C8_11 
REMARK    7  A    between atoms: C9_12  and  C10_13 
REMARK    8  A    between atoms: C13_16  and  C14_17 
ROOT
HETATM    1  C8  UNL     1      26.785   5.563  48.858  1.00  0.00     0.092 C 
HETATM    2  C9  UNL     1      26.209   4.515  49.331  1.00  0.00     0.019 C 
ENDROOT
BRANCH   1   3
HETATM    3  N2  UNL     1      27.995   6.288  48.784  1.00  0.00    -0.326 N 
HETATM    4  C7  UNL     1      29.281   5.914  48.384  1.00  0.00     0.300 C 
HETATM    5  O1  UNL     1      29.530   4.748  47.993  1.00  0.00    -0.258 OA
HETATM    6  H10 UNL     1      28.059   7.313  49.060  1.00  0.00     0.169 HD
BRANCH   4   7
HETATM    7  C6  UNL     1      30.447   6.749  48.356  1.00  0.00    -0.004 C 
HETATM    8  C5  UNL     1      31.429   7.444  48.313  1.00  0.00    -0.077 C 
BRANCH   8   9
HETATM    9  C4  UNL     1      32.640   8.290  48.238  1.00  0.00     0.212 C 
BRANCH   9  10
HETATM   10  N1  UNL     1      33.653   7.687  47.454  1.00  0.00    -0.395 N 
BRANCH  10  11
HETATM   11  C2  UNL     1      34.295   6.611  48.070  1.00  0.00     0.072 C 
HETATM   12  C1  UNL     1      34.341   5.449  47.076  1.00  0.00     0.031 C 
HETATM   13  C3  UNL     1      35.638   6.797  48.660  1.00  0.00     0.031 C 
ENDBRANCH  10  11
BRANCH  10  14
HETATM   14  C20 UNL     1      34.231   8.407  46.406  1.00  0.00     0.072 C 
HETATM   15  C21 UNL     1      33.441   8.454  45.120  1.00  0.00     0.031 C 
HETATM   16  C22 UNL     1      34.339   9.871  46.858  1.00  0.00     0.031 C 
ENDBRANCH  10  14
ENDBRANCH   9  10
ENDBRANCH   8   9
ENDBRANCH   4   7
ENDBRANCH   1   3
BRANCH   2  17
HETATM   17  C10 UNL     1      26.602   3.391  50.160  1.00  0.00     0.029 C 
HETATM   18  C11 UNL     1      25.995   2.817  51.186  1.00  0.00     0.041 A 
HETATM   19  C12 UNL     1      26.483   1.665  51.971  1.00  0.00     0.115 A 
HETATM   20  N4  UNL     1      24.765   3.478  51.446  1.00  0.00    -0.246 NA
HETATM   21  C13 UNL     1      25.461   1.391  53.007  1.00  0.00     0.031 A 
HETATM   22  N3  UNL     1      24.373   2.013  53.201  1.00  0.00    -0.249 NA
HETATM   23  C19 UNL     1      23.963   3.129  52.394  1.00  0.00     0.233 A 
BRANCH  21  24
HETATM   24  C14 UNL     1      25.996   0.230  53.761  1.00  0.00     0.084 A 
HETATM   25  C15 UNL     1      25.739  -1.067  53.050  1.00  0.00     0.032 A 
HETATM   26  C16 UNL     1      26.920  -1.615  52.803  1.00  0.00     0.135 A 
HETATM   27  F1  UNL     1      27.061  -2.795  52.171  1.00  0.00    -0.205 F 
HETATM   28  C17 UNL     1      27.998  -0.773  53.301  1.00  0.00     0.069 A 
HETATM   29 CL1  UNL     1      29.704  -1.038  53.229  1.00  0.00    -0.081 Cl
HETATM   30  C18 UNL     1      27.461   0.285  53.851  1.00  0.00     0.015 A 
ENDBRANCH  21  24
ENDBRANCH   2  17
TORSDOF 8
ENDMDL
MODEL 3
REMARK VINA RESULT:      -8.0      4.353     10.509
REMARK  8 active torsions:
REMARK  status: ('A' for Active; 'I' for Inactive)
REMARK    1  A    between atoms: C2_2  and  N1_4 
REMARK    2  A    between atoms: N1_4  and  C4_5 
REMARK    3  A    between atoms: N1_4  and  C20_27 
REMARK    4  A    between atoms: C4_5  and  C5_6 
REMARK    5  A    between atoms: C6_7  and  C7_8 
REMARK       I    between atoms: C7_8  and  N2_10 
REMARK    6  A    between atoms: N2_10  and  C8_11 
REMARK    7  A    between atoms: C9_12  and  C10_13 
REMARK    8  A    between atoms: C13_16  and  C14_17 
ROOT
HETATM    1  C8  UNL     1      26.469   6.043  49.129  1.00  0.00     0.092 C 
HETATM    2  C9  UNL     1      27.528   6.218  48.422  1.00  0.00     0.019 C 
ENDROOT
BRANCH   1   3
HETATM    3  N2  UNL     1      25.833   5.217  50.084  1.00  0.00    -0.326 N 
HETATM    4  C7  UNL     1      25.855   3.833  50.276  1.00  0.00     0.300 C 
HETATM    5  O1  UNL     1      26.529   3.079  49.532  1.00  0.00    -0.258 OA
HETATM    6  H10 UNL     1      25.198   5.610  50.840  1.00  0.00     0.169 HD
BRANCH   4   7
HETATM    7  C6  UNL     1      25.156   3.098  51.291  1.00  0.00    -0.004 C 
HETATM    8  C5  UNL     1      24.553   2.491  52.139  1.00  0.00    -0.077 C 
BRANCH   8   9
HETATM    9  C4  UNL     1      23.792   1.758  53.172  1.00  0.00     0.212 C 
BRANCH   9  10
HETATM   10  N1  UNL     1      24.361   0.490  53.442  1.00  0.00    -0.395 N 
BRANCH  10  11
HETATM   11  C2  UNL     1      25.744   0.427  53.256  1.00  0.00     0.072 C 
HETATM   12  C1  UNL     1      26.415   0.512  54.629  1.00  0.00     0.031 C 
HETATM   13  C3  UNL     1      26.334  -0.696  52.498  1.00  0.00     0.031 C 
ENDBRANCH  10  11
BRANCH  10  14
HETATM   14  C20 UNL     1      23.550  -0.646  53.426  1.00  0.00     0.072 C 
HETATM   15  C21 UNL     1      23.028  -1.108  54.766  1.00  0.00     0.031 C 
HETATM   16  C22 UNL     1      22.295  -0.302  52.610  1.00  0.00     0.031 C 
ENDBRANCH  10  14
ENDBRANCH   9  10
ENDBRANCH   8   9
ENDBRANCH   4   7
ENDBRANCH   1   3
BRANCH   2  17
HETATM   17  C10 UNL     1      28.789   5.523  48.240  1.00  0.00     0.029 C 
HETATM   18  C11 UNL     1      30.036   5.963  48.298  1.00  0.00     0.041 A 
HETATM   19  C12 UNL     1      31.264   5.168  48.097  1.00  0.00     0.115 A 
HETATM   20  N4  UNL     1      30.041   7.354  48.589  1.00  0.00    -0.246 NA
HETATM   21  C13 UNL     1      32.406   6.097  48.260  1.00  0.00     0.031 A 
HETATM   22  N3  UNL     1      32.359   7.338  48.521  1.00  0.00    -0.249 NA
HETATM   23  C19 UNL     1      31.123   8.045  48.704  1.00  0.00     0.233 A 
BRANCH  21  24
HETATM   24  C14 UNL     1      33.608   5.252  48.052  1.00  0.00     0.084 A 
HETATM   25  C15 UNL     1      33.262   3.793  47.976  1.00  0.00     0.032 A 
HETATM   26  C16 UNL     1      33.653   3.363  46.785  1.00  0.00     0.135 A 
HETATM   27  F1  UNL     1      33.494   2.089  46.379  1.00  0.00    -0.205 F 
HETATM   28  C17 UNL     1      34.256   4.441  46.016  1.00  0.00     0.069 A 
HETATM   29 CL1  UNL     1      34.918   4.397  44.420  1.00  0.00    -0.081 Cl
HETATM   30  C18 UNL     1      34.227   5.524  46.748  1.00  0.00     0.015 A 
ENDBRANCH  21  24
ENDBRANCH   2  17
TORSDOF 8
ENDMDL
MODEL 4
REMARK VINA RESULT:      -8.0      1.719      2.440
REMARK  8 active torsions:
REMARK  status: ('A' for Active; 'I' for Inactive)
REMARK    1  A    between atoms: C2_2  and  N1_4 
REMARK    2  A    between atoms: N1_4  and  C4_5 
REMARK    3  A    between atoms: N1_4  and  C20_27 
REMARK    4  A    between atoms: C4_5  and  C5_6 
REMARK    5  A    between atoms: C6_7  and  C7_8 
REMARK       I    between atoms: C7_8  and  N2_10 
REMARK    6  A    between atoms: N2_10  and  C8_11 
REMARK    7  A    between atoms: C9_12  and  C10_13 
REMARK    8  A    between atoms: C13_16  and  C14_17 
ROOT
HETATM    1  C8  UNL     1      26.213   6.897  48.299  1.00  0.00     0.092 C 
HETATM    2  C9  UNL     1      25.183   6.653  49.029  1.00  0.00     0.019 C 
ENDROOT
BRANCH   1   3
HETATM    3  N2  UNL     1      27.596   6.663  48.126  1.00  0.00    -0.326 N 
HETATM    4  C7  UNL     1      28.374   5.516  48.308  1.00  0.00     0.300 C 
HETATM    5  O1  UNL     1      27.864   4.434  48.688  1.00  0.00    -0.258 OA
HETATM    6  H10 UNL     1      28.264   7.424  47.803  1.00  0.00     0.169 HD
BRANCH   4   7
HETATM    7  C6  UNL     1      29.788   5.399  48.102  1.00  0.00    -0.004 C 
HETATM    8  C5  UNL     1      30.979   5.302  47.948  1.00  0.00    -0.077 C 
BRANCH   8   9
HETATM    9  C4  UNL     1      32.443   5.185  47.784  1.00  0.00     0.212 C 
BRANCH   9  10
HETATM   10  N1  UNL     1      32.787   4.613  46.535  1.00  0.00    -0.395 N 
BRANCH  10  11
HETATM   11  C2  UNL     1      33.482   3.406  46.626  1.00  0.00     0.072 C 
HETATM   12  C1  UNL     1      34.632   3.589  47.618  1.00  0.00     0.031 C 
HETATM   13  C3  UNL     1      32.754   2.162  46.953  1.00  0.00     0.031 C 
ENDBRANCH  10  11
BRANCH  10  14
HETATM   14  C20 UNL     1      32.831   5.422  45.398  1.00  0.00     0.072 C 
HETATM   15  C21 UNL     1      33.686   6.663  45.499  1.00  0.00     0.031 C 
HETATM   16  C22 UNL     1      33.467   4.595  44.270  1.00  0.00     0.031 C 
ENDBRANCH  10  14
ENDBRANCH   9  10
ENDBRANCH   8   9
ENDBRANCH   4   7
ENDBRANCH   1   3
BRANCH   2  17
HETATM   17  C10 UNL     1      24.914   5.888  50.232  1.00  0.00     0.029 C 
HETATM   18  C11 UNL     1      24.351   4.701  50.395  1.00  0.00     0.041 A 
HETATM   19  C12 UNL     1      24.120   4.001  51.675  1.00  0.00     0.115 A 
HETATM   20  N4  UNL     1      23.982   4.167  49.132  1.00  0.00    -0.246 NA
HETATM   21  C13 UNL     1      23.466   2.714  51.346  1.00  0.00     0.031 A 
HETATM   22  N3  UNL     1      23.155   2.280  50.195  1.00  0.00    -0.249 NA
HETATM   23  C19 UNL     1      23.411   3.020  48.991  1.00  0.00     0.233 A 
BRANCH  21  24
HETATM   24  C14 UNL     1      23.260   2.053  52.658  1.00  0.00     0.084 A 
HETATM   25  C15 UNL     1      22.338   0.873  52.553  1.00  0.00     0.032 A 
HETATM   26  C16 UNL     1      23.021  -0.192  52.947  1.00  0.00     0.135 A 
HETATM   27  F1  UNL     1      22.494  -1.429  52.978  1.00  0.00    -0.205 F 
HETATM   28  C17 UNL     1      24.379   0.173  53.324  1.00  0.00     0.069 A 
HETATM   29 CL1  UNL     1      25.655  -0.839  53.901  1.00  0.00    -0.081 Cl
HETATM   30  C18 UNL     1      24.511   1.464  53.157  1.00  0.00     0.015 A 
ENDBRANCH  21  24
ENDBRANCH   2  17
TORSDOF 8
ENDMDL
MODEL 5
REMARK VINA RESULT:      -8.0      1.726      2.357
REMARK  8 active torsions:
REMARK  status: ('A' for Active; 'I' for Inactive)
REMARK    1  A    between atoms: C2_2  and  N1_4 
REMARK    2  A    between atoms: N1_4  and  C4_5 
REMARK    3  A    between atoms: N1_4  and  C20_27 
REMARK    4  A    between atoms: C4_5  and  C5_6 
REMARK    5  A    between atoms: C6_7  and  C7_8 
REMARK       I    between atoms: C7_8  and  N2_10 
REMARK    6  A    between atoms: N2_10  and  C8_11 
REMARK    7  A    between atoms: C9_12  and  C10_13 
REMARK    8  A    between atoms: C13_16  and  C14_17 
ROOT
HETATM    1  C8  UNL     1      26.075   5.873  49.152  1.00  0.00     0.092 C 
HETATM    2  C9  UNL     1      24.892   5.399  49.317  1.00  0.00     0.019 C 
ENDROOT
BRANCH   1   3
HETATM    3  N2  UNL     1      27.441   5.553  48.986  1.00  0.00    -0.326 N 
HETATM    4  C7  UNL     1      28.435   6.113  48.178  1.00  0.00     0.300 C 
HETATM    5  O1  UNL     1      28.193   7.085  47.422  1.00  0.00    -0.258 OA
HETATM    6  H10 UNL     1      27.907   4.760  49.519  1.00  0.00     0.169 HD
BRANCH   4   7
HETATM    7  C6  UNL     1      29.804   5.694  48.090  1.00  0.00    -0.004 C 
HETATM    8  C5  UNL     1      30.958   5.354  48.032  1.00  0.00    -0.077 C 
BRANCH   8   9
HETATM    9  C4  UNL     1      32.379   4.950  47.981  1.00  0.00     0.212 C 
BRANCH   9  10
HETATM   10  N1  UNL     1      32.744   4.475  46.698  1.00  0.00    -0.395 N 
BRANCH  10  11
HETATM   11  C2  UNL     1      33.438   3.264  46.707  1.00  0.00     0.072 C 
HETATM   12  C1  UNL     1      34.605   3.389  47.687  1.00  0.00     0.031 C 
HETATM   13  C3  UNL     1      32.712   2.004  46.977  1.00  0.00     0.031 C 
ENDBRANCH  10  11
BRANCH  10  14
HETATM   14  C20 UNL     1      32.807   5.369  45.627  1.00  0.00     0.072 C 
HETATM   15  C21 UNL     1      33.782   6.513  45.775  1.00  0.00     0.031 C 
HETATM   16  C22 UNL     1      33.301   4.584  44.402  1.00  0.00     0.031 C 
ENDBRANCH  10  14
ENDBRANCH   9  10
ENDBRANCH   8   9
ENDBRANCH   4   7
ENDBRANCH   1   3
BRANCH   2  17
HETATM   17  C10 UNL     1      24.302   4.078  49.431  1.00  0.00     0.029 C 
HETATM   18  C11 UNL     1      23.919   3.389  50.494  1.00  0.00     0.041 A 
HETATM   19  C12 UNL     1      23.323   2.038  50.505  1.00  0.00     0.115 A 
HETATM   20  N4  UNL     1      24.163   4.148  51.670  1.00  0.00    -0.246 NA
HETATM   21  C13 UNL     1      23.065   1.696  51.922  1.00  0.00     0.031 A 
HETATM   22  N3  UNL     1      23.302   2.411  52.943  1.00  0.00    -0.249 NA
HETATM   23  C19 UNL     1      23.886   3.720  52.854  1.00  0.00     0.233 A 
BRANCH  21  24
HETATM   24  C14 UNL     1      22.468   0.338  51.877  1.00  0.00     0.084 A 
HETATM   25  C15 UNL     1      22.554  -0.357  53.204  1.00  0.00     0.032 A 
HETATM   26  C16 UNL     1      21.313  -0.620  53.587  1.00  0.00     0.135 A 
HETATM   27  F1  UNL     1      21.020  -1.243  54.743  1.00  0.00    -0.205 F 
HETATM   28  C17 UNL     1      20.354  -0.146  52.600  1.00  0.00     0.069 A 
HETATM   29 CL1  UNL     1      18.628  -0.246  52.627  1.00  0.00    -0.081 Cl
HETATM   30  C18 UNL     1      21.022   0.403  51.619  1.00  0.00     0.015 A 
ENDBRANCH  21  24
ENDBRANCH   2  17
TORSDOF 8
ENDMDL
MODEL 6
REMARK VINA RESULT:      -7.9      3.059      4.196
REMARK  8 active torsions:
REMARK  status: ('A' for Active; 'I' for Inactive)
REMARK    1  A    between atoms: C2_2  and  N1_4 
REMARK    2  A    between atoms: N1_4  and  C4_5 
REMARK    3  A    between atoms: N1_4  and  C20_27 
REMARK    4  A    between atoms: C4_5  and  C5_6 
REMARK    5  A    between atoms: C6_7  and  C7_8 
REMARK       I    between atoms: C7_8  and  N2_10 
REMARK    6  A    between atoms: N2_10  and  C8_11 
REMARK    7  A    between atoms: C9_12  and  C10_13 
REMARK    8  A    between atoms: C13_16  and  C14_17 
ROOT
HETATM    1  C8  UNL     1      23.954   6.083  51.069  1.00  0.00     0.092 C 
HETATM    2  C9  UNL     1      23.377   5.273  51.884  1.00  0.00     0.019 C 
ENDROOT
BRANCH   1   3
HETATM    3  N2  UNL     1      25.166   6.413  50.423  1.00  0.00    -0.326 N 
HETATM    4  C7  UNL     1      25.516   6.458  49.070  1.00  0.00     0.300 C 
HETATM    5  O1  UNL     1      24.686   6.179  48.170  1.00  0.00    -0.258 OA
HETATM    6  H10 UNL     1      26.038   6.692  50.962  1.00  0.00     0.169 HD
BRANCH   4   7
HETATM    7  C6  UNL     1      26.797   6.808  48.528  1.00  0.00    -0.004 C 
HETATM    8  C5  UNL     1      27.868   7.121  48.075  1.00  0.00    -0.077 C 
BRANCH   8   9
HETATM    9  C4  UNL     1      29.178   7.530  47.524  1.00  0.00     0.212 C 
BRANCH   9  10
HETATM   10  N1  UNL     1      30.223   7.342  48.461  1.00  0.00    -0.395 N 
BRANCH  10  11
HETATM   11  C2  UNL     1      31.031   8.464  48.655  1.00  0.00     0.072 C 
HETATM   12  C1  UNL     1      31.538   8.930  47.289  1.00  0.00     0.031 C 
HETATM   13  C3  UNL     1      30.505   9.629  49.398  1.00  0.00     0.031 C 
ENDBRANCH  10  11
BRANCH  10  14
HETATM   14  C20 UNL     1      30.648   6.048  48.767  1.00  0.00     0.072 C 
HETATM   15  C21 UNL     1      31.152   5.224  47.605  1.00  0.00     0.031 C 
HETATM   16  C22 UNL     1      31.850   6.172  49.715  1.00  0.00     0.031 C 
ENDBRANCH  10  14
ENDBRANCH   9  10
ENDBRANCH   8   9
ENDBRANCH   4   7
ENDBRANCH   1   3
BRANCH   2  17
HETATM   17  C10 UNL     1      23.776   4.114  52.661  1.00  0.00     0.029 C 
HETATM   18  C11 UNL     1      24.697   3.192  52.429  1.00  0.00     0.041 A 
HETATM   19  C12 UNL     1      25.030   2.040  53.292  1.00  0.00     0.115 A 
HETATM   20  N4  UNL     1      25.348   3.463  51.197  1.00  0.00    -0.246 NA
HETATM   21  C13 UNL     1      26.118   1.300  52.613  1.00  0.00     0.031 A 
HETATM   22  N3  UNL     1      26.671   1.583  51.507  1.00  0.00    -0.249 NA
HETATM   23  C19 UNL     1      26.292   2.725  50.721  1.00  0.00     0.233 A 
BRANCH  21  24
HETATM   24  C14 UNL     1      26.416   0.161  53.517  1.00  0.00     0.084 A 
HETATM   25  C15 UNL     1      26.209  -1.162  52.838  1.00  0.00     0.032 A 
HETATM   26  C16 UNL     1      27.374  -1.794  52.854  1.00  0.00     0.135 A 
HETATM   27  F1  UNL     1      27.549  -3.019  52.324  1.00  0.00    -0.205 F 
HETATM   28  C17 UNL     1      28.393  -0.987  53.508  1.00  0.00     0.069 A 
HETATM   29 CL1  UNL     1      30.059  -1.355  53.783  1.00  0.00    -0.081 Cl
HETATM   30  C18 UNL     1      27.838   0.135  53.887  1.00  0.00     0.015 A 
ENDBRANCH  21  24
ENDBRANCH   2  17
TORSDOF 8
ENDMDL
MODEL 7
REMARK VINA RESULT:      -7.6      3.728      4.814
REMARK  8 active torsions:
REMARK  status: ('A' for Active; 'I' for Inactive)
REMARK    1  A    between atoms: C2_2  and  N1_4 
REMARK    2  A    between atoms: N1_4  and  C4_5 
REMARK    3  A    between atoms: N1_4  and  C20_27 
REMARK    4  A    between atoms: C4_5  and  C5_6 
REMARK    5  A    between atoms: C6_7  and  C7_8 
REMARK       I    between atoms: C7_8  and  N2_10 
REMARK    6  A    between atoms: N2_10  and  C8_11 
REMARK    7  A    between atoms: C9_12  and  C10_13 
REMARK    8  A    between atoms: C13_16  and  C14_17 
ROOT
HETATM    1  C8  UNL     1      26.375   5.294  48.943  1.00  0.00     0.092 C 
HETATM    2  C9  UNL     1      25.937   4.141  49.308  1.00  0.00     0.019 C 
ENDROOT
BRANCH   1   3
HETATM    3  N2  UNL     1      27.441   6.215  49.044  1.00  0.00    -0.326 N 
HETATM    4  C7  UNL     1      27.696   7.418  48.377  1.00  0.00     0.300 C 
HETATM    5  O1  UNL     1      26.905   7.867  47.513  1.00  0.00    -0.258 OA
HETATM    6  H10 UNL     1      28.254   6.071  49.713  1.00  0.00     0.169 HD
BRANCH   4   7
HETATM    7  C6  UNL     1      28.830   8.276  48.564  1.00  0.00    -0.004 C 
HETATM    8  C5  UNL     1      29.771   9.009  48.732  1.00  0.00    -0.077 C 
BRANCH   8   9
HETATM    9  C4  UNL     1      30.912   9.922  48.954  1.00  0.00     0.212 C 
BRANCH   9  10
HETATM   10  N1  UNL     1      31.195  10.698  47.803  1.00  0.00    -0.395 N 
BRANCH  10  11
HETATM   11  C2  UNL     1      32.237  10.203  47.016  1.00  0.00     0.072 C 
HETATM   12  C1  UNL     1      33.030  11.392  46.470  1.00  0.00     0.031 C 
HETATM   13  C3  UNL     1      33.177   9.212  47.581  1.00  0.00     0.031 C 
ENDBRANCH  10  11
BRANCH  10  14
HETATM   14  C20 UNL     1      30.787  12.032  47.756  1.00  0.00     0.072 C 
HETATM   15  C21 UNL     1      29.444  12.293  47.114  1.00  0.00     0.031 C 
HETATM   16  C22 UNL     1      30.633  12.517  49.205  1.00  0.00     0.031 C 
ENDBRANCH  10  14
ENDBRANCH   9  10
ENDBRANCH   8   9
ENDBRANCH   4   7
ENDBRANCH   1   3
BRANCH   2  17
HETATM   17  C10 UNL     1      26.420   3.057  50.143  1.00  0.00     0.029 C 
HETATM   18  C11 UNL     1      25.924   2.532  51.253  1.00  0.00     0.041 A 
HETATM   19  C12 UNL     1      26.497   1.418  52.036  1.00  0.00     0.115 A 
HETATM   20  N4  UNL     1      24.724   3.204  51.607  1.00  0.00    -0.246 NA
HETATM   21  C13 UNL     1      25.589   1.193  53.183  1.00  0.00     0.031 A 
HETATM   22  N3  UNL     1      24.523   1.823  53.459  1.00  0.00    -0.249 NA
HETATM   23  C19 UNL     1      24.027   2.899  52.647  1.00  0.00     0.233 A 
BRANCH  21  24
HETATM   24  C14 UNL     1      26.204   0.069  53.932  1.00  0.00     0.084 A 
HETATM   25  C15 UNL     1      26.038  -1.240  53.215  1.00  0.00     0.032 A 
HETATM   26  C16 UNL     1      27.254  -1.703  52.964  1.00  0.00     0.135 A 
HETATM   27  F1  UNL     1      27.477  -2.867  52.327  1.00  0.00    -0.205 F 
HETATM   28  C17 UNL     1      28.271  -0.790  53.465  1.00  0.00     0.069 A 
HETATM   29 CL1  UNL     1      29.992  -0.934  53.391  1.00  0.00    -0.081 Cl
HETATM   30  C18 UNL     1      27.663   0.226  54.020  1.00  0.00     0.015 A 
ENDBRANCH  21  24
ENDBRANCH   2  17
TORSDOF 8
ENDMDL
MODEL 8
REMARK VINA RESULT:      -7.5      2.135      2.756
REMARK  8 active torsions:
REMARK  status: ('A' for Active; 'I' for Inactive)
REMARK    1  A    between atoms: C2_2  and  N1_4 
REMARK    2  A    between atoms: N1_4  and  C4_5 
REMARK    3  A    between atoms: N1_4  and  C20_27 
REMARK    4  A    between atoms: C4_5  and  C5_6 
REMARK    5  A    between atoms: C6_7  and  C7_8 
REMARK       I    between atoms: C7_8  and  N2_10 
REMARK    6  A    between atoms: N2_10  and  C8_11 
REMARK    7  A    between atoms: C9_12  and  C10_13 
REMARK    8  A    between atoms: C13_16  and  C14_17 
ROOT
HETATM    1  C8  UNL     1      26.704   6.100  48.581  1.00  0.00     0.092 C 
HETATM    2  C9  UNL     1      26.155   5.063  49.107  1.00  0.00     0.019 C 
ENDROOT
BRANCH   1   3
HETATM    3  N2  UNL     1      27.923   6.772  48.342  1.00  0.00    -0.326 N 
HETATM    4  C7  UNL     1      29.221   6.297  48.128  1.00  0.00     0.300 C 
HETATM    5  O1  UNL     1      29.474   5.067  48.121  1.00  0.00    -0.258 OA
HETATM    6  H10 UNL     1      27.987   7.832  48.296  1.00  0.00     0.169 HD
BRANCH   4   7
HETATM    7  C6  UNL     1      30.395   7.087  47.897  1.00  0.00    -0.004 C 
HETATM    8  C5  UNL     1      31.370   7.763  47.692  1.00  0.00    -0.077 C 
BRANCH   8   9
HETATM    9  C4  UNL     1      32.553   8.609  47.428  1.00  0.00     0.212 C 
BRANCH   9  10
HETATM   10  N1  UNL     1      33.660   7.842  46.991  1.00  0.00    -0.395 N 
BRANCH  10  11
HETATM   11  C2  UNL     1      34.135   8.186  45.723  1.00  0.00     0.072 C 
HETATM   12  C1  UNL     1      32.932   8.359  44.793  1.00  0.00     0.031 C 
HETATM   13  C3  UNL     1      35.038   9.345  45.567  1.00  0.00     0.031 C 
ENDBRANCH  10  11
BRANCH  10  14
HETATM   14  C20 UNL     1      33.907   6.597  47.573  1.00  0.00     0.072 C 
HETATM   15  C21 UNL     1      34.247   5.475  46.621  1.00  0.00     0.031 C 
HETATM   16  C22 UNL     1      35.147   6.746  48.467  1.00  0.00     0.031 C 
ENDBRANCH  10  14
ENDBRANCH   9  10
ENDBRANCH   8   9
ENDBRANCH   4   7
ENDBRANCH   1   3
BRANCH   2  17
HETATM   17  C10 UNL     1      26.614   3.892  49.831  1.00  0.00     0.029 C 
HETATM   18  C11 UNL     1      25.942   2.977  50.513  1.00  0.00     0.041 A 
HETATM   19  C12 UNL     1      26.508   1.811  51.221  1.00  0.00     0.115 A 
HETATM   20  N4  UNL     1      24.554   3.274  50.475  1.00  0.00    -0.246 NA
HETATM   21  C13 UNL     1      25.368   1.087  51.829  1.00  0.00     0.031 A 
HETATM   22  N3  UNL     1      24.139   1.393  51.767  1.00  0.00    -0.249 NA
HETATM   23  C19 UNL     1      23.662   2.548  51.057  1.00  0.00     0.233 A 
BRANCH  21  24
HETATM   24  C14 UNL     1      25.987  -0.071  52.522  1.00  0.00     0.084 A 
HETATM   25  C15 UNL     1      27.312   0.284  53.132  1.00  0.00     0.032 A 
HETATM   26  C16 UNL     1      27.207   0.074  54.437  1.00  0.00     0.135 A 
HETATM   27  F1  UNL     1      28.219   0.292  55.296  1.00  0.00    -0.205 F 
HETATM   28  C17 UNL     1      25.878  -0.409  54.780  1.00  0.00     0.069 A 
HETATM   29 CL1  UNL     1      25.241  -0.827  56.332  1.00  0.00    -0.081 Cl
HETATM   30  C18 UNL     1      25.181  -0.490  53.676  1.00  0.00     0.015 A 
ENDBRANCH  21  24
ENDBRANCH   2  17
TORSDOF 8
ENDMDL
MODEL 9
REMARK VINA RESULT:      -7.5      1.229      1.950
REMARK  8 active torsions:
REMARK  status: ('A' for Active; 'I' for Inactive)
REMARK    1  A    between atoms: C2_2  and  N1_4 
REMARK    2  A    between atoms: N1_4  and  C4_5 
REMARK    3  A    between atoms: N1_4  and  C20_27 
REMARK    4  A    between atoms: C4_5  and  C5_6 
REMARK    5  A    between atoms: C6_7  and  C7_8 
REMARK       I    between atoms: C7_8  and  N2_10 
REMARK    6  A    between atoms: N2_10  and  C8_11 
REMARK    7  A    between atoms: C9_12  and  C10_13 
REMARK    8  A    between atoms: C13_16  and  C14_17 
ROOT
HETATM    1  C8  UNL     1      26.276   7.136  49.267  1.00  0.00     0.092 C 
HETATM    2  C9  UNL     1      25.321   6.278  49.333  1.00  0.00     0.019 C 
ENDROOT
BRANCH   1   3
HETATM    3  N2  UNL     1      27.674   7.326  49.344  1.00  0.00    -0.326 N 
HETATM    4  C7  UNL     1      28.645   7.500  48.353  1.00  0.00     0.300 C 
HETATM    5  O1  UNL     1      28.341   7.512  47.136  1.00  0.00    -0.258 OA
HETATM    6  H10 UNL     1      28.191   7.358  50.272  1.00  0.00     0.169 HD
BRANCH   4   7
HETATM    7  C6  UNL     1      30.053   7.682  48.556  1.00  0.00    -0.004 C 
HETATM    8  C5  UNL     1      31.237   7.815  48.728  1.00  0.00    -0.077 C 
BRANCH   8   9
HETATM    9  C4  UNL     1      32.694   7.954  48.938  1.00  0.00     0.212 C 
BRANCH   9  10
HETATM   10  N1  UNL     1      33.430   7.059  48.124  1.00  0.00    -0.395 N 
BRANCH  10  11
HETATM   11  C2  UNL     1      33.722   5.836  48.731  1.00  0.00     0.072 C 
HETATM   12  C1  UNL     1      32.981   4.735  47.970  1.00  0.00     0.031 C 
HETATM   13  C3  UNL     1      35.131   5.428  48.921  1.00  0.00     0.031 C 
ENDBRANCH  10  11
BRANCH  10  14
HETATM   14  C20 UNL     1      34.161   7.555  47.043  1.00  0.00     0.072 C 
HETATM   15  C21 UNL     1      33.394   7.748  45.756  1.00  0.00     0.031 C 
HETATM   16  C22 UNL     1      34.651   8.959  47.426  1.00  0.00     0.031 C 
ENDBRANCH  10  14
ENDBRANCH   9  10
ENDBRANCH   8   9
ENDBRANCH   4   7
ENDBRANCH   1   3
BRANCH   2  17
HETATM   17  C10 UNL     1      25.216   4.848  49.559  1.00  0.00     0.029 C 
HETATM   18  C11 UNL     1      24.608   4.165  50.517  1.00  0.00     0.041 A 
HETATM   19  C12 UNL     1      24.559   2.696  50.659  1.00  0.00     0.115 A 
HETATM   20  N4  UNL     1      23.986   5.063  51.424  1.00  0.00    -0.246 NA
HETATM   21  C13 UNL     1      23.767   2.412  51.878  1.00  0.00     0.031 A 
HETATM   22  N3  UNL     1      23.228   3.253  52.661  1.00  0.00    -0.249 NA
HETATM   23  C19 UNL     1      23.320   4.672  52.457  1.00  0.00     0.233 A 
BRANCH  21  24
HETATM   24  C14 UNL     1      23.745   0.931  51.973  1.00  0.00     0.084 A 
HETATM   25  C15 UNL     1      24.910   0.403  52.759  1.00  0.00     0.032 A 
HETATM   26  C16 UNL     1      24.413  -0.253  53.798  1.00  0.00     0.135 A 
HETATM   27  F1  UNL     1      25.186  -0.859  54.718  1.00  0.00    -0.205 F 
HETATM   28  C17 UNL     1      22.958  -0.214  53.788  1.00  0.00     0.069 A 
HETATM   29 CL1  UNL     1      21.846  -0.912  54.913  1.00  0.00    -0.081 Cl
HETATM   30  C18 UNL     1      22.580   0.467  52.738  1.00  0.00     0.015 A 
ENDBRANCH  21  24
ENDBRANCH   2  17
TORSDOF 8
ENDMDL
