MODEL 1
REMARK VINA RESULT:      -8.3      0.000      0.000
REMARK  8 active torsions:
REMARK  status: ('A' for Active; 'I' for Inactive)
REMARK    1  A    between atoms: O1_1  and  C1_2 
REMARK    2  A    between atoms: C6_7  and  C7_8 
REMARK    3  A    between atoms: C7_8  and  N1_9 
REMARK    4  A    between atoms: C8_10  and  C9_11 
REMARK    5  A    between atoms: C10_12  and  C11_13 
REMARK    6  A    between atoms: C13_17  and  C14_18 
REMARK    7  A    between atoms: C14_18  and  N4_19 
REMARK    8  A    between atoms: N4_19  and  C15_20 
ROOT
HETATM    1  C11 UNL     1      26.991   1.206  54.002  1.00  0.00     0.084 A 
HETATM    2  N2  UNL     1      28.259   1.425  54.687  1.00  0.00    -0.240 NA
HETATM    3  C12 UNL     1      28.870   0.305  54.721  1.00  0.00     0.234 A 
HETATM    4  N3  UNL     1      28.049  -0.651  54.083  1.00  0.00    -0.242 NA
HETATM    5  C13 UNL     1      26.964  -0.194  53.655  1.00  0.00     0.082 A 
ENDROOT
BRANCH   1   6
HETATM    6  C10 UNL     1      26.154   2.127  53.761  1.00  0.00     0.032 C 
HETATM    7  C9  UNL     1      24.960   2.683  53.297  1.00  0.00     0.002 C 
BRANCH   7   8
HETATM    8  C8  UNL     1      24.217   3.655  53.089  1.00  0.00     0.126 C 
HETATM    9  N1  UNL     1      23.466   4.392  52.262  1.00  0.00    -0.408 N 
HETATM   10  H8  UNL     1      22.901   4.722  53.127  1.00  0.00     0.154 HD
BRANCH   9  11
HETATM   11  C7  UNL     1      23.137   4.879  50.962  1.00  0.00     0.156 C 
BRANCH  11  12
HETATM   12  C6  UNL     1      24.426   5.384  50.319  1.00  0.00    -0.008 A 
HETATM   13  C1  UNL     1      24.606   6.625  50.749  1.00  0.00     0.073 A 
HETATM   14  C2  UNL     1      25.787   7.104  50.130  1.00  0.00     0.037 A 
HETATM   15  C3  UNL     1      26.580   6.334  49.224  1.00  0.00     0.003 A 
HETATM   16  C4  UNL     1      26.115   5.019  48.963  1.00  0.00     0.001 A 
HETATM   17  C5  UNL     1      24.949   4.434  49.525  1.00  0.00     0.011 A 
BRANCH  13  18
HETATM   18  O1  UNL     1      23.882   7.406  51.615  1.00  0.00    -0.360 OA
HETATM   19  H1  UNL     1      23.947   8.422  51.579  1.00  0.00     0.217 HD
ENDBRANCH  13  18
ENDBRANCH  11  12
ENDBRANCH   9  11
ENDBRANCH   7   8
ENDBRANCH   1   6
BRANCH   5  20
HETATM   20  C14 UNL     1      25.793  -0.765  52.916  1.00  0.00     0.181 C 
BRANCH  20  21
HETATM   21  N4  UNL     1      24.691  -0.854  53.872  1.00  0.00    -0.384 N 
HETATM   22  H15 UNL     1      25.004  -1.076  54.869  1.00  0.00     0.160 HD
BRANCH  21  23
HETATM   23  C15 UNL     1      23.251  -0.748  54.014  1.00  0.00     0.029 A 
HETATM   24  C16 UNL     1      22.392  -1.093  54.994  1.00  0.00     0.029 A 
HETATM   25  C17 UNL     1      21.095  -0.874  54.662  1.00  0.00     0.004 A 
HETATM   26  C18 UNL     1      20.576  -0.382  53.538  1.00  0.00     0.019 A 
HETATM   27  C19 UNL     1      21.487   0.001  52.482  1.00  0.00     0.013 A 
HETATM   28 BR1  UNL     1      20.700   0.697  50.902  1.00  0.00    -0.051 Br
HETATM   29  C20 UNL     1      22.856  -0.207  52.782  1.00  0.00     0.048 A 
ENDBRANCH  21  23
ENDBRANCH  20  21
ENDBRANCH   5  20
TORSDOF 8
ENDMDL
MODEL 2
REMARK VINA RESULT:      -8.2      1.349      2.270
REMARK  8 active torsions:
REMARK  status: ('A' for Active; 'I' for Inactive)
REMARK    1  A    between atoms: O1_1  and  C1_2 
REMARK    2  A    between atoms: C6_7  and  C7_8 
REMARK    3  A    between atoms: C7_8  and  N1_9 
REMARK    4  A    between atoms: C8_10  and  C9_11 
REMARK    5  A    between atoms: C10_12  and  C11_13 
REMARK    6  A    between atoms: C13_17  and  C14_18 
REMARK    7  A    between atoms: C14_18  and  N4_19 
REMARK    8  A    between atoms: N4_19  and  C15_20 
ROOT
HETATM    1  C11 UNL     1      27.562   1.146  53.230  1.00  0.00     0.084 A 
HETATM    2  N2  UNL     1      28.668   1.372  54.152  1.00  0.00    -0.240 NA
HETATM    3  C12 UNL     1      28.669   0.407  54.987  1.00  0.00     0.234 A 
HETATM    4  N3  UNL     1      27.598  -0.452  54.651  1.00  0.00    -0.242 NA
HETATM    5  C13 UNL     1      26.932  -0.079  53.658  1.00  0.00     0.082 A 
ENDROOT
BRANCH   1   6
HETATM    6  C10 UNL     1      27.302   1.902  52.247  1.00  0.00     0.032 C 
HETATM    7  C9  UNL     1      26.526   2.752  51.454  1.00  0.00     0.002 C 
BRANCH   7   8
HETATM    8  C8  UNL     1      26.364   3.460  50.448  1.00  0.00     0.126 C 
HETATM    9  N1  UNL     1      25.787   4.501  49.836  1.00  0.00    -0.408 N 
HETATM   10  H8  UNL     1      26.637   4.531  49.163  1.00  0.00     0.154 HD
BRANCH   9  11
HETATM   11  C7  UNL     1      24.717   5.431  49.680  1.00  0.00     0.156 C 
BRANCH  11  12
HETATM   12  C6  UNL     1      23.527   4.903  50.479  1.00  0.00    -0.008 A 
HETATM   13  C1  UNL     1      23.584   5.476  51.672  1.00  0.00     0.073 A 
HETATM   14  C2  UNL     1      22.497   4.965  52.423  1.00  0.00     0.037 A 
HETATM   15  C3  UNL     1      21.560   4.012  51.919  1.00  0.00     0.003 A 
HETATM   16  C4  UNL     1      21.772   3.586  50.582  1.00  0.00     0.001 A 
HETATM   17  C5  UNL     1      22.824   4.030  49.736  1.00  0.00     0.011 A 
BRANCH  13  18
HETATM   18  O1  UNL     1      24.456   6.393  52.205  1.00  0.00    -0.360 OA
HETATM   19  H1  UNL     1      24.146   7.058  52.911  1.00  0.00     0.217 HD
ENDBRANCH  13  18
ENDBRANCH  11  12
ENDBRANCH   9  11
ENDBRANCH   7   8
ENDBRANCH   1   6
BRANCH   5  20
HETATM   20  C14 UNL     1      25.753  -0.621  52.911  1.00  0.00     0.181 C 
BRANCH  20  21
HETATM   21  N4  UNL     1      24.558  -0.191  53.634  1.00  0.00    -0.384 N 
HETATM   22  H15 UNL     1      24.696   0.707  54.196  1.00  0.00     0.160 HD
BRANCH  21  23
HETATM   23  C15 UNL     1      23.170  -0.517  53.902  1.00  0.00     0.029 A 
HETATM   24  C16 UNL     1      22.557  -1.210  54.884  1.00  0.00     0.029 A 
HETATM   25  C17 UNL     1      21.220  -1.330  54.691  1.00  0.00     0.004 A 
HETATM   26  C18 UNL     1      20.459  -0.871  53.699  1.00  0.00     0.019 A 
HETATM   27  C19 UNL     1      21.102  -0.119  52.644  1.00  0.00     0.013 A 
HETATM   28 BR1  UNL     1      19.975   0.513  51.253  1.00  0.00    -0.051 Br
HETATM   29  C20 UNL     1      22.502   0.036  52.801  1.00  0.00     0.048 A 
ENDBRANCH  21  23
ENDBRANCH  20  21
ENDBRANCH   5  20
TORSDOF 8
ENDMDL
MODEL 3
REMARK VINA RESULT:      -8.1      3.484      7.443
REMARK  8 active torsions:
REMARK  status: ('A' for Active; 'I' for Inactive)
REMARK    1  A    between atoms: O1_1  and  C1_2 
REMARK    2  A    between atoms: C6_7  and  C7_8 
REMARK    3  A    between atoms: C7_8  and  N1_9 
REMARK    4  A    between atoms: C8_10  and  C9_11 
REMARK    5  A    between atoms: C10_12  and  C11_13 
REMARK    6  A    between atoms: C13_17  and  C14_18 
REMARK    7  A    between atoms: C14_18  and  N4_19 
REMARK    8  A    between atoms: N4_19  and  C15_20 
ROOT
HETATM    1  C11 UNL     1      21.169   1.255  52.171  1.00  0.00     0.084 A 
HETATM    2  N2  UNL     1      19.966   0.561  51.726  1.00  0.00    -0.240 NA
HETATM    3  C12 UNL     1      19.139   1.450  51.333  1.00  0.00     0.234 A 
HETATM    4  N3  UNL     1      19.751   2.712  51.505  1.00  0.00    -0.242 NA
HETATM    5  C13 UNL     1      20.909   2.661  51.980  1.00  0.00     0.082 A 
ENDROOT
BRANCH   1   6
HETATM    6  C10 UNL     1      22.209   0.662  52.587  1.00  0.00     0.032 C 
HETATM    7  C9  UNL     1      23.156   0.245  53.525  1.00  0.00     0.002 C 
BRANCH   7   8
HETATM    8  C8  UNL     1      24.199  -0.354  53.830  1.00  0.00     0.126 C 
HETATM    9  N1  UNL     1      25.405  -0.835  53.504  1.00  0.00    -0.408 N 
HETATM   10  H8  UNL     1      25.677  -0.765  54.552  1.00  0.00     0.154 HD
BRANCH   9  11
HETATM   11  C7  UNL     1      26.342  -1.337  52.553  1.00  0.00     0.156 C 
BRANCH  11  12
HETATM   12  C6  UNL     1      27.725  -0.833  52.959  1.00  0.00    -0.008 A 
HETATM   13  C1  UNL     1      28.504  -1.900  53.066  1.00  0.00     0.073 A 
HETATM   14  C2  UNL     1      29.780  -1.435  53.470  1.00  0.00     0.037 A 
HETATM   15  C3  UNL     1      30.090  -0.060  53.699  1.00  0.00     0.003 A 
HETATM   16  C4  UNL     1      29.024   0.855  53.495  1.00  0.00     0.001 A 
HETATM   17  C5  UNL     1      27.708   0.505  53.091  1.00  0.00     0.011 A 
BRANCH  13  18
HETATM   18  O1  UNL     1      28.259  -3.235  52.857  1.00  0.00    -0.360 OA
HETATM   19  H1  UNL     1      27.418  -3.675  53.226  1.00  0.00     0.217 HD
ENDBRANCH  13  18
ENDBRANCH  11  12
ENDBRANCH   9  11
ENDBRANCH   7   8
ENDBRANCH   1   6
BRANCH   5  20
HETATM   20  C14 UNL     1      21.956   3.675  52.326  1.00  0.00     0.181 C 
BRANCH  20  21
HETATM   21  N4  UNL     1      22.877   3.739  51.193  1.00  0.00    -0.384 N 
HETATM   22  H15 UNL     1      22.434   4.126  50.301  1.00  0.00     0.160 HD
BRANCH  21  23
HETATM   23  C15 UNL     1      24.240   3.474  50.775  1.00  0.00     0.029 A 
HETATM   24  C16 UNL     1      25.086   2.444  50.980  1.00  0.00     0.029 A 
HETATM   25  C17 UNL     1      26.318   2.657  50.454  1.00  0.00     0.004 A 
HETATM   26  C18 UNL     1      26.786   3.709  49.786  1.00  0.00     0.019 A 
HETATM   27  C19 UNL     1      25.888   4.818  49.550  1.00  0.00     0.013 A 
HETATM   28 BR1  UNL     1      26.602   6.293  48.594  1.00  0.00    -0.051 Br
HETATM   29  C20 UNL     1      24.585   4.642  50.080  1.00  0.00     0.048 A 
ENDBRANCH  21  23
ENDBRANCH  20  21
ENDBRANCH   5  20
TORSDOF 8
ENDMDL
MODEL 4
REMARK VINA RESULT:      -8.0      5.110      9.737
REMARK  8 active torsions:
REMARK  status: ('A' for Active; 'I' for Inactive)
REMARK    1  A    between atoms: O1_1  and  C1_2 
REMARK    2  A    between atoms: C6_7  and  C7_8 
REMARK    3  A    between atoms: C7_8  and  N1_9 
REMARK    4  A    between atoms: C8_10  and  C9_11 
REMARK    5  A    between atoms: C10_12  and  C11_13 
REMARK    6  A    between atoms: C13_17  and  C14_18 
REMARK    7  A    between atoms: C14_18  and  N4_19 
REMARK    8  A    between atoms: N4_19  and  C15_20 
ROOT
HETATM    1  C11 UNL     1      26.569   5.548  48.830  1.00  0.00     0.084 A 
HETATM    2  N2  UNL     1      25.536   6.546  48.582  1.00  0.00    -0.240 NA
HETATM    3  C12 UNL     1      26.091   7.526  47.982  1.00  0.00     0.234 A 
HETATM    4  N3  UNL     1      27.461   7.214  47.826  1.00  0.00    -0.242 NA
HETATM    5  C13 UNL     1      27.789   6.098  48.292  1.00  0.00     0.082 A 
ENDROOT
BRANCH   1   6
HETATM    6  C10 UNL     1      26.346   4.426  49.376  1.00  0.00     0.032 C 
HETATM    7  C9  UNL     1      26.447   3.437  50.357  1.00  0.00     0.002 C 
BRANCH   7   8
HETATM    8  C8  UNL     1      26.181   2.309  50.800  1.00  0.00     0.126 C 
HETATM    9  N1  UNL     1      25.939   1.489  51.829  1.00  0.00    -0.408 N 
HETATM   10  H8  UNL     1      25.382   0.855  51.147  1.00  0.00     0.154 HD
BRANCH   9  11
HETATM   11  C7  UNL     1      26.077   1.118  53.200  1.00  0.00     0.156 C 
BRANCH  11  12
HETATM   12  C6  UNL     1      27.456   0.484  53.368  1.00  0.00    -0.008 A 
HETATM   13  C1  UNL     1      28.277   1.452  53.751  1.00  0.00     0.073 A 
HETATM   14  C2  UNL     1      29.562   0.870  53.879  1.00  0.00     0.037 A 
HETATM   15  C3  UNL     1      29.841  -0.508  53.626  1.00  0.00     0.003 A 
HETATM   16  C4  UNL     1      28.732  -1.298  53.227  1.00  0.00     0.001 A 
HETATM   17  C5  UNL     1      27.403  -0.825  53.066  1.00  0.00     0.011 A 
BRANCH  13  18
HETATM   18  O1  UNL     1      28.062   2.783  54.009  1.00  0.00    -0.360 OA
HETATM   19  H1  UNL     1      27.567   3.371  53.340  1.00  0.00     0.217 HD
ENDBRANCH  13  18
ENDBRANCH  11  12
ENDBRANCH   9  11
ENDBRANCH   7   8
ENDBRANCH   1   6
BRANCH   5  20
HETATM   20  C14 UNL     1      29.065   5.317  48.364  1.00  0.00     0.181 C 
BRANCH  20  21
HETATM   21  N4  UNL     1      30.063   6.188  48.981  1.00  0.00    -0.384 N 
HETATM   22  H15 UNL     1      29.697   6.729  49.827  1.00  0.00     0.160 HD
BRANCH  21  23
HETATM   23  C15 UNL     1      31.441   6.634  48.899  1.00  0.00     0.029 A 
HETATM   24  C16 UNL     1      32.032   7.839  49.030  1.00  0.00     0.029 A 
HETATM   25  C17 UNL     1      33.367   7.802  48.794  1.00  0.00     0.004 A 
HETATM   26  C18 UNL     1      34.144   6.773  48.464  1.00  0.00     0.019 A 
HETATM   27  C19 UNL     1      33.526   5.472  48.329  1.00  0.00     0.013 A 
HETATM   28 BR1  UNL     1      34.675   4.037  47.858  1.00  0.00    -0.051 Br
HETATM   29  C20 UNL     1      32.129   5.458  48.568  1.00  0.00     0.048 A 
ENDBRANCH  21  23
ENDBRANCH  20  21
ENDBRANCH   5  20
TORSDOF 8
ENDMDL
MODEL 5
REMARK VINA RESULT:      -8.0      1.611      2.152
REMARK  8 active torsions:
REMARK  status: ('A' for Active; 'I' for Inactive)
REMARK    1  A    between atoms: O1_1  and  C1_2 
REMARK    2  A    between atoms: C6_7  and  C7_8 
REMARK    3  A    between atoms: C7_8  and  N1_9 
REMARK    4  A    between atoms: C8_10  and  C9_11 
REMARK    5  A    between atoms: C10_12  and  C11_13 
REMARK    6  A    between atoms: C13_17  and  C14_18 
REMARK    7  A    between atoms: C14_18  and  N4_19 
REMARK    8  A    between atoms: N4_19  and  C15_20 
ROOT
HETATM    1  C11 UNL     1      27.662   1.173  53.171  1.00  0.00     0.084 A 
HETATM    2  N2  UNL     1      28.645   1.610  54.156  1.00  0.00    -0.240 NA
HETATM    3  C12 UNL     1      28.818   0.645  54.972  1.00  0.00     0.234 A 
HETATM    4  N3  UNL     1      27.980  -0.418  54.565  1.00  0.00    -0.242 NA
HETATM    5  C13 UNL     1      27.298  -0.172  53.544  1.00  0.00     0.082 A 
ENDROOT
BRANCH   1   6
HETATM    6  C10 UNL     1      27.291   1.881  52.188  1.00  0.00     0.032 C 
HETATM    7  C9  UNL     1      26.414   2.662  51.431  1.00  0.00     0.002 C 
BRANCH   7   8
HETATM    8  C8  UNL     1      26.141   3.326  50.419  1.00  0.00     0.126 C 
HETATM    9  N1  UNL     1      25.984   4.506  49.807  1.00  0.00    -0.408 N 
HETATM   10  H8  UNL     1      26.195   4.007  48.867  1.00  0.00     0.154 HD
BRANCH   9  11
HETATM   11  C7  UNL     1      25.691   5.902  49.825  1.00  0.00     0.156 C 
BRANCH  11  12
HETATM   12  C6  UNL     1      24.174   6.055  49.743  1.00  0.00    -0.008 A 
HETATM   13  C1  UNL     1      23.776   6.540  50.911  1.00  0.00     0.073 A 
HETATM   14  C2  UNL     1      22.365   6.655  50.845  1.00  0.00     0.037 A 
HETATM   15  C3  UNL     1      21.589   6.294  49.700  1.00  0.00     0.003 A 
HETATM   16  C4  UNL     1      22.322   5.799  48.590  1.00  0.00     0.001 A 
HETATM   17  C5  UNL     1      23.733   5.642  48.542  1.00  0.00     0.011 A 
BRANCH  13  18
HETATM   18  O1  UNL     1      24.474   6.903  52.035  1.00  0.00    -0.360 OA
HETATM   19  H1  UNL     1      24.245   6.502  52.943  1.00  0.00     0.217 HD
ENDBRANCH  13  18
ENDBRANCH  11  12
ENDBRANCH   9  11
ENDBRANCH   7   8
ENDBRANCH   1   6
BRANCH   5  20
HETATM   20  C14 UNL     1      26.305  -0.939  52.725  1.00  0.00     0.181 C 
BRANCH  20  21
HETATM   21  N4  UNL     1      25.064  -0.982  53.494  1.00  0.00    -0.384 N 
HETATM   22  H15 UNL     1      25.095  -1.655  54.323  1.00  0.00     0.160 HD
BRANCH  21  23
HETATM   23  C15 UNL     1      23.724  -0.434  53.588  1.00  0.00     0.029 A 
HETATM   24  C16 UNL     1      22.635  -0.773  54.308  1.00  0.00     0.029 A 
HETATM   25  C17 UNL     1      21.550  -0.013  54.018  1.00  0.00     0.004 A 
HETATM   26  C18 UNL     1      21.421   0.987  53.148  1.00  0.00     0.019 A 
HETATM   27  C19 UNL     1      22.582   1.368  52.375  1.00  0.00     0.013 A 
HETATM   28 BR1  UNL     1      22.348   2.799  51.151  1.00  0.00    -0.051 Br
HETATM   29  C20 UNL     1      23.745   0.603  52.645  1.00  0.00     0.048 A 
ENDBRANCH  21  23
ENDBRANCH  20  21
ENDBRANCH   5  20
TORSDOF 8
ENDMDL
MODEL 6
REMARK VINA RESULT:      -7.9      3.059      6.502
REMARK  8 active torsions:
REMARK  status: ('A' for Active; 'I' for Inactive)
REMARK    1  A    between atoms: O1_1  and  C1_2 
REMARK    2  A    between atoms: C6_7  and  C7_8 
REMARK    3  A    between atoms: C7_8  and  N1_9 
REMARK    4  A    between atoms: C8_10  and  C9_11 
REMARK    5  A    between atoms: C10_12  and  C11_13 
REMARK    6  A    between atoms: C13_17  and  C14_18 
REMARK    7  A    between atoms: C14_18  and  N4_19 
REMARK    8  A    between atoms: N4_19  and  C15_20 
ROOT
HETATM    1  C11 UNL     1      26.132   3.476  50.287  1.00  0.00     0.084 A 
HETATM    2  N2  UNL     1      27.211   3.767  49.351  1.00  0.00    -0.240 NA
HETATM    3  C12 UNL     1      27.007   4.940  48.891  1.00  0.00     0.234 A 
HETATM    4  N3  UNL     1      25.827   5.436  49.489  1.00  0.00    -0.242 NA
HETATM    5  C13 UNL     1      25.286   4.643  50.294  1.00  0.00     0.082 A 
ENDROOT
BRANCH   1   6
HETATM    6  C10 UNL     1      26.054   2.402  50.957  1.00  0.00     0.032 C 
HETATM    7  C9  UNL     1      26.512   1.210  51.524  1.00  0.00     0.002 C 
BRANCH   7   8
HETATM    8  C8  UNL     1      26.330   0.176  52.183  1.00  0.00     0.126 C 
HETATM    9  N1  UNL     1      25.686  -0.494  53.146  1.00  0.00    -0.408 N 
HETATM   10  H8  UNL     1      25.936  -1.412  52.626  1.00  0.00     0.154 HD
BRANCH   9  11
HETATM   11  C7  UNL     1      24.950  -0.541  54.368  1.00  0.00     0.156 C 
BRANCH  11  12
HETATM   12  C6  UNL     1      23.465  -0.520  54.013  1.00  0.00    -0.008 A 
HETATM   13  C1  UNL     1      22.842  -1.237  54.936  1.00  0.00     0.073 A 
HETATM   14  C2  UNL     1      21.468  -1.241  54.591  1.00  0.00     0.037 A 
HETATM   15  C3  UNL     1      20.932  -0.574  53.446  1.00  0.00     0.003 A 
HETATM   16  C4  UNL     1      21.873   0.120  52.642  1.00  0.00     0.001 A 
HETATM   17  C5  UNL     1      23.270   0.193  52.890  1.00  0.00     0.011 A 
BRANCH  13  18
HETATM   18  O1  UNL     1      23.304  -1.893  56.050  1.00  0.00    -0.360 OA
HETATM   19  H1  UNL     1      23.053  -1.575  56.985  1.00  0.00     0.217 HD
ENDBRANCH  13  18
ENDBRANCH  11  12
ENDBRANCH   9  11
ENDBRANCH   7   8
ENDBRANCH   1   6
BRANCH   5  20
HETATM   20  C14 UNL     1      24.073   4.691  51.172  1.00  0.00     0.181 C 
BRANCH  20  21
HETATM   21  N4  UNL     1      22.947   4.221  50.367  1.00  0.00    -0.384 N 
HETATM   22  H15 UNL     1      22.463   4.995  49.811  1.00  0.00     0.160 HD
BRANCH  21  23
HETATM   23  C15 UNL     1      22.182   3.046  49.995  1.00  0.00     0.029 A 
HETATM   24  C16 UNL     1      22.433   1.999  49.183  1.00  0.00     0.029 A 
HETATM   25  C17 UNL     1      21.380   1.152  49.071  1.00  0.00     0.004 A 
HETATM   26  C18 UNL     1      20.176   1.212  49.636  1.00  0.00     0.019 A 
HETATM   27  C19 UNL     1      19.896   2.324  50.518  1.00  0.00     0.013 A 
HETATM   28 BR1  UNL     1      18.167   2.366  51.299  1.00  0.00    -0.051 Br
HETATM   29  C20 UNL     1      20.968   3.239  50.669  1.00  0.00     0.048 A 
ENDBRANCH  21  23
ENDBRANCH  20  21
ENDBRANCH   5  20
TORSDOF 8
ENDMDL
MODEL 7
REMARK VINA RESULT:      -7.8      5.622      8.041
REMARK  8 active torsions:
REMARK  status: ('A' for Active; 'I' for Inactive)
REMARK    1  A    between atoms: O1_1  and  C1_2 
REMARK    2  A    between atoms: C6_7  and  C7_8 
REMARK    3  A    between atoms: C7_8  and  N1_9 
REMARK    4  A    between atoms: C8_10  and  C9_11 
REMARK    5  A    between atoms: C10_12  and  C11_13 
REMARK    6  A    between atoms: C13_17  and  C14_18 
REMARK    7  A    between atoms: C14_18  and  N4_19 
REMARK    8  A    between atoms: N4_19  and  C15_20 
ROOT
HETATM    1  C11 UNL     1      26.534   5.426  49.132  1.00  0.00     0.084 A 
HETATM    2  N2  UNL     1      25.648   6.583  49.141  1.00  0.00    -0.240 NA
HETATM    3  C12 UNL     1      24.604   6.255  49.798  1.00  0.00     0.234 A 
HETATM    4  N3  UNL     1      24.768   4.918  50.224  1.00  0.00    -0.242 NA
HETATM    5  C13 UNL     1      25.850   4.395  49.872  1.00  0.00     0.082 A 
ENDROOT
BRANCH   1   6
HETATM    6  C10 UNL     1      27.683   5.426  48.595  1.00  0.00     0.032 C 
HETATM    7  C9  UNL     1      28.908   5.963  48.191  1.00  0.00     0.002 C 
BRANCH   7   8
HETATM    8  C8  UNL     1      30.009   5.865  47.627  1.00  0.00     0.126 C 
HETATM    9  N1  UNL     1      31.236   5.337  47.550  1.00  0.00    -0.408 N 
HETATM   10  H8  UNL     1      31.218   5.539  46.485  1.00  0.00     0.154 HD
BRANCH   9  11
HETATM   11  C7  UNL     1      32.386   4.739  48.146  1.00  0.00     0.156 C 
BRANCH  11  12
HETATM   12  C6  UNL     1      33.378   4.432  47.027  1.00  0.00    -0.008 A 
HETATM   13  C1  UNL     1      34.057   3.358  47.403  1.00  0.00     0.073 A 
HETATM   14  C2  UNL     1      34.997   3.089  46.377  1.00  0.00     0.037 A 
HETATM   15  C3  UNL     1      35.128   3.875  45.191  1.00  0.00     0.003 A 
HETATM   16  C4  UNL     1      34.239   4.976  45.081  1.00  0.00     0.001 A 
HETATM   17  C5  UNL     1      33.259   5.340  46.043  1.00  0.00     0.011 A 
BRANCH  13  18
HETATM   18  O1  UNL     1      33.972   2.569  48.523  1.00  0.00    -0.360 OA
HETATM   19  H1  UNL     1      33.655   1.603  48.458  1.00  0.00     0.217 HD
ENDBRANCH  13  18
ENDBRANCH  11  12
ENDBRANCH   9  11
ENDBRANCH   7   8
ENDBRANCH   1   6
BRANCH   5  20
HETATM   20  C14 UNL     1      26.493   3.057  50.073  1.00  0.00     0.181 C 
BRANCH  20  21
HETATM   21  N4  UNL     1      26.846   2.964  51.488  1.00  0.00    -0.384 N 
HETATM   22  H15 UNL     1      26.549   3.815  52.062  1.00  0.00     0.160 HD
BRANCH  21  23
HETATM   23  C15 UNL     1      27.472   2.118  52.486  1.00  0.00     0.029 A 
HETATM   24  C16 UNL     1      28.329   2.362  53.498  1.00  0.00     0.029 A 
HETATM   25  C17 UNL     1      28.720   1.236  54.145  1.00  0.00     0.004 A 
HETATM   26  C18 UNL     1      28.382  -0.033  53.923  1.00  0.00     0.019 A 
HETATM   27  C19 UNL     1      27.456  -0.309  52.846  1.00  0.00     0.013 A 
HETATM   28 BR1  UNL     1      27.006  -2.132  52.570  1.00  0.00    -0.051 Br
HETATM   29  C20 UNL     1      27.016   0.838  52.140  1.00  0.00     0.048 A 
ENDBRANCH  21  23
ENDBRANCH  20  21
ENDBRANCH   5  20
TORSDOF 8
ENDMDL
MODEL 8
REMARK VINA RESULT:      -7.8      2.800      5.970
REMARK  8 active torsions:
REMARK  status: ('A' for Active; 'I' for Inactive)
REMARK    1  A    between atoms: O1_1  and  C1_2 
REMARK    2  A    between atoms: C6_7  and  C7_8 
REMARK    3  A    between atoms: C7_8  and  N1_9 
REMARK    4  A    between atoms: C8_10  and  C9_11 
REMARK    5  A    between atoms: C10_12  and  C11_13 
REMARK    6  A    between atoms: C13_17  and  C14_18 
REMARK    7  A    between atoms: C14_18  and  N4_19 
REMARK    8  A    between atoms: N4_19  and  C15_20 
ROOT
HETATM    1  C11 UNL     1      27.451  -0.443  53.470  1.00  0.00     0.084 A 
HETATM    2  N2  UNL     1      28.500  -1.451  53.557  1.00  0.00    -0.240 NA
HETATM    3  C12 UNL     1      29.602  -0.837  53.741  1.00  0.00     0.234 A 
HETATM    4  N3  UNL     1      29.321   0.548  53.776  1.00  0.00    -0.242 NA
HETATM    5  C13 UNL     1      28.110   0.830  53.626  1.00  0.00     0.082 A 
ENDROOT
BRANCH   1   6
HETATM    6  C10 UNL     1      26.221  -0.718  53.329  1.00  0.00     0.032 C 
HETATM    7  C9  UNL     1      24.843  -0.527  53.458  1.00  0.00     0.002 C 
BRANCH   7   8
HETATM    8  C8  UNL     1      23.671  -0.892  53.284  1.00  0.00     0.126 C 
HETATM    9  N1  UNL     1      22.360  -0.625  53.244  1.00  0.00    -0.408 N 
HETATM   10  H8  UNL     1      22.244  -1.466  52.571  1.00  0.00     0.154 HD
BRANCH   9  11
HETATM   11  C7  UNL     1      21.221   0.137  53.642  1.00  0.00     0.156 C 
BRANCH  11  12
HETATM   12  C6  UNL     1      20.327   0.302  52.415  1.00  0.00    -0.008 A 
HETATM   13  C1  UNL     1      19.168  -0.270  52.708  1.00  0.00     0.073 A 
HETATM   14  C2  UNL     1      18.348  -0.142  51.559  1.00  0.00     0.037 A 
HETATM   15  C3  UNL     1      18.764   0.497  50.350  1.00  0.00     0.003 A 
HETATM   16  C4  UNL     1      20.084   1.019  50.353  1.00  0.00     0.001 A 
HETATM   17  C5  UNL     1      20.993   0.949  51.442  1.00  0.00     0.011 A 
BRANCH  13  18
HETATM   18  O1  UNL     1      18.717  -0.892  53.845  1.00  0.00    -0.360 OA
HETATM   19  H1  UNL     1      17.722  -0.925  54.063  1.00  0.00     0.217 HD
ENDBRANCH  13  18
ENDBRANCH  11  12
ENDBRANCH   9  11
ENDBRANCH   7   8
ENDBRANCH   1   6
BRANCH   5  20
HETATM   20  C14 UNL     1      27.315   2.099  53.603  1.00  0.00     0.181 C 
BRANCH  20  21
HETATM   21  N4  UNL     1      27.168   2.482  52.201  1.00  0.00    -0.384 N 
HETATM   22  H15 UNL     1      28.078   2.434  51.644  1.00  0.00     0.160 HD
BRANCH  21  23
HETATM   23  C15 UNL     1      26.214   2.924  51.201  1.00  0.00     0.029 A 
HETATM   24  C16 UNL     1      26.288   3.093  49.865  1.00  0.00     0.029 A 
HETATM   25  C17 UNL     1      25.151   3.608  49.333  1.00  0.00     0.004 A 
HETATM   26  C18 UNL     1      24.014   3.955  49.931  1.00  0.00     0.019 A 
HETATM   27  C19 UNL     1      23.917   3.771  51.363  1.00  0.00     0.013 A 
HETATM   28 BR1  UNL     1      22.276   4.280  52.169  1.00  0.00    -0.051 Br
HETATM   29  C20 UNL     1      25.081   3.233  51.966  1.00  0.00     0.048 A 
ENDBRANCH  21  23
ENDBRANCH  20  21
ENDBRANCH   5  20
TORSDOF 8
ENDMDL
MODEL 9
REMARK VINA RESULT:      -7.7      2.717      6.343
REMARK  8 active torsions:
REMARK  status: ('A' for Active; 'I' for Inactive)
REMARK    1  A    between atoms: O1_1  and  C1_2 
REMARK    2  A    between atoms: C6_7  and  C7_8 
REMARK    3  A    between atoms: C7_8  and  N1_9 
REMARK    4  A    between atoms: C8_10  and  C9_11 
REMARK    5  A    between atoms: C10_12  and  C11_13 
REMARK    6  A    between atoms: C13_17  and  C14_18 
REMARK    7  A    between atoms: C14_18  and  N4_19 
REMARK    8  A    between atoms: N4_19  and  C15_20 
ROOT
HETATM    1  C11 UNL     1      24.087   5.218  50.593  1.00  0.00     0.084 A 
HETATM    2  N2  UNL     1      24.229   6.654  50.394  1.00  0.00    -0.240 NA
HETATM    3  C12 UNL     1      25.376   6.852  49.871  1.00  0.00     0.234 A 
HETATM    4  N3  UNL     1      26.001   5.594  49.719  1.00  0.00    -0.242 NA
HETATM    5  C13 UNL     1      25.312   4.627  50.114  1.00  0.00     0.082 A 
ENDROOT
BRANCH   1   6
HETATM    6  C10 UNL     1      23.041   4.674  51.060  1.00  0.00     0.032 C 
HETATM    7  C9  UNL     1      21.901   4.567  51.860  1.00  0.00     0.002 C 
BRANCH   7   8
HETATM    8  C8  UNL     1      20.906   3.945  52.264  1.00  0.00     0.126 C 
HETATM    9  N1  UNL     1      20.271   2.792  52.505  1.00  0.00    -0.408 N 
HETATM   10  H8  UNL     1      19.688   3.312  53.259  1.00  0.00     0.154 HD
BRANCH   9  11
HETATM   11  C7  UNL     1      20.036   1.409  52.246  1.00  0.00     0.156 C 
BRANCH  11  12
HETATM   12  C6  UNL     1      21.090   0.612  53.010  1.00  0.00    -0.008 A 
HETATM   13  C1  UNL     1      22.161   0.553  52.232  1.00  0.00     0.073 A 
HETATM   14  C2  UNL     1      23.130  -0.212  52.928  1.00  0.00     0.037 A 
HETATM   15  C3  UNL     1      22.916  -0.780  54.222  1.00  0.00     0.003 A 
HETATM   16  C4  UNL     1      21.644  -0.533  54.801  1.00  0.00     0.001 A 
HETATM   17  C5  UNL     1      20.599   0.218  54.198  1.00  0.00     0.011 A 
BRANCH  13  18
HETATM   18  O1  UNL     1      22.419   1.078  50.990  1.00  0.00    -0.360 OA
HETATM   19  H1  UNL     1      22.635   0.470  50.201  1.00  0.00     0.217 HD
ENDBRANCH  13  18
ENDBRANCH  11  12
ENDBRANCH   9  11
ENDBRANCH   7   8
ENDBRANCH   1   6
BRANCH   5  20
HETATM   20  C14 UNL     1      25.500   3.141  50.157  1.00  0.00     0.181 C 
BRANCH  20  21
HETATM   21  N4  UNL     1      26.233   2.841  51.384  1.00  0.00    -0.384 N 
HETATM   22  H15 UNL     1      27.083   3.470  51.542  1.00  0.00     0.160 HD
BRANCH  21  23
HETATM   23  C15 UNL     1      26.264   1.977  52.550  1.00  0.00     0.029 A 
HETATM   24  C16 UNL     1      26.126   2.204  53.872  1.00  0.00     0.029 A 
HETATM   25  C17 UNL     1      26.306   1.089  54.622  1.00  0.00     0.004 A 
HETATM   26  C18 UNL     1      26.590  -0.155  54.242  1.00  0.00     0.019 A 
HETATM   27  C19 UNL     1      26.732  -0.416  52.826  1.00  0.00     0.013 A 
HETATM   28 BR1  UNL     1      27.137  -2.204  52.335  1.00  0.00    -0.051 Br
HETATM   29  C20 UNL     1      26.551   0.720  51.998  1.00  0.00     0.048 A 
ENDBRANCH  21  23
ENDBRANCH  20  21
ENDBRANCH   5  20
TORSDOF 8
ENDMDL
