MODEL 1
REMARK VINA RESULT:      -7.5      0.000      0.000
REMARK  6 active torsions:
REMARK  status: ('A' for Active; 'I' for Inactive)
REMARK    1  A    between atoms: O1_1  and  C1_2 
REMARK    2  A    between atoms: C6_8  and  C7_9 
REMARK    3  A    between atoms: C7_9  and  N1_10 
REMARK    4  A    between atoms: C9_12  and  O2_13 
REMARK    5  A    between atoms: C9_12  and  N2_14 
REMARK    6  A    between atoms: N2_14  and  C10_15 
ROOT
HETATM    1  N1  UNL     1      24.914   1.555  52.868  1.00  0.00     0.157 NA
HETATM    2  C8  UNL     1      23.511   1.628  52.932  1.00  0.00     0.375 A 
HETATM    3  C9  UNL     1      24.386   2.818  52.496  1.00  0.00     0.366 A 
ENDROOT
BRANCH   1   4
HETATM    4  C7  UNL     1      25.746   0.719  52.125  1.00  0.00     0.320 C 
BRANCH   4   5
HETATM    5  C6  UNL     1      27.033   0.478  52.822  1.00  0.00     0.005 A 
HETATM    6  C1  UNL     1      27.834   1.326  53.537  1.00  0.00     0.095 A 
HETATM    7  C2  UNL     1      29.025   0.972  54.113  1.00  0.00     0.067 A 
HETATM    8 CL1  UNL     1      29.928   2.188  54.996  1.00  0.00    -0.081 Cl
HETATM    9  C3  UNL     1      29.503  -0.312  54.001  1.00  0.00     0.026 A 
HETATM   10  C4  UNL     1      28.760  -1.235  53.299  1.00  0.00     0.002 A 
HETATM   11  C5  UNL     1      27.579  -0.815  52.748  1.00  0.00     0.012 A 
BRANCH   6  12
HETATM   12  O1  UNL     1      27.385   2.628  53.676  1.00  0.00    -0.358 OA
HETATM   13  H1  UNL     1      28.080   3.349  53.468  1.00  0.00     0.217 HD
ENDBRANCH   6  12
ENDBRANCH   4   5
ENDBRANCH   1   4
BRANCH   3  14
HETATM   14  O2  UNL     1      24.616   3.801  53.489  1.00  0.00    -0.345 OA
HETATM   15  H9  UNL     1      23.920   3.794  54.175  1.00  0.00     0.214 HD
ENDBRANCH   3  14
BRANCH   3  16
HETATM   16  N2  UNL     1      24.253   3.236  51.137  1.00  0.00    -0.332 N 
HETATM   17  H10 UNL     1      23.366   2.875  50.688  1.00  0.00     0.164 HD
BRANCH  16  18
HETATM   18  C10 UNL     1      25.121   4.040  50.350  1.00  0.00     0.031 A 
HETATM   19  C11 UNL     1      26.279   3.552  49.790  1.00  0.00     0.029 A 
HETATM   20  C12 UNL     1      27.155   4.295  49.016  1.00  0.00     0.002 A 
HETATM   21  C13 UNL     1      26.834   5.619  48.798  1.00  0.00     0.000 A 
HETATM   22  C14 UNL     1      25.679   6.130  49.350  1.00  0.00     0.002 A 
HETATM   23  C15 UNL     1      24.814   5.365  50.123  1.00  0.00     0.029 A 
ENDBRANCH  16  18
ENDBRANCH   3  16
TORSDOF 6
ENDMDL
MODEL 2
REMARK VINA RESULT:      -7.2      1.370      2.044
REMARK  6 active torsions:
REMARK  status: ('A' for Active; 'I' for Inactive)
REMARK    1  A    between atoms: O1_1  and  C1_2 
REMARK    2  A    between atoms: C6_8  and  C7_9 
REMARK    3  A    between atoms: C7_9  and  N1_10 
REMARK    4  A    between atoms: C9_12  and  O2_13 
REMARK    5  A    between atoms: C9_12  and  N2_14 
REMARK    6  A    between atoms: N2_14  and  C10_15 
ROOT
HETATM    1  N1  UNL     1      24.638   1.790  52.736  1.00  0.00     0.157 NA
HETATM    2  C8  UNL     1      23.241   1.933  52.693  1.00  0.00     0.375 A 
HETATM    3  C9  UNL     1      24.204   3.064  52.287  1.00  0.00     0.366 A 
ENDROOT
BRANCH   1   4
HETATM    4  C7  UNL     1      25.479   0.890  52.082  1.00  0.00     0.320 C 
BRANCH   4   5
HETATM    5  C6  UNL     1      26.837   0.886  52.679  1.00  0.00     0.005 A 
HETATM    6  C1  UNL     1      27.680  -0.152  52.974  1.00  0.00     0.095 A 
HETATM    7  C2  UNL     1      28.911  -0.013  53.556  1.00  0.00     0.067 A 
HETATM    8 CL1  UNL     1      29.863  -1.452  53.866  1.00  0.00    -0.081 Cl
HETATM    9  C3  UNL     1      29.391   1.232  53.891  1.00  0.00     0.026 A 
HETATM   10  C4  UNL     1      28.610   2.334  53.629  1.00  0.00     0.002 A 
HETATM   11  C5  UNL     1      27.389   2.125  53.046  1.00  0.00     0.012 A 
BRANCH   6  12
HETATM   12  O1  UNL     1      27.233  -1.421  52.648  1.00  0.00    -0.358 OA
HETATM   13  H1  UNL     1      27.889  -2.176  52.857  1.00  0.00     0.217 HD
ENDBRANCH   6  12
ENDBRANCH   4   5
ENDBRANCH   1   4
BRANCH   3  14
HETATM   14  O2  UNL     1      24.411   4.068  53.265  1.00  0.00    -0.345 OA
HETATM   15  H9  UNL     1      23.597   4.253  53.773  1.00  0.00     0.214 HD
ENDBRANCH   3  14
BRANCH   3  16
HETATM   16  N2  UNL     1      24.191   3.442  50.910  1.00  0.00    -0.332 N 
HETATM   17  H10 UNL     1      23.321   3.113  50.409  1.00  0.00     0.164 HD
BRANCH  16  18
HETATM   18  C10 UNL     1      25.157   4.172  50.165  1.00  0.00     0.031 A 
HETATM   19  C11 UNL     1      25.007   5.505  49.861  1.00  0.00     0.029 A 
HETATM   20  C12 UNL     1      25.919   6.257  49.140  1.00  0.00     0.002 A 
HETATM   21  C13 UNL     1      27.056   5.612  48.698  1.00  0.00     0.000 A 
HETATM   22  C14 UNL     1      27.227   4.277  48.990  1.00  0.00     0.002 A 
HETATM   23  C15 UNL     1      26.298   3.541  49.717  1.00  0.00     0.029 A 
ENDBRANCH  16  18
ENDBRANCH   3  16
TORSDOF 6
ENDMDL
MODEL 3
REMARK VINA RESULT:      -7.1      3.440      5.886
REMARK  6 active torsions:
REMARK  status: ('A' for Active; 'I' for Inactive)
REMARK    1  A    between atoms: O1_1  and  C1_2 
REMARK    2  A    between atoms: C6_8  and  C7_9 
REMARK    3  A    between atoms: C7_9  and  N1_10 
REMARK    4  A    between atoms: C9_12  and  O2_13 
REMARK    5  A    between atoms: C9_12  and  N2_14 
REMARK    6  A    between atoms: N2_14  and  C10_15 
ROOT
HETATM    1  N1  UNL     1      23.359   2.639  51.811  1.00  0.00     0.157 NA
HETATM    2  C8  UNL     1      23.680   3.836  51.148  1.00  0.00     0.375 A 
HETATM    3  C9  UNL     1      24.601   3.199  52.205  1.00  0.00     0.366 A 
ENDROOT
BRANCH   1   4
HETATM    4  C7  UNL     1      23.114   1.361  51.310  1.00  0.00     0.320 C 
BRANCH   4   5
HETATM    5  C6  UNL     1      22.399   0.520  52.300  1.00  0.00     0.005 A 
HETATM    6  C1  UNL     1      21.078   0.172  52.388  1.00  0.00     0.095 A 
HETATM    7  C2  UNL     1      20.541  -0.601  53.383  1.00  0.00     0.067 A 
HETATM    8 CL1  UNL     1      18.823  -0.949  53.345  1.00  0.00    -0.081 Cl
HETATM    9  C3  UNL     1      21.335  -1.093  54.393  1.00  0.00     0.026 A 
HETATM   10  C4  UNL     1      22.678  -0.795  54.382  1.00  0.00     0.002 A 
HETATM   11  C5  UNL     1      23.149  -0.017  53.359  1.00  0.00     0.012 A 
BRANCH   6  12
HETATM   12  O1  UNL     1      20.247   0.647  51.388  1.00  0.00    -0.358 OA
HETATM   13  H1  UNL     1      19.260   0.716  51.644  1.00  0.00     0.217 HD
ENDBRANCH   6  12
ENDBRANCH   4   5
ENDBRANCH   1   4
BRANCH   3  14
HETATM   14  O2  UNL     1      24.536   3.776  53.496  1.00  0.00    -0.345 OA
HETATM   15  H9  UNL     1      23.759   3.457  53.998  1.00  0.00     0.214 HD
ENDBRANCH   3  14
BRANCH   3  16
HETATM   16  N2  UNL     1      25.859   2.712  51.736  1.00  0.00    -0.332 N 
HETATM   17  H10 UNL     1      26.141   3.143  50.813  1.00  0.00     0.164 HD
BRANCH  16  18
HETATM   18  C10 UNL     1      26.738   1.764  52.328  1.00  0.00     0.031 A 
HETATM   19  C11 UNL     1      26.574   0.406  52.179  1.00  0.00     0.029 A 
HETATM   20  C12 UNL     1      27.403  -0.554  52.734  1.00  0.00     0.002 A 
HETATM   21  C13 UNL     1      28.467  -0.105  53.490  1.00  0.00     0.000 A 
HETATM   22  C14 UNL     1      28.650   1.250  53.654  1.00  0.00     0.002 A 
HETATM   23  C15 UNL     1      27.805   2.197  53.086  1.00  0.00     0.029 A 
ENDBRANCH  16  18
ENDBRANCH   3  16
TORSDOF 6
ENDMDL
MODEL 4
REMARK VINA RESULT:      -7.1      2.251      3.016
REMARK  6 active torsions:
REMARK  status: ('A' for Active; 'I' for Inactive)
REMARK    1  A    between atoms: O1_1  and  C1_2 
REMARK    2  A    between atoms: C6_8  and  C7_9 
REMARK    3  A    between atoms: C7_9  and  N1_10 
REMARK    4  A    between atoms: C9_12  and  O2_13 
REMARK    5  A    between atoms: C9_12  and  N2_14 
REMARK    6  A    between atoms: N2_14  and  C10_15 
ROOT
HETATM    1  N1  UNL     1      22.871   3.822  52.261  1.00  0.00     0.157 NA
HETATM    2  C8  UNL     1      21.921   4.849  52.133  1.00  0.00     0.375 A 
HETATM    3  C9  UNL     1      23.419   5.065  51.854  1.00  0.00     0.366 A 
ENDROOT
BRANCH   1   4
HETATM    4  C7  UNL     1      22.968   2.589  51.617  1.00  0.00     0.320 C 
BRANCH   4   5
HETATM    5  C6  UNL     1      23.648   1.585  52.470  1.00  0.00     0.005 A 
HETATM    6  C1  UNL     1      24.871   1.617  53.086  1.00  0.00     0.095 A 
HETATM    7  C2  UNL     1      25.394   0.595  53.833  1.00  0.00     0.067 A 
HETATM    8 CL1  UNL     1      26.979   0.803  54.552  1.00  0.00    -0.081 Cl
HETATM    9  C3  UNL     1      24.688  -0.571  54.014  1.00  0.00     0.026 A 
HETATM   10  C4  UNL     1      23.447  -0.691  53.432  1.00  0.00     0.002 A 
HETATM   11  C5  UNL     1      22.984   0.368  52.698  1.00  0.00     0.012 A 
BRANCH   6  12
HETATM   12  O1  UNL     1      25.610   2.777  52.929  1.00  0.00    -0.358 OA
HETATM   13  H1  UNL     1      25.624   3.154  51.979  1.00  0.00     0.217 HD
ENDBRANCH   6  12
ENDBRANCH   4   5
ENDBRANCH   1   4
BRANCH   3  14
HETATM   14  O2  UNL     1      24.149   5.688  52.896  1.00  0.00    -0.345 OA
HETATM   15  H9  UNL     1      24.914   5.147  53.178  1.00  0.00     0.214 HD
ENDBRANCH   3  14
BRANCH   3  16
HETATM   16  N2  UNL     1      23.776   5.354  50.502  1.00  0.00    -0.332 N 
HETATM   17  H10 UNL     1      22.949   5.671  49.925  1.00  0.00     0.164 HD
BRANCH  16  18
HETATM   18  C10 UNL     1      25.045   5.273  49.865  1.00  0.00     0.031 A 
HETATM   19  C11 UNL     1      25.765   4.103  49.795  1.00  0.00     0.029 A 
HETATM   20  C12 UNL     1      27.002   3.975  49.185  1.00  0.00     0.002 A 
HETATM   21  C13 UNL     1      27.542   5.109  48.612  1.00  0.00     0.000 A 
HETATM   22  C14 UNL     1      26.838   6.291  48.671  1.00  0.00     0.002 A 
HETATM   23  C15 UNL     1      25.596   6.397  49.288  1.00  0.00     0.029 A 
ENDBRANCH  16  18
ENDBRANCH   3  16
TORSDOF 6
ENDMDL
MODEL 5
REMARK VINA RESULT:      -7.0      2.594      6.339
REMARK  6 active torsions:
REMARK  status: ('A' for Active; 'I' for Inactive)
REMARK    1  A    between atoms: O1_1  and  C1_2 
REMARK    2  A    between atoms: C6_8  and  C7_9 
REMARK    3  A    between atoms: C7_9  and  N1_10 
REMARK    4  A    between atoms: C9_12  and  O2_13 
REMARK    5  A    between atoms: C9_12  and  N2_14 
REMARK    6  A    between atoms: N2_14  and  C10_15 
ROOT
HETATM    1  N1  UNL     1      26.604   2.349  51.528  1.00  0.00     0.157 NA
HETATM    2  C8  UNL     1      26.928   1.172  52.225  1.00  0.00     0.375 A 
HETATM    3  C9  UNL     1      25.632   1.961  52.486  1.00  0.00     0.366 A 
ENDROOT
BRANCH   1   4
HETATM    4  C7  UNL     1      26.423   2.575  50.164  1.00  0.00     0.320 C 
BRANCH   4   5
HETATM    5  C6  UNL     1      26.332   4.024  49.863  1.00  0.00     0.005 A 
HETATM    6  C1  UNL     1      25.478   4.983  50.339  1.00  0.00     0.095 A 
HETATM    7  C2  UNL     1      25.488   6.296  49.951  1.00  0.00     0.067 A 
HETATM    8 CL1  UNL     1      24.320   7.394  50.662  1.00  0.00    -0.081 Cl
HETATM    9  C3  UNL     1      26.397   6.745  49.021  1.00  0.00     0.026 A 
HETATM   10  C4  UNL     1      27.296   5.848  48.490  1.00  0.00     0.002 A 
HETATM   11  C5  UNL     1      27.231   4.550  48.921  1.00  0.00     0.012 A 
BRANCH   6  12
HETATM   12  O1  UNL     1      24.551   4.571  51.280  1.00  0.00    -0.358 OA
HETATM   13  H1  UNL     1      24.385   3.563  51.310  1.00  0.00     0.217 HD
ENDBRANCH   6  12
ENDBRANCH   4   5
ENDBRANCH   1   4
BRANCH   3  14
HETATM   14  O2  UNL     1      25.649   2.801  53.626  1.00  0.00    -0.345 OA
HETATM   15  H9  UNL     1      24.810   3.293  53.728  1.00  0.00     0.214 HD
ENDBRANCH   3  14
BRANCH   3  16
HETATM   16  N2  UNL     1      24.412   1.307  52.137  1.00  0.00    -0.332 N 
HETATM   17  H10 UNL     1      24.229   1.322  51.095  1.00  0.00     0.164 HD
BRANCH  16  18
HETATM   18  C10 UNL     1      23.457   0.668  52.974  1.00  0.00     0.031 A 
HETATM   19  C11 UNL     1      22.139   1.059  53.029  1.00  0.00     0.029 A 
HETATM   20  C12 UNL     1      21.174   0.468  53.827  1.00  0.00     0.002 A 
HETATM   21  C13 UNL     1      21.575  -0.587  54.621  1.00  0.00     0.000 A 
HETATM   22  C14 UNL     1      22.890  -0.995  54.583  1.00  0.00     0.002 A 
HETATM   23  C15 UNL     1      23.842  -0.387  53.774  1.00  0.00     0.029 A 
ENDBRANCH  16  18
ENDBRANCH   3  16
TORSDOF 6
ENDMDL
MODEL 6
REMARK VINA RESULT:      -7.0      6.153      8.504
REMARK  6 active torsions:
REMARK  status: ('A' for Active; 'I' for Inactive)
REMARK    1  A    between atoms: O1_1  and  C1_2 
REMARK    2  A    between atoms: C6_8  and  C7_9 
REMARK    3  A    between atoms: C7_9  and  N1_10 
REMARK    4  A    between atoms: C9_12  and  O2_13 
REMARK    5  A    between atoms: C9_12  and  N2_14 
REMARK    6  A    between atoms: N2_14  and  C10_15 
ROOT
HETATM    1  N1  UNL     1      30.622   7.338  49.109  1.00  0.00     0.157 NA
HETATM    2  C8  UNL     1      31.726   8.023  49.646  1.00  0.00     0.375 A 
HETATM    3  C9  UNL     1      31.739   6.507  49.380  1.00  0.00     0.366 A 
ENDROOT
BRANCH   1   4
HETATM    4  C7  UNL     1      29.951   7.507  47.898  1.00  0.00     0.320 C 
BRANCH   4   5
HETATM    5  C6  UNL     1      28.514   7.163  48.024  1.00  0.00     0.005 A 
HETATM    6  C1  UNL     1      27.902   6.067  48.569  1.00  0.00     0.095 A 
HETATM    7  C2  UNL     1      26.548   5.862  48.595  1.00  0.00     0.067 A 
HETATM    8 CL1  UNL     1      25.931   4.397  49.334  1.00  0.00    -0.081 Cl
HETATM    9  C3  UNL     1      25.690   6.789  48.051  1.00  0.00     0.026 A 
HETATM   10  C4  UNL     1      26.218   7.925  47.481  1.00  0.00     0.002 A 
HETATM   11  C5  UNL     1      27.580   8.067  47.489  1.00  0.00     0.012 A 
BRANCH   6  12
HETATM   12  O1  UNL     1      28.733   5.112  49.130  1.00  0.00    -0.358 OA
HETATM   13  H1  UNL     1      28.366   4.661  49.971  1.00  0.00     0.217 HD
ENDBRANCH   6  12
ENDBRANCH   4   5
ENDBRANCH   1   4
BRANCH   3  14
HETATM   14  O2  UNL     1      31.526   5.687  50.514  1.00  0.00    -0.345 OA
HETATM   15  H9  UNL     1      30.587   5.431  50.606  1.00  0.00     0.214 HD
ENDBRANCH   3  14
BRANCH   3  16
HETATM   16  N2  UNL     1      32.636   6.051  48.365  1.00  0.00    -0.332 N 
HETATM   17  H10 UNL     1      33.265   6.822  48.006  1.00  0.00     0.164 HD
BRANCH  16  18
HETATM   18  C10 UNL     1      32.781   4.753  47.805  1.00  0.00     0.031 A 
HETATM   19  C11 UNL     1      33.958   4.044  47.873  1.00  0.00     0.029 A 
HETATM   20  C12 UNL     1      34.147   2.778  47.343  1.00  0.00     0.002 A 
HETATM   21  C13 UNL     1      33.071   2.197  46.703  1.00  0.00     0.000 A 
HETATM   22  C14 UNL     1      31.883   2.889  46.623  1.00  0.00     0.002 A 
HETATM   23  C15 UNL     1      31.715   4.159  47.162  1.00  0.00     0.029 A 
ENDBRANCH  16  18
ENDBRANCH   3  16
TORSDOF 6
ENDMDL
MODEL 7
REMARK VINA RESULT:      -6.9      2.888      3.816
REMARK  6 active torsions:
REMARK  status: ('A' for Active; 'I' for Inactive)
REMARK    1  A    between atoms: O1_1  and  C1_2 
REMARK    2  A    between atoms: C6_8  and  C7_9 
REMARK    3  A    between atoms: C7_9  and  N1_10 
REMARK    4  A    between atoms: C9_12  and  O2_13 
REMARK    5  A    between atoms: C9_12  and  N2_14 
REMARK    6  A    between atoms: N2_14  and  C10_15 
ROOT
HETATM    1  N1  UNL     1      22.773   3.692  52.058  1.00  0.00     0.157 NA
HETATM    2  C8  UNL     1      21.826   4.726  51.957  1.00  0.00     0.375 A 
HETATM    3  C9  UNL     1      23.335   4.961  51.766  1.00  0.00     0.366 A 
ENDROOT
BRANCH   1   4
HETATM    4  C7  UNL     1      22.904   2.508  51.334  1.00  0.00     0.320 C 
BRANCH   4   5
HETATM    5  C6  UNL     1      23.477   1.424  52.169  1.00  0.00     0.005 A 
HETATM    6  C1  UNL     1      22.906   0.650  53.142  1.00  0.00     0.095 A 
HETATM    7  C2  UNL     1      23.567  -0.310  53.862  1.00  0.00     0.067 A 
HETATM    8 CL1  UNL     1      22.681  -1.212  55.076  1.00  0.00    -0.081 Cl
HETATM    9  C3  UNL     1      24.900  -0.560  53.635  1.00  0.00     0.026 A 
HETATM   10  C4  UNL     1      25.556   0.172  52.672  1.00  0.00     0.002 A 
HETATM   11  C5  UNL     1      24.836   1.116  51.990  1.00  0.00     0.012 A 
BRANCH   6  12
HETATM   12  O1  UNL     1      21.563   0.869  53.397  1.00  0.00    -0.358 OA
HETATM   13  H1  UNL     1      21.275   0.707  54.364  1.00  0.00     0.217 HD
ENDBRANCH   6  12
ENDBRANCH   4   5
ENDBRANCH   1   4
BRANCH   3  14
HETATM   14  O2  UNL     1      24.013   5.509  52.882  1.00  0.00    -0.345 OA
HETATM   15  H9  UNL     1      24.099   4.861  53.609  1.00  0.00     0.214 HD
ENDBRANCH   3  14
BRANCH   3  16
HETATM   16  N2  UNL     1      23.754   5.345  50.456  1.00  0.00    -0.332 N 
HETATM   17  H10 UNL     1      22.971   5.774  49.890  1.00  0.00     0.164 HD
BRANCH  16  18
HETATM   18  C10 UNL     1      25.033   5.227  49.845  1.00  0.00     0.031 A 
HETATM   19  C11 UNL     1      25.645   6.275  49.198  1.00  0.00     0.029 A 
HETATM   20  C12 UNL     1      26.887   6.209  48.590  1.00  0.00     0.002 A 
HETATM   21  C13 UNL     1      27.550   5.000  48.643  1.00  0.00     0.000 A 
HETATM   22  C14 UNL     1      26.956   3.936  49.286  1.00  0.00     0.002 A 
HETATM   23  C15 UNL     1      25.707   4.025  49.890  1.00  0.00     0.029 A 
ENDBRANCH  16  18
ENDBRANCH   3  16
TORSDOF 6
ENDMDL
MODEL 8
REMARK VINA RESULT:      -6.9      1.552      2.285
REMARK  6 active torsions:
REMARK  status: ('A' for Active; 'I' for Inactive)
REMARK    1  A    between atoms: O1_1  and  C1_2 
REMARK    2  A    between atoms: C6_8  and  C7_9 
REMARK    3  A    between atoms: C7_9  and  N1_10 
REMARK    4  A    between atoms: C9_12  and  O2_13 
REMARK    5  A    between atoms: C9_12  and  N2_14 
REMARK    6  A    between atoms: N2_14  and  C10_15 
ROOT
HETATM    1  N1  UNL     1      25.148   3.272  51.042  1.00  0.00     0.157 NA
HETATM    2  C8  UNL     1      23.841   3.344  50.530  1.00  0.00     0.375 A 
HETATM    3  C9  UNL     1      24.814   4.537  50.493  1.00  0.00     0.366 A 
ENDROOT
BRANCH   1   4
HETATM    4  C7  UNL     1      26.213   2.441  50.697  1.00  0.00     0.320 C 
BRANCH   4   5
HETATM    5  C6  UNL     1      26.646   1.611  51.847  1.00  0.00     0.005 A 
HETATM    6  C1  UNL     1      27.667   1.789  52.742  1.00  0.00     0.095 A 
HETATM    7  C2  UNL     1      27.976   0.919  53.754  1.00  0.00     0.067 A 
HETATM    8 CL1  UNL     1      29.320   1.300  54.812  1.00  0.00    -0.081 Cl
HETATM    9  C3  UNL     1      27.245  -0.232  53.935  1.00  0.00     0.026 A 
HETATM   10  C4  UNL     1      26.198  -0.491  53.081  1.00  0.00     0.002 A 
HETATM   11  C5  UNL     1      25.943   0.420  52.091  1.00  0.00     0.012 A 
BRANCH   6  12
HETATM   12  O1  UNL     1      28.424   2.938  52.594  1.00  0.00    -0.358 OA
HETATM   13  H1  UNL     1      28.554   3.248  51.629  1.00  0.00     0.217 HD
ENDBRANCH   6  12
ENDBRANCH   4   5
ENDBRANCH   1   4
BRANCH   3  14
HETATM   14  O2  UNL     1      24.618   5.515  51.499  1.00  0.00    -0.345 OA
HETATM   15  H9  UNL     1      24.739   5.143  52.395  1.00  0.00     0.214 HD
ENDBRANCH   3  14
BRANCH   3  16
HETATM   16  N2  UNL     1      25.243   4.963  49.199  1.00  0.00    -0.332 N 
HETATM   17  H10 UNL     1      24.523   4.768  48.450  1.00  0.00     0.164 HD
BRANCH  16  18
HETATM   18  C10 UNL     1      26.460   5.587  48.811  1.00  0.00     0.031 A 
HETATM   19  C11 UNL     1      27.630   4.884  48.635  1.00  0.00     0.029 A 
HETATM   20  C12 UNL     1      28.838   5.447  48.257  1.00  0.00     0.002 A 
HETATM   21  C13 UNL     1      28.858   6.810  48.046  1.00  0.00     0.000 A 
HETATM   22  C14 UNL     1      27.699   7.534  48.217  1.00  0.00     0.002 A 
HETATM   23  C15 UNL     1      26.496   6.948  48.596  1.00  0.00     0.029 A 
ENDBRANCH  16  18
ENDBRANCH   3  16
TORSDOF 6
ENDMDL
MODEL 9
REMARK VINA RESULT:      -6.8      3.175      5.741
REMARK  6 active torsions:
REMARK  status: ('A' for Active; 'I' for Inactive)
REMARK    1  A    between atoms: O1_1  and  C1_2 
REMARK    2  A    between atoms: C6_8  and  C7_9 
REMARK    3  A    between atoms: C7_9  and  N1_10 
REMARK    4  A    between atoms: C9_12  and  O2_13 
REMARK    5  A    between atoms: C9_12  and  N2_14 
REMARK    6  A    between atoms: N2_14  and  C10_15 
ROOT
HETATM    1  N1  UNL     1      24.690   3.298  51.769  1.00  0.00     0.157 NA
HETATM    2  C8  UNL     1      24.413   2.764  50.499  1.00  0.00     0.375 A 
HETATM    3  C9  UNL     1      25.846   2.923  51.038  1.00  0.00     0.366 A 
ENDROOT
BRANCH   1   4
HETATM    4  C7  UNL     1      24.301   2.871  53.038  1.00  0.00     0.320 C 
BRANCH   4   5
HETATM    5  C6  UNL     1      23.366   1.723  52.959  1.00  0.00     0.005 A 
HETATM    6  C1  UNL     1      22.039   1.673  52.628  1.00  0.00     0.095 A 
HETATM    7  C2  UNL     1      21.280   0.533  52.621  1.00  0.00     0.067 A 
HETATM    8 CL1  UNL     1      19.589   0.649  52.171  1.00  0.00    -0.081 Cl
HETATM    9  C3  UNL     1      21.834  -0.679  52.961  1.00  0.00     0.026 A 
HETATM   10  C4  UNL     1      23.165  -0.723  53.308  1.00  0.00     0.002 A 
HETATM   11  C5  UNL     1      23.866   0.453  53.294  1.00  0.00     0.012 A 
BRANCH   6  12
HETATM   12  O1  UNL     1      21.446   2.873  52.275  1.00  0.00    -0.358 OA
HETATM   13  H1  UNL     1      20.525   3.037  52.689  1.00  0.00     0.217 HD
ENDBRANCH   6  12
ENDBRANCH   4   5
ENDBRANCH   1   4
BRANCH   3  14
HETATM   14  O2  UNL     1      26.556   4.050  50.557  1.00  0.00    -0.345 OA
HETATM   15  H9  UNL     1      27.416   3.798  50.164  1.00  0.00     0.214 HD
ENDBRANCH   3  14
BRANCH   3  16
HETATM   16  N2  UNL     1      26.567   1.715  51.284  1.00  0.00    -0.332 N 
HETATM   17  H10 UNL     1      26.456   1.012  50.503  1.00  0.00     0.164 HD
BRANCH  16  18
HETATM   18  C10 UNL     1      27.376   1.357  52.397  1.00  0.00     0.031 A 
HETATM   19  C11 UNL     1      28.129   2.274  53.092  1.00  0.00     0.029 A 
HETATM   20  C12 UNL     1      28.930   1.974  54.180  1.00  0.00     0.002 A 
HETATM   21  C13 UNL     1      28.969   0.656  54.588  1.00  0.00     0.000 A 
HETATM   22  C14 UNL     1      28.224  -0.280  53.907  1.00  0.00     0.002 A 
HETATM   23  C15 UNL     1      27.425   0.044  52.816  1.00  0.00     0.029 A 
ENDBRANCH  16  18
ENDBRANCH   3  16
TORSDOF 6
ENDMDL
