MODEL 1
REMARK VINA RESULT:      -8.2      0.000      0.000
REMARK  3 active torsions:
REMARK  status: ('A' for Active; 'I' for Inactive)
REMARK    1  A    between atoms: O1_2  and  C2_3 
REMARK    2  A    between atoms: C10_12  and  C11_13 
REMARK    3  A    between atoms: C11_13  and  N2_14 
ROOT
HETATM    1  C2  UNL     1      24.827   4.342  49.604  1.00  0.00     0.070 A 
HETATM    2  C3  UNL     1      23.755   3.635  49.085  1.00  0.00     0.039 A 
HETATM    3  C4  UNL     1      23.253   2.539  49.810  1.00  0.00     0.042 A 
HETATM    4  C5  UNL     1      23.758   2.089  51.045  1.00  0.00     0.096 A 
HETATM    5  C6  UNL     1      24.826   2.812  51.533  1.00  0.00     0.068 A 
HETATM    6  C7  UNL     1      25.318   3.882  50.831  1.00  0.00     0.069 A 
HETATM    7  N1  UNL     1      25.525   2.548  52.744  1.00  0.00    -0.364 N 
HETATM    8  C8  UNL     1      26.626   1.765  53.167  1.00  0.00     0.085 C 
HETATM    9  C9  UNL     1      27.133   0.626  53.513  1.00  0.00    -0.003 C 
HETATM   10  C10 UNL     1      26.210  -0.550  53.512  1.00  0.00     0.039 C 
HETATM   11  C13 UNL     1      24.858  -0.121  53.098  1.00  0.00     0.035 A 
HETATM   12  C14 UNL     1      23.592  -0.004  53.398  1.00  0.00    -0.045 A 
HETATM   13  O2  UNL     1      24.277  -0.572  54.440  1.00  0.00     0.000 OA
HETATM   14  C15 UNL     1      22.561   0.551  52.552  1.00  0.00     0.210 C 
HETATM   15  O3  UNL     1      22.927   1.029  51.301  1.00  0.00    -0.345 OA
HETATM   16  H7  UNL     1      24.936   3.184  53.314  1.00  0.00     0.165 HD
HETATM   17  H15 UNL     1      23.818  -0.858  55.316  1.00  0.00     0.000 HD
ENDROOT
BRANCH  10  18
HETATM   18  C11 UNL     1      26.817  -1.587  52.671  1.00  0.00     0.104 C 
BRANCH  18  19
HETATM   19  N2  UNL     1      27.577  -2.552  53.057  1.00  0.00    -0.221 NA
HETATM   20  C12 UNL     1      28.978  -2.315  53.120  1.00  0.00     0.194 A 
HETATM   21  N3  UNL     1      28.607  -3.555  53.133  1.00  0.00    -0.234 NA
HETATM   22  H13 UNL     1      27.582  -3.777  53.088  1.00  0.00     0.142 HD
ENDBRANCH  18  19
ENDBRANCH  10  18
BRANCH   1  23
HETATM   23  O1  UNL     1      25.422   5.437  49.003  1.00  0.00    -0.356 OA
HETATM   24  C1  UNL     1      26.829   5.440  48.759  1.00  0.00     0.210 C 
ENDBRANCH   1  23
TORSDOF 3
ENDMDL
MODEL 2
REMARK VINA RESULT:      -8.0      2.288      2.690
REMARK  3 active torsions:
REMARK  status: ('A' for Active; 'I' for Inactive)
REMARK    1  A    between atoms: O1_2  and  C2_3 
REMARK    2  A    between atoms: C10_12  and  C11_13 
REMARK    3  A    between atoms: C11_13  and  N2_14 
ROOT
HETATM    1  C2  UNL     1      21.567   2.284  50.461  1.00  0.00     0.070 A 
HETATM    2  C3  UNL     1      20.805   1.133  50.572  1.00  0.00     0.039 A 
HETATM    3  C4  UNL     1      21.157   0.181  51.546  1.00  0.00     0.042 A 
HETATM    4  C5  UNL     1      22.242   0.301  52.436  1.00  0.00     0.096 A 
HETATM    5  C6  UNL     1      22.981   1.456  52.299  1.00  0.00     0.068 A 
HETATM    6  C7  UNL     1      22.641   2.388  51.351  1.00  0.00     0.069 A 
HETATM    7  N1  UNL     1      24.132   1.803  53.059  1.00  0.00    -0.364 N 
HETATM    8  C8  UNL     1      25.532   1.606  52.988  1.00  0.00     0.085 C 
HETATM    9  C9  UNL     1      26.575   0.861  53.160  1.00  0.00    -0.003 C 
HETATM   10  C10 UNL     1      26.341  -0.513  53.701  1.00  0.00     0.039 C 
HETATM   11  C13 UNL     1      24.896  -0.717  53.930  1.00  0.00     0.035 A 
HETATM   12  C14 UNL     1      23.932  -0.970  54.776  1.00  0.00    -0.045 A 
HETATM   13  O2  UNL     1      25.140  -0.946  55.423  1.00  0.00     0.000 OA
HETATM   14  C15 UNL     1      22.525  -1.070  54.464  1.00  0.00     0.210 C 
HETATM   15  O3  UNL     1      22.130  -0.866  53.149  1.00  0.00    -0.345 OA
HETATM   16  H7  UNL     1      23.595   2.327  53.777  1.00  0.00     0.165 HD
HETATM   17  H15 UNL     1      25.231  -1.116  56.435  1.00  0.00     0.000 HD
ENDROOT
BRANCH  10  18
HETATM   18  C11 UNL     1      26.963  -1.464  52.774  1.00  0.00     0.104 C 
BRANCH  18  19
HETATM   19  N2  UNL     1      27.647  -2.511  53.080  1.00  0.00    -0.221 NA
HETATM   20  C12 UNL     1      29.049  -2.363  53.263  1.00  0.00     0.194 A 
HETATM   21  N3  UNL     1      28.620  -3.573  53.092  1.00  0.00    -0.234 NA
HETATM   22  H13 UNL     1      27.591  -3.729  52.954  1.00  0.00     0.142 HD
ENDBRANCH  18  19
ENDBRANCH  10  18
BRANCH   1  23
HETATM   23  O1  UNL     1      21.338   3.302  49.552  1.00  0.00    -0.356 OA
HETATM   24  C1  UNL     1      20.902   4.582  50.011  1.00  0.00     0.210 C 
ENDBRANCH   1  23
TORSDOF 3
ENDMDL
MODEL 3
REMARK VINA RESULT:      -7.7      2.391      6.429
REMARK  3 active torsions:
REMARK  status: ('A' for Active; 'I' for Inactive)
REMARK    1  A    between atoms: O1_2  and  C2_3 
REMARK    2  A    between atoms: C10_12  and  C11_13 
REMARK    3  A    between atoms: C11_13  and  N2_14 
ROOT
HETATM    1  C2  UNL     1      26.859  -0.053  53.768  1.00  0.00     0.070 A 
HETATM    2  C3  UNL     1      25.575  -0.223  54.258  1.00  0.00     0.039 A 
HETATM    3  C4  UNL     1      24.496   0.295  53.519  1.00  0.00     0.042 A 
HETATM    4  C5  UNL     1      24.612   0.986  52.298  1.00  0.00     0.096 A 
HETATM    5  C6  UNL     1      25.902   1.141  51.838  1.00  0.00     0.068 A 
HETATM    6  C7  UNL     1      26.958   0.637  52.555  1.00  0.00     0.069 A 
HETATM    7  N1  UNL     1      26.287   1.817  50.647  1.00  0.00    -0.364 N 
HETATM    8  C8  UNL     1      26.622   3.135  50.253  1.00  0.00     0.085 C 
HETATM    9  C9  UNL     1      26.272   4.336  49.921  1.00  0.00    -0.003 C 
HETATM   10  C10 UNL     1      24.806   4.628  49.897  1.00  0.00     0.039 C 
HETATM   11  C13 UNL     1      24.051   3.416  50.274  1.00  0.00     0.035 A 
HETATM   12  C14 UNL     1      23.172   2.508  49.940  1.00  0.00    -0.045 A 
HETATM   13  O2  UNL     1      23.345   3.403  48.917  1.00  0.00     0.000 OA
HETATM   14  C15 UNL     1      22.733   1.401  50.758  1.00  0.00     0.210 C 
HETATM   15  O3  UNL     1      23.296   1.255  52.019  1.00  0.00    -0.345 OA
HETATM   16  H7  UNL     1      26.266   0.961  50.062  1.00  0.00     0.165 HD
HETATM   17  H15 UNL     1      22.828   3.336  48.028  1.00  0.00     0.000 HD
ENDROOT
BRANCH  10  18
HETATM   18  C11 UNL     1      24.574   5.796  50.753  1.00  0.00     0.104 C 
BRANCH  18  19
HETATM   19  N2  UNL     1      25.379   6.780  50.959  1.00  0.00    -0.221 NA
HETATM   20  C12 UNL     1      25.241   7.937  50.145  1.00  0.00     0.194 A 
HETATM   21  N3  UNL     1      26.355   7.825  50.795  1.00  0.00    -0.234 NA
HETATM   22  H13 UNL     1      26.500   6.986  51.409  1.00  0.00     0.142 HD
ENDBRANCH  18  19
ENDBRANCH  10  18
BRANCH   1  23
HETATM   23  O1  UNL     1      28.011  -0.508  54.386  1.00  0.00    -0.356 OA
HETATM   24  C1  UNL     1      29.289  -0.075  53.917  1.00  0.00     0.210 C 
ENDBRANCH   1  23
TORSDOF 3
ENDMDL
MODEL 4
REMARK VINA RESULT:      -7.7      2.995      6.898
REMARK  3 active torsions:
REMARK  status: ('A' for Active; 'I' for Inactive)
REMARK    1  A    between atoms: O1_2  and  C2_3 
REMARK    2  A    between atoms: C10_12  and  C11_13 
REMARK    3  A    between atoms: C11_13  and  N2_14 
ROOT
HETATM    1  C2  UNL     1      26.936   1.247  53.075  1.00  0.00     0.070 A 
HETATM    2  C3  UNL     1      25.765   1.525  53.760  1.00  0.00     0.039 A 
HETATM    3  C4  UNL     1      24.776   2.294  53.122  1.00  0.00     0.042 A 
HETATM    4  C5  UNL     1      24.876   2.818  51.819  1.00  0.00     0.096 A 
HETATM    5  C6  UNL     1      26.054   2.525  51.165  1.00  0.00     0.068 A 
HETATM    6  C7  UNL     1      27.021   1.774  51.782  1.00  0.00     0.069 A 
HETATM    7  N1  UNL     1      26.406   2.952  49.855  1.00  0.00    -0.364 N 
HETATM    8  C8  UNL     1      27.041   4.064  49.251  1.00  0.00     0.085 C 
HETATM    9  C9  UNL     1      27.010   5.284  48.822  1.00  0.00    -0.003 C 
HETATM   10  C10 UNL     1      25.715   6.017  48.969  1.00  0.00     0.039 C 
HETATM   11  C13 UNL     1      24.713   5.135  49.602  1.00  0.00     0.035 A 
HETATM   12  C14 UNL     1      23.561   4.523  49.515  1.00  0.00    -0.045 A 
HETATM   13  O2  UNL     1      23.809   5.237  48.372  1.00  0.00     0.000 OA
HETATM   14  C15 UNL     1      22.965   3.676  50.522  1.00  0.00     0.210 C 
HETATM   15  O3  UNL     1      23.671   3.461  51.698  1.00  0.00    -0.345 OA
HETATM   16  H7  UNL     1      26.031   2.102  49.392  1.00  0.00     0.165 HD
HETATM   17  H15 UNL     1      23.149   5.266  47.581  1.00  0.00     0.000 HD
ENDROOT
BRANCH  10  18
HETATM   18  C11 UNL     1      25.992   7.262  49.692  1.00  0.00     0.104 C 
BRANCH  18  19
HETATM   19  N2  UNL     1      27.146   7.778  49.935  1.00  0.00    -0.221 NA
HETATM   20  C12 UNL     1      27.223   9.186  50.115  1.00  0.00     0.194 A 
HETATM   21  N3  UNL     1      28.342   8.578  49.882  1.00  0.00    -0.234 NA
HETATM   22  H13 UNL     1      28.332   7.537  49.743  1.00  0.00     0.142 HD
ENDBRANCH  18  19
ENDBRANCH  10  18
BRANCH   1  23
HETATM   23  O1  UNL     1      27.992   0.504  53.576  1.00  0.00    -0.356 OA
HETATM   24  C1  UNL     1      29.047   1.155  54.286  1.00  0.00     0.210 C 
ENDBRANCH   1  23
TORSDOF 3
ENDMDL
MODEL 5
REMARK VINA RESULT:      -7.1      2.923      6.312
REMARK  3 active torsions:
REMARK  status: ('A' for Active; 'I' for Inactive)
REMARK    1  A    between atoms: O1_2  and  C2_3 
REMARK    2  A    between atoms: C10_12  and  C11_13 
REMARK    3  A    between atoms: C11_13  and  N2_14 
ROOT
HETATM    1  C2  UNL     1      27.131  -0.200  53.292  1.00  0.00     0.070 A 
HETATM    2  C3  UNL     1      27.628   0.947  52.696  1.00  0.00     0.039 A 
HETATM    3  C4  UNL     1      26.726   1.962  52.328  1.00  0.00     0.042 A 
HETATM    4  C5  UNL     1      25.331   1.909  52.517  1.00  0.00     0.096 A 
HETATM    5  C6  UNL     1      24.869   0.754  53.110  1.00  0.00     0.068 A 
HETATM    6  C7  UNL     1      25.745  -0.238  53.472  1.00  0.00     0.069 A 
HETATM    7  N1  UNL     1      23.508   0.449  53.389  1.00  0.00    -0.364 N 
HETATM    8  C8  UNL     1      22.414  -0.161  52.727  1.00  0.00     0.085 C 
HETATM    9  C9  UNL     1      21.440  -0.109  51.878  1.00  0.00    -0.003 C 
HETATM   10  C10 UNL     1      21.249   1.183  51.150  1.00  0.00     0.039 C 
HETATM   11  C13 UNL     1      22.266   2.158  51.592  1.00  0.00     0.035 A 
HETATM   12  C14 UNL     1      22.530   3.310  52.151  1.00  0.00    -0.045 A 
HETATM   13  O2  UNL     1      21.176   3.105  52.097  1.00  0.00     0.000 OA
HETATM   14  C15 UNL     1      23.842   3.867  52.383  1.00  0.00     0.210 C 
HETATM   15  O3  UNL     1      24.947   3.120  52.000  1.00  0.00    -0.345 OA
HETATM   16  H7  UNL     1      23.537   0.836  54.351  1.00  0.00     0.165 HD
HETATM   17  H15 UNL     1      20.495   3.792  52.453  1.00  0.00     0.000 HD
ENDROOT
BRANCH  10  18
HETATM   18  C11 UNL     1      21.255   0.887  49.714  1.00  0.00     0.104 C 
BRANCH  18  19
HETATM   19  N2  UNL     1      20.468   1.372  48.818  1.00  0.00    -0.221 NA
HETATM   20  C12 UNL     1      20.924   2.487  48.062  1.00  0.00     0.194 A 
HETATM   21  N3  UNL     1      19.650   2.255  48.027  1.00  0.00    -0.234 NA
HETATM   22  H13 UNL     1      19.270   1.441  48.571  1.00  0.00     0.142 HD
ENDBRANCH  18  19
ENDBRANCH  10  18
BRANCH   1  23
HETATM   23  O1  UNL     1      27.899  -1.276  53.705  1.00  0.00    -0.356 OA
HETATM   24  C1  UNL     1      29.310  -1.268  53.489  1.00  0.00     0.210 C 
ENDBRANCH   1  23
TORSDOF 3
ENDMDL
MODEL 6
REMARK VINA RESULT:      -7.1      3.604      7.646
REMARK  3 active torsions:
REMARK  status: ('A' for Active; 'I' for Inactive)
REMARK    1  A    between atoms: O1_2  and  C2_3 
REMARK    2  A    between atoms: C10_12  and  C11_13 
REMARK    3  A    between atoms: C11_13  and  N2_14 
ROOT
HETATM    1  C2  UNL     1      24.504   2.986  52.554  1.00  0.00     0.070 A 
HETATM    2  C3  UNL     1      23.637   4.002  52.920  1.00  0.00     0.039 A 
HETATM    3  C4  UNL     1      23.468   5.093  52.049  1.00  0.00     0.042 A 
HETATM    4  C5  UNL     1      24.119   5.244  50.810  1.00  0.00     0.096 A 
HETATM    5  C6  UNL     1      24.977   4.218  50.475  1.00  0.00     0.068 A 
HETATM    6  C7  UNL     1      25.144   3.151  51.321  1.00  0.00     0.069 A 
HETATM    7  N1  UNL     1      25.765   4.144  49.294  1.00  0.00    -0.364 N 
HETATM    8  C8  UNL     1      27.049   4.560  48.863  1.00  0.00     0.085 C 
HETATM    9  C9  UNL     1      27.849   5.480  48.432  1.00  0.00    -0.003 C 
HETATM   10  C10 UNL     1      27.268   6.845  48.244  1.00  0.00     0.039 C 
HETATM   11  C13 UNL     1      25.837   6.831  48.609  1.00  0.00     0.035 A 
HETATM   12  C14 UNL     1      24.596   7.007  48.239  1.00  0.00    -0.045 A 
HETATM   13  O2  UNL     1      25.445   7.249  47.190  1.00  0.00     0.000 OA
HETATM   14  C15 UNL     1      23.425   6.843  49.068  1.00  0.00     0.210 C 
HETATM   15  O3  UNL     1      23.607   6.443  50.385  1.00  0.00    -0.345 OA
HETATM   16  H7  UNL     1      25.051   3.616  48.757  1.00  0.00     0.165 HD
HETATM   17  H15 UNL     1      25.110   7.534  46.259  1.00  0.00     0.000 HD
ENDROOT
BRANCH  10  18
HETATM   18  C11 UNL     1      28.095   7.786  49.006  1.00  0.00     0.104 C 
BRANCH  18  19
HETATM   19  N2  UNL     1      27.713   8.551  49.969  1.00  0.00    -0.221 NA
HETATM   20  C12 UNL     1      27.862   9.956  49.805  1.00  0.00     0.194 A 
HETATM   21  N3  UNL     1      27.668   9.539  51.015  1.00  0.00    -0.234 NA
HETATM   22  H13 UNL     1      27.553   8.509  51.183  1.00  0.00     0.142 HD
ENDBRANCH  18  19
ENDBRANCH  10  18
BRANCH   1  23
HETATM   23  O1  UNL     1      24.768   1.856  53.309  1.00  0.00    -0.356 OA
HETATM   24  C1  UNL     1      23.926   0.709  53.191  1.00  0.00     0.210 C 
ENDBRANCH   1  23
TORSDOF 3
ENDMDL
MODEL 7
REMARK VINA RESULT:      -7.1      3.961      7.028
REMARK  3 active torsions:
REMARK  status: ('A' for Active; 'I' for Inactive)
REMARK    1  A    between atoms: O1_2  and  C2_3 
REMARK    2  A    between atoms: C10_12  and  C11_13 
REMARK    3  A    between atoms: C11_13  and  N2_14 
ROOT
HETATM    1  C2  UNL     1      25.316  -0.278  53.159  1.00  0.00     0.070 A 
HETATM    2  C3  UNL     1      25.755   0.745  52.336  1.00  0.00     0.039 A 
HETATM    3  C4  UNL     1      24.844   1.748  51.959  1.00  0.00     0.042 A 
HETATM    4  C5  UNL     1      23.494   1.802  52.355  1.00  0.00     0.096 A 
HETATM    5  C6  UNL     1      23.087   0.769  53.172  1.00  0.00     0.068 A 
HETATM    6  C7  UNL     1      23.973  -0.211  53.544  1.00  0.00     0.069 A 
HETATM    7  N1  UNL     1      21.775   0.584  53.689  1.00  0.00    -0.364 N 
HETATM    8  C8  UNL     1      20.572  -0.048  53.291  1.00  0.00     0.085 C 
HETATM    9  C9  UNL     1      19.482  -0.060  52.595  1.00  0.00    -0.003 C 
HETATM   10  C10 UNL     1      19.227   1.127  51.722  1.00  0.00     0.039 C 
HETATM   11  C13 UNL     1      20.334   2.095  51.862  1.00  0.00     0.035 A 
HETATM   12  C14 UNL     1      20.721   3.296  52.202  1.00  0.00    -0.045 A 
HETATM   13  O2  UNL     1      19.368   3.163  52.377  1.00  0.00     0.000 OA
HETATM   14  C15 UNL     1      22.072   3.805  52.155  1.00  0.00     0.210 C 
HETATM   15  O3  UNL     1      23.079   2.949  51.728  1.00  0.00    -0.345 OA
HETATM   16  H7  UNL     1      21.965   1.100  54.570  1.00  0.00     0.165 HD
HETATM   17  H15 UNL     1      18.775   3.931  52.724  1.00  0.00     0.000 HD
ENDROOT
BRANCH  10  18
HETATM   18  C11 UNL     1      19.003   0.633  50.360  1.00  0.00     0.104 C 
BRANCH  18  19
HETATM   19  N2  UNL     1      17.898   0.654  49.699  1.00  0.00    -0.221 NA
HETATM   20  C12 UNL     1      16.862  -0.234  50.101  1.00  0.00     0.194 A 
HETATM   21  N3  UNL     1      16.746   0.282  48.919  1.00  0.00    -0.234 NA
HETATM   22  H13 UNL     1      17.489   0.943  48.581  1.00  0.00     0.142 HD
ENDBRANCH  18  19
ENDBRANCH  10  18
BRANCH   1  23
HETATM   23  O1  UNL     1      26.099  -1.327  53.609  1.00  0.00    -0.356 OA
HETATM   24  C1  UNL     1      27.153  -1.831  52.788  1.00  0.00     0.210 C 
ENDBRANCH   1  23
TORSDOF 3
ENDMDL
MODEL 8
REMARK VINA RESULT:      -6.6      2.941      4.695
REMARK  3 active torsions:
REMARK  status: ('A' for Active; 'I' for Inactive)
REMARK    1  A    between atoms: O1_2  and  C2_3 
REMARK    2  A    between atoms: C10_12  and  C11_13 
REMARK    3  A    between atoms: C11_13  and  N2_14 
ROOT
HETATM    1  C2  UNL     1      22.152   7.170  50.543  1.00  0.00     0.070 A 
HETATM    2  C3  UNL     1      23.324   7.860  50.284  1.00  0.00     0.039 A 
HETATM    3  C4  UNL     1      24.515   7.130  50.115  1.00  0.00     0.042 A 
HETATM    4  C5  UNL     1      24.619   5.728  50.188  1.00  0.00     0.096 A 
HETATM    5  C6  UNL     1      23.436   5.071  50.448  1.00  0.00     0.068 A 
HETATM    6  C7  UNL     1      22.272   5.778  50.613  1.00  0.00     0.069 A 
HETATM    7  N1  UNL     1      23.279   3.664  50.591  1.00  0.00    -0.364 N 
HETATM    8  C8  UNL     1      23.351   2.702  51.628  1.00  0.00     0.085 C 
HETATM    9  C9  UNL     1      24.042   1.942  52.414  1.00  0.00    -0.003 C 
HETATM   10  C10 UNL     1      25.529   2.001  52.272  1.00  0.00     0.039 C 
HETATM   11  C13 UNL     1      25.890   2.962  51.210  1.00  0.00     0.035 A 
HETATM   12  C14 UNL     1      26.465   3.174  50.055  1.00  0.00    -0.045 A 
HETATM   13  O2  UNL     1      26.573   1.854  50.405  1.00  0.00     0.000 OA
HETATM   14  C15 UNL     1      26.550   4.439  49.363  1.00  0.00     0.210 C 
HETATM   15  O3  UNL     1      25.958   5.548  49.951  1.00  0.00    -0.345 OA
HETATM   16  H7  UNL     1      23.052   3.509  49.590  1.00  0.00     0.165 HD
HETATM   17  H15 UNL     1      27.055   1.160  49.815  1.00  0.00     0.000 HD
ENDROOT
BRANCH  10  18
HETATM   18  C11 UNL     1      26.088   2.299  53.595  1.00  0.00     0.104 C 
BRANCH  18  19
HETATM   19  N2  UNL     1      27.318   2.549  53.880  1.00  0.00    -0.221 NA
HETATM   20  C12 UNL     1      28.301   1.599  53.488  1.00  0.00     0.194 A 
HETATM   21  N3  UNL     1      28.667   2.466  54.378  1.00  0.00    -0.234 NA
HETATM   22  H13 UNL     1      27.973   3.187  54.696  1.00  0.00     0.142 HD
ENDBRANCH  18  19
ENDBRANCH  10  18
BRANCH   1  23
HETATM   23  O1  UNL     1      20.912   7.754  50.731  1.00  0.00    -0.356 OA
HETATM   24  C1  UNL     1      19.935   7.704  49.690  1.00  0.00     0.210 C 
ENDBRANCH   1  23
TORSDOF 3
ENDMDL
MODEL 9
REMARK VINA RESULT:      -6.6      1.966      2.460
REMARK  3 active torsions:
REMARK  status: ('A' for Active; 'I' for Inactive)
REMARK    1  A    between atoms: O1_2  and  C2_3 
REMARK    2  A    between atoms: C10_12  and  C11_13 
REMARK    3  A    between atoms: C11_13  and  N2_14 
ROOT
HETATM    1  C2  UNL     1      22.849   4.110  48.301  1.00  0.00     0.070 A 
HETATM    2  C3  UNL     1      22.278   2.989  47.722  1.00  0.00     0.039 A 
HETATM    3  C4  UNL     1      21.964   1.891  48.543  1.00  0.00     0.042 A 
HETATM    4  C5  UNL     1      22.187   1.832  49.932  1.00  0.00     0.096 A 
HETATM    5  C6  UNL     1      22.759   2.963  50.477  1.00  0.00     0.068 A 
HETATM    6  C7  UNL     1      23.065   4.037  49.681  1.00  0.00     0.069 A 
HETATM    7  N1  UNL     1      23.102   3.145  51.845  1.00  0.00    -0.364 N 
HETATM    8  C8  UNL     1      24.214   2.900  52.687  1.00  0.00     0.085 C 
HETATM    9  C9  UNL     1      24.933   2.093  53.398  1.00  0.00    -0.003 C 
HETATM   10  C10 UNL     1      24.490   0.667  53.454  1.00  0.00     0.039 C 
HETATM   11  C13 UNL     1      23.267   0.493  52.644  1.00  0.00     0.035 A 
HETATM   12  C14 UNL     1      22.003   0.162  52.601  1.00  0.00    -0.045 A 
HETATM   13  O2  UNL     1      22.485   0.038  53.878  1.00  0.00     0.000 OA
HETATM   14  C15 UNL     1      21.157   0.169  51.430  1.00  0.00     0.210 C 
HETATM   15  O3  UNL     1      21.711   0.580  50.225  1.00  0.00    -0.345 OA
HETATM   16  H7  UNL     1      22.194   3.580  52.096  1.00  0.00     0.165 HD
HETATM   17  H15 UNL     1      21.900  -0.282  54.664  1.00  0.00     0.000 HD
ENDROOT
BRANCH  10  18
HETATM   18  C11 UNL     1      25.627  -0.165  53.046  1.00  0.00     0.104 C 
BRANCH  18  19
HETATM   19  N2  UNL     1      26.711  -0.376  53.708  1.00  0.00    -0.221 NA
HETATM   20  C12 UNL     1      27.951  -0.192  53.036  1.00  0.00     0.194 A 
HETATM   21  N3  UNL     1      27.994  -0.866  54.141  1.00  0.00    -0.234 NA
HETATM   22  H13 UNL     1      27.102  -1.027  54.670  1.00  0.00     0.142 HD
ENDBRANCH  18  19
ENDBRANCH  10  18
BRANCH   1  23
HETATM   23  O1  UNL     1      23.208   5.260  47.618  1.00  0.00    -0.356 OA
HETATM   24  C1  UNL     1      22.204   6.063  46.997  1.00  0.00     0.210 C 
ENDBRANCH   1  23
TORSDOF 3
ENDMDL
