MODEL 1
REMARK VINA RESULT:      -7.3      0.000      0.000
REMARK  5 active torsions:
REMARK  status: ('A' for Active; 'I' for Inactive)
REMARK    1  A    between atoms: C9_10  and  C10_11 
REMARK    2  A    between atoms: C11_12  and  C12_13 
REMARK    3  A    between atoms: C12_13  and  C13_14 
REMARK    4  A    between atoms: C13_14  and  C14_15 
REMARK    5  A    between atoms: C14_15  and  O1_16 
ROOT
HETATM    1  C1  UNL     1      21.385   2.209  47.792  1.00  0.00     0.019 C 
HETATM    2  C2  UNL     1      22.107   2.832  48.464  1.00  0.00    -0.059 C 
HETATM    3  C3  UNL     1      23.036   3.609  49.299  1.00  0.00     0.092 C 
HETATM    4  C4  UNL     1      24.294   3.501  49.808  1.00  0.00     0.006 C 
HETATM    5  C5  UNL     1      24.159   3.807  51.324  1.00  0.00     0.021 C 
HETATM    6  C6  UNL     1      22.992   4.090  51.846  1.00  0.00    -0.010 C 
HETATM    7  C7  UNL     1      22.582   2.948  52.615  1.00  0.00     0.308 C 
HETATM    8  N1  UNL     1      23.610   1.988  53.024  1.00  0.00     0.091 N 
HETATM    9  C8  UNL     1      24.306   1.373  51.895  1.00  0.00     0.308 C 
HETATM   10  C9  UNL     1      25.595   1.941  51.555  1.00  0.00    -0.032 C 
HETATM   11  C16 UNL     1      26.307   2.662  50.694  1.00  0.00     0.014 C 
HETATM   12  C17 UNL     1      25.795   3.290  49.452  1.00  0.00     0.168 C 
HETATM   13  N2  UNL     1      26.153   4.770  49.380  1.00  0.00    -0.271 NA
HETATM   14  C18 UNL     1      25.616   5.763  50.119  1.00  0.00     0.199 C 
HETATM   15  N3  UNL     1      24.365   5.939  50.876  1.00  0.00    -0.360 N 
HETATM   16  C19 UNL     1      23.038   5.397  51.160  1.00  0.00     0.214 C 
HETATM   17  N4  UNL     1      22.606   4.949  49.770  1.00  0.00    -0.358 N 
HETATM   18  H5  UNL     1      24.320   2.516  53.561  1.00  0.00     0.316 HD
HETATM   19  H22 UNL     1      24.461   6.826  51.460  1.00  0.00     0.162 HD
HETATM   20  H24 UNL     1      22.011   5.666  49.247  1.00  0.00     0.162 HD
ENDROOT
BRANCH  10  21
HETATM   21  C10 UNL     1      26.617   1.641  52.603  1.00  0.00     0.004 C 
HETATM   22  C11 UNL     1      27.740   2.323  52.888  1.00  0.00    -0.026 C 
BRANCH  22  23
HETATM   23  C12 UNL     1      28.869   2.243  53.830  1.00  0.00     0.029 C 
BRANCH  23  24
HETATM   24  C13 UNL     1      29.531   0.902  53.866  1.00  0.00     0.030 C 
BRANCH  24  25
HETATM   25  C14 UNL     1      28.806  -0.095  54.735  1.00  0.00     0.167 C 
BRANCH  25  26
HETATM   26  O1  UNL     1      28.242  -1.121  54.001  1.00  0.00    -0.396 OA
HETATM   27  C15 UNL     1      29.203  -1.852  53.302  1.00  0.00     0.201 C 
ENDBRANCH  25  26
ENDBRANCH  24  25
ENDBRANCH  23  24
ENDBRANCH  22  23
ENDBRANCH  10  21
TORSDOF 5
ENDMDL
MODEL 2
REMARK VINA RESULT:      -7.2      3.180      5.394
REMARK  5 active torsions:
REMARK  status: ('A' for Active; 'I' for Inactive)
REMARK    1  A    between atoms: C9_10  and  C10_11 
REMARK    2  A    between atoms: C11_12  and  C12_13 
REMARK    3  A    between atoms: C12_13  and  C13_14 
REMARK    4  A    between atoms: C13_14  and  C14_15 
REMARK    5  A    between atoms: C14_15  and  O1_16 
ROOT
HETATM    1  C1  UNL     1      27.554   4.739  48.602  1.00  0.00     0.019 C 
HETATM    2  C2  UNL     1      26.610   4.714  49.287  1.00  0.00    -0.059 C 
HETATM    3  C3  UNL     1      25.427   4.658  50.158  1.00  0.00     0.092 C 
HETATM    4  C4  UNL     1      24.558   3.734  50.652  1.00  0.00     0.006 C 
HETATM    5  C5  UNL     1      23.140   4.287  50.343  1.00  0.00     0.021 C 
HETATM    6  C6  UNL     1      22.990   5.429  49.721  1.00  0.00    -0.010 C 
HETATM    7  C7  UNL     1      22.550   5.132  48.387  1.00  0.00     0.308 C 
HETATM    8  N1  UNL     1      21.959   3.815  48.134  1.00  0.00     0.091 N 
HETATM    9  C8  UNL     1      22.873   2.710  48.417  1.00  0.00     0.308 C 
HETATM   10  C9  UNL     1      22.702   2.053  49.697  1.00  0.00    -0.032 C 
HETATM   11  C16 UNL     1      23.186   1.839  50.918  1.00  0.00     0.014 C 
HETATM   12  C17 UNL     1      24.434   2.416  51.472  1.00  0.00     0.168 C 
HETATM   13  N2  UNL     1      24.194   3.087  52.820  1.00  0.00    -0.271 NA
HETATM   14  C18 UNL     1      23.546   4.251  53.034  1.00  0.00     0.199 C 
HETATM   15  N3  UNL     1      23.217   5.426  52.210  1.00  0.00    -0.360 N 
HETATM   16  C19 UNL     1      23.449   6.118  50.945  1.00  0.00     0.214 C 
HETATM   17  N4  UNL     1      24.950   5.920  50.778  1.00  0.00    -0.358 N 
HETATM   18  H5  UNL     1      21.158   3.714  48.782  1.00  0.00     0.316 HD
HETATM   19  H22 UNL     1      22.523   6.023  52.758  1.00  0.00     0.162 HD
HETATM   20  H24 UNL     1      25.539   6.737  51.133  1.00  0.00     0.162 HD
ENDROOT
BRANCH  10  21
HETATM   21  C10 UNL     1      21.429   1.273  49.745  1.00  0.00     0.004 C 
HETATM   22  C11 UNL     1      20.593   1.111  50.785  1.00  0.00    -0.026 C 
BRANCH  22  23
HETATM   23  C12 UNL     1      19.326   0.421  51.083  1.00  0.00     0.029 C 
BRANCH  23  24
HETATM   24  C13 UNL     1      19.258  -0.146  52.466  1.00  0.00     0.030 C 
BRANCH  24  25
HETATM   25  C14 UNL     1      20.488   0.145  53.289  1.00  0.00     0.167 C 
BRANCH  25  26
HETATM   26  O1  UNL     1      21.186  -1.001  53.617  1.00  0.00    -0.396 OA
HETATM   27  C15 UNL     1      22.563  -0.833  53.471  1.00  0.00     0.201 C 
ENDBRANCH  25  26
ENDBRANCH  24  25
ENDBRANCH  23  24
ENDBRANCH  22  23
ENDBRANCH  10  21
TORSDOF 5
ENDMDL
MODEL 3
REMARK VINA RESULT:      -7.2      5.072      7.598
REMARK  5 active torsions:
REMARK  status: ('A' for Active; 'I' for Inactive)
REMARK    1  A    between atoms: C9_10  and  C10_11 
REMARK    2  A    between atoms: C11_12  and  C12_13 
REMARK    3  A    between atoms: C12_13  and  C13_14 
REMARK    4  A    between atoms: C13_14  and  C14_15 
REMARK    5  A    between atoms: C14_15  and  O1_16 
ROOT
HETATM    1  C1  UNL     1      31.637   8.912  44.513  1.00  0.00     0.019 C 
HETATM    2  C2  UNL     1      31.488   8.533  45.606  1.00  0.00    -0.059 C 
HETATM    3  C3  UNL     1      31.297   8.032  46.976  1.00  0.00     0.092 C 
HETATM    4  C4  UNL     1      30.661   7.014  47.617  1.00  0.00     0.006 C 
HETATM    5  C5  UNL     1      29.842   7.683  48.755  1.00  0.00     0.021 C 
HETATM    6  C6  UNL     1      29.868   8.982  48.920  1.00  0.00    -0.010 C 
HETATM    7  C7  UNL     1      28.602   9.492  48.474  1.00  0.00     0.308 C 
HETATM    8  N1  UNL     1      27.478   8.558  48.379  1.00  0.00     0.091 N 
HETATM    9  C8  UNL     1      27.720   7.459  47.446  1.00  0.00     0.308 C 
HETATM   10  C9  UNL     1      28.141   6.204  48.035  1.00  0.00    -0.032 C 
HETATM   11  C16 UNL     1      29.129   5.332  48.220  1.00  0.00     0.014 C 
HETATM   12  C17 UNL     1      30.515   5.466  47.714  1.00  0.00     0.168 C 
HETATM   13  N2  UNL     1      31.542   5.277  48.824  1.00  0.00    -0.271 NA
HETATM   14  C18 UNL     1      31.810   6.140  49.826  1.00  0.00     0.199 C 
HETATM   15  N3  UNL     1      31.611   7.583  50.039  1.00  0.00    -0.360 N 
HETATM   16  C19 UNL     1      31.253   8.857  49.421  1.00  0.00     0.214 C 
HETATM   17  N4  UNL     1      31.977   8.746  48.086  1.00  0.00    -0.358 N 
HETATM   18  H5  UNL     1      27.357   8.134  49.316  1.00  0.00     0.316 HD
HETATM   19  H22 UNL     1      31.809   7.790  51.066  1.00  0.00     0.162 HD
HETATM   20  H24 UNL     1      32.940   9.209  48.073  1.00  0.00     0.162 HD
ENDROOT
BRANCH  10  21
HETATM   21  C10 UNL     1      27.035   5.565  48.809  1.00  0.00     0.004 C 
HETATM   22  C11 UNL     1      26.873   4.264  49.106  1.00  0.00    -0.026 C 
BRANCH  22  23
HETATM   23  C12 UNL     1      25.912   3.409  49.823  1.00  0.00     0.029 C 
BRANCH  23  24
HETATM   24  C13 UNL     1      26.533   2.568  50.893  1.00  0.00     0.030 C 
BRANCH  24  25
HETATM   25  C14 UNL     1      25.596   2.274  52.037  1.00  0.00     0.167 C 
BRANCH  25  26
HETATM   26  O1  UNL     1      24.868   1.117  51.837  1.00  0.00    -0.396 OA
HETATM   27  C15 UNL     1      24.531   0.498  53.042  1.00  0.00     0.201 C 
ENDBRANCH  25  26
ENDBRANCH  24  25
ENDBRANCH  23  24
ENDBRANCH  22  23
ENDBRANCH  10  21
TORSDOF 5
ENDMDL
MODEL 4
REMARK VINA RESULT:      -7.1      1.844      3.712
REMARK  5 active torsions:
REMARK  status: ('A' for Active; 'I' for Inactive)
REMARK    1  A    between atoms: C9_10  and  C10_11 
REMARK    2  A    between atoms: C11_12  and  C12_13 
REMARK    3  A    between atoms: C12_13  and  C13_14 
REMARK    4  A    between atoms: C13_14  and  C14_15 
REMARK    5  A    between atoms: C14_15  and  O1_16 
ROOT
HETATM    1  C1  UNL     1      21.728   6.759  51.104  1.00  0.00     0.019 C 
HETATM    2  C2  UNL     1      21.852   5.644  50.783  1.00  0.00    -0.059 C 
HETATM    3  C3  UNL     1      21.997   4.232  50.401  1.00  0.00     0.092 C 
HETATM    4  C4  UNL     1      22.184   3.022  50.995  1.00  0.00     0.006 C 
HETATM    5  C5  UNL     1      23.380   2.370  50.249  1.00  0.00     0.021 C 
HETATM    6  C6  UNL     1      23.978   3.001  49.270  1.00  0.00    -0.010 C 
HETATM    7  C7  UNL     1      25.253   3.441  49.763  1.00  0.00     0.308 C 
HETATM    8  N1  UNL     1      25.795   2.783  50.955  1.00  0.00     0.091 N 
HETATM    9  C8  UNL     1      24.937   2.924  52.131  1.00  0.00     0.308 C 
HETATM   10  C9  UNL     1      24.082   1.795  52.434  1.00  0.00    -0.032 C 
HETATM   11  C16 UNL     1      22.845   1.304  52.463  1.00  0.00     0.014 C 
HETATM   12  C17 UNL     1      21.616   2.018  52.042  1.00  0.00     0.168 C 
HETATM   13  N2  UNL     1      20.799   1.197  51.051  1.00  0.00    -0.271 NA
HETATM   14  C18 UNL     1      21.112   0.948  49.763  1.00  0.00     0.199 C 
HETATM   15  N3  UNL     1      21.981   1.588  48.760  1.00  0.00    -0.360 N 
HETATM   16  C19 UNL     1      22.785   2.762  48.431  1.00  0.00     0.214 C 
HETATM   17  N4  UNL     1      21.897   3.879  48.962  1.00  0.00    -0.358 N 
HETATM   18  H5  UNL     1      25.848   1.771  50.744  1.00  0.00     0.316 HD
HETATM   19  H22 UNL     1      22.058   0.925  47.928  1.00  0.00     0.162 HD
HETATM   20  H24 UNL     1      21.264   4.321  48.223  1.00  0.00     0.162 HD
ENDROOT
BRANCH  10  21
HETATM   21  C10 UNL     1      24.874   0.621  52.909  1.00  0.00     0.004 C 
HETATM   22  C11 UNL     1      26.041   0.158  52.429  1.00  0.00    -0.026 C 
BRANCH  22  23
HETATM   23  C12 UNL     1      26.991  -0.934  52.705  1.00  0.00     0.029 C 
BRANCH  23  24
HETATM   24  C13 UNL     1      28.282  -0.474  53.305  1.00  0.00     0.030 C 
BRANCH  24  25
HETATM   25  C14 UNL     1      28.100   0.289  54.594  1.00  0.00     0.167 C 
BRANCH  25  26
HETATM   26  O1  UNL     1      28.932   1.389  54.676  1.00  0.00    -0.396 OA
HETATM   27  C15 UNL     1      28.620   2.352  53.716  1.00  0.00     0.201 C 
ENDBRANCH  25  26
ENDBRANCH  24  25
ENDBRANCH  23  24
ENDBRANCH  22  23
ENDBRANCH  10  21
TORSDOF 5
ENDMDL
MODEL 5
REMARK VINA RESULT:      -6.8      1.946      2.684
REMARK  5 active torsions:
REMARK  status: ('A' for Active; 'I' for Inactive)
REMARK    1  A    between atoms: C9_10  and  C10_11 
REMARK    2  A    between atoms: C11_12  and  C12_13 
REMARK    3  A    between atoms: C12_13  and  C13_14 
REMARK    4  A    between atoms: C13_14  and  C14_15 
REMARK    5  A    between atoms: C14_15  and  O1_16 
ROOT
HETATM    1  C1  UNL     1      22.348   6.348  45.992  1.00  0.00     0.019 C 
HETATM    2  C2  UNL     1      22.991   6.507  46.952  1.00  0.00    -0.059 C 
HETATM    3  C3  UNL     1      23.821   6.701  48.150  1.00  0.00     0.092 C 
HETATM    4  C4  UNL     1      24.948   6.185  48.712  1.00  0.00     0.006 C 
HETATM    5  C5  UNL     1      24.568   5.851  50.180  1.00  0.00     0.021 C 
HETATM    6  C6  UNL     1      23.358   6.081  50.624  1.00  0.00    -0.010 C 
HETATM    7  C7  UNL     1      22.706   4.808  50.760  1.00  0.00     0.308 C 
HETATM    8  N1  UNL     1      23.545   3.610  50.833  1.00  0.00     0.091 N 
HETATM    9  C8  UNL     1      24.374   3.413  49.644  1.00  0.00     0.308 C 
HETATM   10  C9  UNL     1      25.752   3.849  49.750  1.00  0.00    -0.032 C 
HETATM   11  C16 UNL     1      26.676   4.734  49.385  1.00  0.00     0.014 C 
HETATM   12  C17 UNL     1      26.462   5.896  48.490  1.00  0.00     0.168 C 
HETATM   13  N2  UNL     1      26.967   7.191  49.116  1.00  0.00    -0.271 NA
HETATM   14  C18 UNL     1      26.402   7.861  50.141  1.00  0.00     0.199 C 
HETATM   15  N3  UNL     1      25.056   7.910  50.737  1.00  0.00    -0.360 N 
HETATM   16  C19 UNL     1      23.654   7.528  50.589  1.00  0.00     0.214 C 
HETATM   17  N4  UNL     1      23.442   7.776  49.102  1.00  0.00    -0.358 N 
HETATM   18  H5  UNL     1      24.192   3.741  51.630  1.00  0.00     0.316 HD
HETATM   19  H22 UNL     1      25.128   8.446  51.657  1.00  0.00     0.162 HD
HETATM   20  H24 UNL     1      23.025   8.733  48.875  1.00  0.00     0.162 HD
ENDROOT
BRANCH  10  21
HETATM   21  C10 UNL     1      26.531   2.977  50.679  1.00  0.00     0.004 C 
HETATM   22  C11 UNL     1      26.189   1.774  51.173  1.00  0.00    -0.026 C 
BRANCH  22  23
HETATM   23  C12 UNL     1      26.752   0.750  52.069  1.00  0.00     0.029 C 
BRANCH  23  24
HETATM   24  C13 UNL     1      27.795   1.273  53.004  1.00  0.00     0.030 C 
BRANCH  24  25
HETATM   25  C14 UNL     1      27.809   0.565  54.336  1.00  0.00     0.167 C 
BRANCH  25  26
HETATM   26  O1  UNL     1      28.328  -0.712  54.248  1.00  0.00    -0.396 OA
HETATM   27  C15 UNL     1      29.610  -0.717  53.697  1.00  0.00     0.201 C 
ENDBRANCH  25  26
ENDBRANCH  24  25
ENDBRANCH  23  24
ENDBRANCH  22  23
ENDBRANCH  10  21
TORSDOF 5
ENDMDL
MODEL 6
REMARK VINA RESULT:      -6.8      3.593      5.304
REMARK  5 active torsions:
REMARK  status: ('A' for Active; 'I' for Inactive)
REMARK    1  A    between atoms: C9_10  and  C10_11 
REMARK    2  A    between atoms: C11_12  and  C12_13 
REMARK    3  A    between atoms: C12_13  and  C13_14 
REMARK    4  A    between atoms: C13_14  and  C14_15 
REMARK    5  A    between atoms: C14_15  and  O1_16 
ROOT
HETATM    1  C1  UNL     1      21.194   0.692  49.760  1.00  0.00     0.019 C 
HETATM    2  C2  UNL     1      21.545   1.759  50.075  1.00  0.00    -0.059 C 
HETATM    3  C3  UNL     1      21.990   3.110  50.448  1.00  0.00     0.092 C 
HETATM    4  C4  UNL     1      22.769   4.109  49.949  1.00  0.00     0.006 C 
HETATM    5  C5  UNL     1      23.743   4.492  51.095  1.00  0.00     0.021 C 
HETATM    6  C6  UNL     1      23.693   3.873  52.248  1.00  0.00    -0.010 C 
HETATM    7  C7  UNL     1      24.841   3.013  52.319  1.00  0.00     0.308 C 
HETATM    8  N1  UNL     1      25.969   3.296  51.429  1.00  0.00     0.091 N 
HETATM    9  C8  UNL     1      25.615   3.231  50.012  1.00  0.00     0.308 C 
HETATM   10  C9  UNL     1      25.354   4.499  49.362  1.00  0.00    -0.032 C 
HETATM   11  C16 UNL     1      24.450   5.316  48.827  1.00  0.00     0.014 C 
HETATM   12  C17 UNL     1      22.993   5.062  48.737  1.00  0.00     0.168 C 
HETATM   13  N2  UNL     1      22.182   6.225  49.295  1.00  0.00    -0.271 NA
HETATM   14  C18 UNL     1      22.056   6.567  50.594  1.00  0.00     0.199 C 
HETATM   15  N3  UNL     1      22.229   5.864  51.877  1.00  0.00    -0.360 N 
HETATM   16  C19 UNL     1      22.422   4.573  52.531  1.00  0.00     0.214 C 
HETATM   17  N4  UNL     1      21.483   3.693  51.716  1.00  0.00    -0.358 N 
HETATM   18  H5  UNL     1      26.268   4.269  51.618  1.00  0.00     0.316 HD
HETATM   19  H22 UNL     1      22.203   6.595  52.653  1.00  0.00     0.162 HD
HETATM   20  H24 UNL     1      20.515   3.571  52.150  1.00  0.00     0.162 HD
ENDROOT
BRANCH  10  21
HETATM   21  C10 UNL     1      26.602   5.306  49.216  1.00  0.00     0.004 C 
HETATM   22  C11 UNL     1      27.720   4.991  48.539  1.00  0.00    -0.026 C 
BRANCH  22  23
HETATM   23  C12 UNL     1      29.037   5.584  48.249  1.00  0.00     0.029 C 
BRANCH  23  24
HETATM   24  C13 UNL     1      28.964   6.942  47.627  1.00  0.00     0.030 C 
BRANCH  24  25
HETATM   25  C14 UNL     1      29.354   8.051  48.573  1.00  0.00     0.167 C 
BRANCH  25  26
HETATM   26  O1  UNL     1      30.718   8.267  48.598  1.00  0.00    -0.396 OA
HETATM   27  C15 UNL     1      31.165   8.908  47.442  1.00  0.00     0.201 C 
ENDBRANCH  25  26
ENDBRANCH  24  25
ENDBRANCH  23  24
ENDBRANCH  22  23
ENDBRANCH  10  21
TORSDOF 5
ENDMDL
MODEL 7
REMARK VINA RESULT:      -6.7      2.636      3.681
REMARK  5 active torsions:
REMARK  status: ('A' for Active; 'I' for Inactive)
REMARK    1  A    between atoms: C9_10  and  C10_11 
REMARK    2  A    between atoms: C11_12  and  C12_13 
REMARK    3  A    between atoms: C12_13  and  C13_14 
REMARK    4  A    between atoms: C13_14  and  C14_15 
REMARK    5  A    between atoms: C14_15  and  O1_16 
ROOT
HETATM    1  C1  UNL     1      21.914   3.447  46.663  1.00  0.00     0.019 C 
HETATM    2  C2  UNL     1      22.005   3.564  47.820  1.00  0.00    -0.059 C 
HETATM    3  C3  UNL     1      22.140   3.697  49.278  1.00  0.00     0.092 C 
HETATM    4  C4  UNL     1      22.592   2.972  50.337  1.00  0.00     0.006 C 
HETATM    5  C5  UNL     1      21.447   3.004  51.386  1.00  0.00     0.021 C 
HETATM    6  C6  UNL     1      20.333   3.646  51.136  1.00  0.00    -0.010 C 
HETATM    7  C7  UNL     1      19.320   2.658  50.891  1.00  0.00     0.308 C 
HETATM    8  N1  UNL     1      19.557   1.294  51.372  1.00  0.00     0.091 N 
HETATM    9  C8  UNL     1      20.746   0.676  50.788  1.00  0.00     0.308 C 
HETATM   10  C9  UNL     1      21.943   0.701  51.604  1.00  0.00    -0.032 C 
HETATM   11  C16 UNL     1      23.159   1.207  51.789  1.00  0.00     0.014 C 
HETATM   12  C17 UNL     1      23.820   2.221  50.933  1.00  0.00     0.168 C 
HETATM   13  N2  UNL     1      24.345   3.395  51.751  1.00  0.00    -0.271 NA
HETATM   14  C18 UNL     1      23.605   4.357  52.342  1.00  0.00     0.199 C 
HETATM   15  N3  UNL     1      22.247   4.892  52.149  1.00  0.00    -0.360 N 
HETATM   16  C19 UNL     1      21.070   4.918  51.285  1.00  0.00     0.214 C 
HETATM   17  N4  UNL     1      21.722   4.974  49.910  1.00  0.00    -0.358 N 
HETATM   18  H5  UNL     1      19.723   1.358  52.392  1.00  0.00     0.316 HD
HETATM   19  H22 UNL     1      22.026   5.524  52.980  1.00  0.00     0.162 HD
HETATM   20  H24 UNL     1      21.818   5.962  49.514  1.00  0.00     0.162 HD
ENDROOT
BRANCH  10  21
HETATM   21  C10 UNL     1      21.815  -0.199  52.788  1.00  0.00     0.004 C 
HETATM   22  C11 UNL     1      22.687  -0.374  53.797  1.00  0.00    -0.026 C 
BRANCH  22  23
HETATM   23  C12 UNL     1      22.798  -1.167  55.033  1.00  0.00     0.029 C 
BRANCH  23  24
HETATM   24  C13 UNL     1      24.191  -1.259  55.569  1.00  0.00     0.030 C 
BRANCH  24  25
HETATM   25  C14 UNL     1      25.240  -0.827  54.574  1.00  0.00     0.167 C 
BRANCH  25  26
HETATM   26  O1  UNL     1      26.126   0.088  55.107  1.00  0.00    -0.396 OA
HETATM   27  C15 UNL     1      26.395   1.131  54.220  1.00  0.00     0.201 C 
ENDBRANCH  25  26
ENDBRANCH  24  25
ENDBRANCH  23  24
ENDBRANCH  22  23
ENDBRANCH  10  21
TORSDOF 5
ENDMDL
MODEL 8
REMARK VINA RESULT:      -6.6      5.253      7.834
REMARK  5 active torsions:
REMARK  status: ('A' for Active; 'I' for Inactive)
REMARK    1  A    between atoms: C9_10  and  C10_11 
REMARK    2  A    between atoms: C11_12  and  C12_13 
REMARK    3  A    between atoms: C12_13  and  C13_14 
REMARK    4  A    between atoms: C13_14  and  C14_15 
REMARK    5  A    between atoms: C14_15  and  O1_16 
ROOT
HETATM    1  C1  UNL     1      28.390  11.640  45.492  1.00  0.00     0.019 C 
HETATM    2  C2  UNL     1      28.965  10.939  46.227  1.00  0.00    -0.059 C 
HETATM    3  C3  UNL     1      29.693  10.040  47.135  1.00  0.00     0.092 C 
HETATM    4  C4  UNL     1      29.898   8.706  47.312  1.00  0.00     0.006 C 
HETATM    5  C5  UNL     1      29.585   8.430  48.808  1.00  0.00     0.021 C 
HETATM    6  C6  UNL     1      29.209   9.402  49.601  1.00  0.00    -0.010 C 
HETATM    7  C7  UNL     1      27.807   9.222  49.857  1.00  0.00     0.308 C 
HETATM    8  N1  UNL     1      27.228   7.898  49.618  1.00  0.00     0.091 N 
HETATM    9  C8  UNL     1      27.352   7.457  48.229  1.00  0.00     0.308 C 
HETATM   10  C9  UNL     1      28.443   6.547  47.945  1.00  0.00    -0.032 C 
HETATM   11  C16 UNL     1      29.629   6.368  47.370  1.00  0.00     0.014 C 
HETATM   12  C17 UNL     1      30.405   7.397  46.638  1.00  0.00     0.168 C 
HETATM   13  N2  UNL     1      31.836   7.495  47.152  1.00  0.00    -0.271 NA
HETATM   14  C18 UNL     1      32.232   8.018  48.332  1.00  0.00     0.199 C 
HETATM   15  N3  UNL     1      31.650   8.962  49.300  1.00  0.00    -0.360 N 
HETATM   16  C19 UNL     1      30.587   9.931  49.553  1.00  0.00     0.214 C 
HETATM   17  N4  UNL     1      30.520  10.644  48.210  1.00  0.00    -0.358 N 
HETATM   18  H5  UNL     1      27.763   7.225  50.194  1.00  0.00     0.316 HD
HETATM   19  H22 UNL     1      32.247   8.929  50.184  1.00  0.00     0.162 HD
HETATM   20  H24 UNL     1      31.093  11.545  48.165  1.00  0.00     0.162 HD
ENDROOT
BRANCH  10  21
HETATM   21  C10 UNL     1      28.208   5.204  48.557  1.00  0.00     0.004 C 
HETATM   22  C11 UNL     1      27.039   4.656  48.933  1.00  0.00    -0.026 C 
BRANCH  22  23
HETATM   23  C12 UNL     1      26.553   3.403  49.536  1.00  0.00     0.029 C 
BRANCH  23  24
HETATM   24  C13 UNL     1      25.064   3.332  49.662  1.00  0.00     0.030 C 
BRANCH  24  25
HETATM   25  C14 UNL     1      24.539   4.014  50.901  1.00  0.00     0.167 C 
BRANCH  25  26
HETATM   26  O1  UNL     1      23.722   3.190  51.650  1.00  0.00    -0.396 OA
HETATM   27  C15 UNL     1      23.370   2.033  50.953  1.00  0.00     0.201 C 
ENDBRANCH  25  26
ENDBRANCH  24  25
ENDBRANCH  23  24
ENDBRANCH  22  23
ENDBRANCH  10  21
TORSDOF 5
ENDMDL
MODEL 9
REMARK VINA RESULT:      -6.5      7.415      9.622
REMARK  5 active torsions:
REMARK  status: ('A' for Active; 'I' for Inactive)
REMARK    1  A    between atoms: C9_10  and  C10_11 
REMARK    2  A    between atoms: C11_12  and  C12_13 
REMARK    3  A    between atoms: C12_13  and  C13_14 
REMARK    4  A    between atoms: C13_14  and  C14_15 
REMARK    5  A    between atoms: C14_15  and  O1_16 
ROOT
HETATM    1  C1  UNL     1      29.774  11.874  48.854  1.00  0.00     0.019 C 
HETATM    2  C2  UNL     1      29.933  10.723  48.745  1.00  0.00    -0.059 C 
HETATM    3  C3  UNL     1      30.157   9.276  48.611  1.00  0.00     0.092 C 
HETATM    4  C4  UNL     1      31.120   8.423  48.167  1.00  0.00     0.006 C 
HETATM    5  C5  UNL     1      30.401   7.449  47.195  1.00  0.00     0.021 C 
HETATM    6  C6  UNL     1      29.119   7.569  46.959  1.00  0.00    -0.010 C 
HETATM    7  C7  UNL     1      28.978   8.102  45.633  1.00  0.00     0.308 C 
HETATM    8  N1  UNL     1      30.116   7.982  44.718  1.00  0.00     0.091 N 
HETATM    9  C8  UNL     1      31.319   8.658  45.203  1.00  0.00     0.308 C 
HETATM   10  C9  UNL     1      32.309   7.815  45.843  1.00  0.00    -0.032 C 
HETATM   11  C16 UNL     1      32.906   7.456  46.976  1.00  0.00     0.014 C 
HETATM   12  C17 UNL     1      32.609   7.993  48.325  1.00  0.00     0.168 C 
HETATM   13  N2  UNL     1      32.348   6.878  49.331  1.00  0.00    -0.271 NA
HETATM   14  C18 UNL     1      31.255   6.089  49.391  1.00  0.00     0.199 C 
HETATM   15  N3  UNL     1      29.869   6.191  48.904  1.00  0.00    -0.360 N 
HETATM   16  C19 UNL     1      28.854   7.066  48.323  1.00  0.00     0.214 C 
HETATM   17  N4  UNL     1      29.102   8.353  49.100  1.00  0.00    -0.358 N 
HETATM   18  H5  UNL     1      30.346   6.974  44.652  1.00  0.00     0.316 HD
HETATM   19  H22 UNL     1      29.412   5.235  49.023  1.00  0.00     0.162 HD
HETATM   20  H24 UNL     1      28.470   8.475  49.952  1.00  0.00     0.162 HD
ENDROOT
BRANCH  10  21
HETATM   21  C10 UNL     1      32.975   6.910  44.860  1.00  0.00     0.004 C 
HETATM   22  C11 UNL     1      33.602   5.745  45.095  1.00  0.00    -0.026 C 
BRANCH  22  23
HETATM   23  C12 UNL     1      34.313   4.703  44.335  1.00  0.00     0.029 C 
BRANCH  23  24
HETATM   24  C13 UNL     1      35.184   3.828  45.179  1.00  0.00     0.030 C 
BRANCH  24  25
HETATM   25  C14 UNL     1      34.630   3.595  46.563  1.00  0.00     0.167 C 
BRANCH  25  26
HETATM   26  O1  UNL     1      33.525   2.765  46.555  1.00  0.00    -0.396 OA
HETATM   27  C15 UNL     1      33.255   2.245  47.821  1.00  0.00     0.201 C 
ENDBRANCH  25  26
ENDBRANCH  24  25
ENDBRANCH  23  24
ENDBRANCH  22  23
ENDBRANCH  10  21
TORSDOF 5
ENDMDL
