MODEL 1
REMARK VINA RESULT:      -7.2      0.000      0.000
REMARK  1 active torsions:
REMARK  status: ('A' for Active; 'I' for Inactive)
REMARK    1  A    between atoms: O1_2  and  C2_3 
ROOT
HETATM    1  C2  UNL     1      22.429   0.226  52.181  1.00  0.00     0.082 C 
HETATM    2  C3  UNL     1      23.522   0.066  52.910  1.00  0.00     0.048 C 
HETATM    3  C4  UNL     1      24.922   0.453  52.858  1.00  0.00    -0.005 C 
HETATM    4  C5  UNL     1      26.056  -0.268  52.587  1.00  0.00     0.032 C 
HETATM    5 CL1  UNL     1      26.042  -2.029  52.795  1.00  0.00    -0.087 Cl
HETATM    6  C6  UNL     1      27.109   0.728  52.143  1.00  0.00     0.076 C 
HETATM    7  C7  UNL     1      27.593   1.302  53.463  1.00  0.00     0.103 C 
HETATM    8  N1  UNL     1      27.110   2.430  53.943  1.00  0.00    -0.240 NA
HETATM    9  C8  UNL     1      25.786   2.893  53.793  1.00  0.00     0.171 C 
HETATM   10  C9  UNL     1      25.494   1.810  53.100  1.00  0.00     0.007 C 
HETATM   11  C10 UNL     1      26.076   1.818  51.674  1.00  0.00     0.059 C 
HETATM   12  O2  UNL     1      24.464   3.217  53.567  1.00  0.00    -0.334 OA
HETATM   13  C11 UNL     1      24.081   4.091  52.511  1.00  0.00     0.179 C 
HETATM   14  C12 UNL     1      22.592   4.257  52.463  1.00  0.00     0.057 C 
HETATM   15  C13 UNL     1      21.879   2.938  52.241  1.00  0.00     0.275 C 
HETATM   16  N2  UNL     1      22.303   2.379  51.000  1.00  0.00     0.103 N 
HETATM   17  C14 UNL     1      21.615   2.991  49.874  1.00  0.00     0.299 C 
HETATM   18  C15 UNL     1      21.912   2.135  48.663  1.00  0.00     0.198 C 
HETATM   19  O3  UNL     1      21.293   0.885  48.782  1.00  0.00    -0.387 OA
HETATM   20  C16 UNL     1      21.153   0.516  50.117  1.00  0.00     0.210 C 
HETATM   21  C17 UNL     1      22.378   0.968  50.928  1.00  0.00     0.302 C 
ENDROOT
BRANCH   1  22
HETATM   22  O1  UNL     1      21.251  -0.362  52.661  1.00  0.00    -0.358 OA
HETATM   23  C1  UNL     1      20.990  -0.272  54.050  1.00  0.00     0.209 C 
ENDBRANCH   1  22
TORSDOF 1
ENDMDL
MODEL 2
REMARK VINA RESULT:      -7.1      3.300      5.422
REMARK  1 active torsions:
REMARK  status: ('A' for Active; 'I' for Inactive)
REMARK    1  A    between atoms: O1_2  and  C2_3 
ROOT
HETATM    1  C2  UNL     1      25.940   4.856  49.585  1.00  0.00     0.082 C 
HETATM    2  C3  UNL     1      26.011   3.636  50.093  1.00  0.00     0.048 C 
HETATM    3  C4  UNL     1      25.408   2.880  51.179  1.00  0.00    -0.005 C 
HETATM    4  C5  UNL     1      25.909   2.462  52.384  1.00  0.00     0.032 C 
HETATM    5 CL1  UNL     1      27.664   2.308  52.594  1.00  0.00    -0.087 Cl
HETATM    6  C6  UNL     1      24.720   2.223  53.291  1.00  0.00     0.076 C 
HETATM    7  C7  UNL     1      24.230   0.859  52.837  1.00  0.00     0.103 C 
HETATM    8  N1  UNL     1      23.253   0.733  51.963  1.00  0.00    -0.240 NA
HETATM    9  C8  UNL     1      22.986   1.606  50.889  1.00  0.00     0.171 C 
HETATM   10  C9  UNL     1      24.015   2.348  51.246  1.00  0.00     0.007 C 
HETATM   11  C10 UNL     1      23.756   3.190  52.510  1.00  0.00     0.059 C 
HETATM   12  O2  UNL     1      22.847   2.543  49.884  1.00  0.00    -0.334 OA
HETATM   13  C11 UNL     1      21.928   3.624  49.995  1.00  0.00     0.179 C 
HETATM   14  C12 UNL     1      21.990   4.509  48.788  1.00  0.00     0.057 C 
HETATM   15  C13 UNL     1      23.370   5.105  48.588  1.00  0.00     0.275 C 
HETATM   16  N2  UNL     1      23.712   5.887  49.729  1.00  0.00     0.103 N 
HETATM   17  C14 UNL     1      23.091   7.201  49.683  1.00  0.00     0.299 C 
HETATM   18  C15 UNL     1      23.748   8.033  50.762  1.00  0.00     0.198 C 
HETATM   19  O3  UNL     1      25.084   8.294  50.435  1.00  0.00    -0.387 OA
HETATM   20  C16 UNL     1      25.619   7.278  49.649  1.00  0.00     0.210 C 
HETATM   21  C17 UNL     1      25.078   5.911  50.100  1.00  0.00     0.302 C 
ENDROOT
BRANCH   1  22
HETATM   22  O1  UNL     1      26.754   5.134  48.479  1.00  0.00    -0.358 OA
HETATM   23  C1  UNL     1      28.144   4.898  48.612  1.00  0.00     0.209 C 
ENDBRANCH   1  22
TORSDOF 1
ENDMDL
MODEL 3
REMARK VINA RESULT:      -6.8      1.668      2.055
REMARK  1 active torsions:
REMARK  status: ('A' for Active; 'I' for Inactive)
REMARK    1  A    between atoms: O1_2  and  C2_3 
ROOT
HETATM    1  C2  UNL     1      21.405   1.704  51.607  1.00  0.00     0.082 C 
HETATM    2  C3  UNL     1      22.041   1.338  52.708  1.00  0.00     0.048 C 
HETATM    3  C4  UNL     1      23.349   0.823  53.082  1.00  0.00    -0.005 C 
HETATM    4  C5  UNL     1      23.755  -0.422  53.485  1.00  0.00     0.032 C 
HETATM    5 CL1  UNL     1      22.569  -1.546  54.176  1.00  0.00    -0.087 Cl
HETATM    6  C6  UNL     1      25.241  -0.506  53.205  1.00  0.00     0.076 C 
HETATM    7  C7  UNL     1      25.839   0.248  54.380  1.00  0.00     0.103 C 
HETATM    8  N1  UNL     1      26.164   1.521  54.289  1.00  0.00    -0.240 NA
HETATM    9  C8  UNL     1      25.492   2.493  53.520  1.00  0.00     0.171 C 
HETATM   10  C9  UNL     1      24.639   1.573  53.116  1.00  0.00     0.007 C 
HETATM   11  C10 UNL     1      25.232   0.596  52.083  1.00  0.00     0.059 C 
HETATM   12  O2  UNL     1      24.738   3.332  52.724  1.00  0.00    -0.334 OA
HETATM   13  C11 UNL     1      25.135   3.657  51.397  1.00  0.00     0.179 C 
HETATM   14  C12 UNL     1      24.134   4.559  50.740  1.00  0.00     0.057 C 
HETATM   15  C13 UNL     1      22.761   3.922  50.659  1.00  0.00     0.275 C 
HETATM   16  N2  UNL     1      22.846   2.722  49.895  1.00  0.00     0.103 N 
HETATM   17  C14 UNL     1      22.851   2.997  48.466  1.00  0.00     0.299 C 
HETATM   18  C15 UNL     1      22.642   1.673  47.765  1.00  0.00     0.198 C 
HETATM   19  O3  UNL     1      21.349   1.193  47.999  1.00  0.00    -0.387 OA
HETATM   20  C16 UNL     1      20.860   1.634  49.225  1.00  0.00     0.210 C 
HETATM   21  C17 UNL     1      21.986   1.663  50.271  1.00  0.00     0.302 C 
ENDROOT
BRANCH   1  22
HETATM   22  O1  UNL     1      20.088   2.156  51.752  1.00  0.00    -0.358 OA
HETATM   23  C1  UNL     1      19.893   3.446  52.304  1.00  0.00     0.209 C 
ENDBRANCH   1  22
TORSDOF 1
ENDMDL
MODEL 4
REMARK VINA RESULT:      -6.6      4.392      5.583
REMARK  1 active torsions:
REMARK  status: ('A' for Active; 'I' for Inactive)
REMARK    1  A    between atoms: O1_2  and  C2_3 
ROOT
HETATM    1  C2  UNL     1      24.529   3.788  49.897  1.00  0.00     0.082 C 
HETATM    2  C3  UNL     1      25.531   4.642  50.032  1.00  0.00     0.048 C 
HETATM    3  C4  UNL     1      25.964   5.902  49.450  1.00  0.00    -0.005 C 
HETATM    4  C5  UNL     1      26.982   6.202  48.583  1.00  0.00     0.032 C 
HETATM    5 CL1  UNL     1      28.362   5.096  48.441  1.00  0.00    -0.087 Cl
HETATM    6  C6  UNL     1      26.618   7.515  47.922  1.00  0.00     0.076 C 
HETATM    7  C7  UNL     1      27.003   8.533  48.982  1.00  0.00     0.103 C 
HETATM    8  N1  UNL     1      26.116   9.017  49.827  1.00  0.00    -0.240 NA
HETATM    9  C8  UNL     1      25.012   8.319  50.358  1.00  0.00     0.171 C 
HETATM   10  C9  UNL     1      25.366   7.252  49.671  1.00  0.00     0.007 C 
HETATM   11  C10 UNL     1      25.070   7.365  48.163  1.00  0.00     0.059 C 
HETATM   12  O2  UNL     1      23.978   7.515  50.795  1.00  0.00    -0.334 OA
HETATM   13  C11 UNL     1      22.688   7.569  50.197  1.00  0.00     0.179 C 
HETATM   14  C12 UNL     1      21.759   6.580  50.833  1.00  0.00     0.057 C 
HETATM   15  C13 UNL     1      22.262   5.157  50.699  1.00  0.00     0.275 C 
HETATM   16  N2  UNL     1      22.379   4.830  49.317  1.00  0.00     0.103 N 
HETATM   17  C14 UNL     1      21.092   4.475  48.740  1.00  0.00     0.299 C 
HETATM   18  C15 UNL     1      21.373   3.868  47.383  1.00  0.00     0.198 C 
HETATM   19  O3  UNL     1      22.018   2.634  47.521  1.00  0.00    -0.387 OA
HETATM   20  C16 UNL     1      22.776   2.589  48.688  1.00  0.00     0.210 C 
HETATM   21  C17 UNL     1      23.430   3.954  48.955  1.00  0.00     0.302 C 
ENDROOT
BRANCH   1  22
HETATM   22  O1  UNL     1      24.542   2.654  50.720  1.00  0.00    -0.358 OA
HETATM   23  C1  UNL     1      24.825   2.845  52.095  1.00  0.00     0.209 C 
ENDBRANCH   1  22
TORSDOF 1
ENDMDL
MODEL 5
REMARK VINA RESULT:      -6.6      2.962      5.487
REMARK  1 active torsions:
REMARK  status: ('A' for Active; 'I' for Inactive)
REMARK    1  A    between atoms: O1_2  and  C2_3 
ROOT
HETATM    1  C2  UNL     1      24.858   4.500  50.320  1.00  0.00     0.082 C 
HETATM    2  C3  UNL     1      24.694   3.235  50.673  1.00  0.00     0.048 C 
HETATM    3  C4  UNL     1      23.651   2.398  51.244  1.00  0.00    -0.005 C 
HETATM    4  C5  UNL     1      23.508   1.848  52.492  1.00  0.00     0.032 C 
HETATM    5 CL1  UNL     1      24.939   1.616  53.513  1.00  0.00    -0.087 Cl
HETATM    6  C6  UNL     1      22.032   1.563  52.674  1.00  0.00     0.076 C 
HETATM    7  C7  UNL     1      21.851   0.267  51.904  1.00  0.00     0.103 C 
HETATM    8  N1  UNL     1      21.427   0.259  50.656  1.00  0.00    -0.240 NA
HETATM    9  C8  UNL     1      21.704   1.241  49.683  1.00  0.00     0.171 C 
HETATM   10  C9  UNL     1      22.413   1.909  50.569  1.00  0.00     0.007 C 
HETATM   11  C10 UNL     1      21.555   2.633  51.624  1.00  0.00     0.059 C 
HETATM   12  O2  UNL     1      22.056   2.275  48.838  1.00  0.00    -0.334 OA
HETATM   13  C11 UNL     1      21.180   3.371  48.596  1.00  0.00     0.179 C 
HETATM   14  C12 UNL     1      21.808   4.366  47.669  1.00  0.00     0.057 C 
HETATM   15  C13 UNL     1      23.098   4.931  48.228  1.00  0.00     0.275 C 
HETATM   16  N2  UNL     1      22.826   5.587  49.464  1.00  0.00     0.103 N 
HETATM   17  C14 UNL     1      22.282   6.919  49.254  1.00  0.00     0.299 C 
HETATM   18  C15 UNL     1      22.314   7.621  50.594  1.00  0.00     0.198 C 
HETATM   19  O3  UNL     1      23.634   7.867  50.988  1.00  0.00    -0.387 OA
HETATM   20  C16 UNL     1      24.503   6.914  50.465  1.00  0.00     0.210 C 
HETATM   21  C17 UNL     1      23.835   5.529  50.454  1.00  0.00     0.302 C 
ENDROOT
BRANCH   1  22
HETATM   22  O1  UNL     1      26.103   4.857  49.787  1.00  0.00    -0.358 OA
HETATM   23  C1  UNL     1      26.897   3.826  49.227  1.00  0.00     0.209 C 
ENDBRANCH   1  22
TORSDOF 1
ENDMDL
MODEL 6
REMARK VINA RESULT:      -6.4      2.485      4.195
REMARK  1 active torsions:
REMARK  status: ('A' for Active; 'I' for Inactive)
REMARK    1  A    between atoms: O1_2  and  C2_3 
ROOT
HETATM    1  C2  UNL     1      21.463   2.325  49.411  1.00  0.00     0.082 C 
HETATM    2  C3  UNL     1      22.677   1.989  49.818  1.00  0.00     0.048 C 
HETATM    3  C4  UNL     1      23.458   2.033  51.044  1.00  0.00    -0.005 C 
HETATM    4  C5  UNL     1      24.505   2.830  51.427  1.00  0.00     0.032 C 
HETATM    5 CL1  UNL     1      25.487   3.636  50.190  1.00  0.00    -0.087 Cl
HETATM    6  C6  UNL     1      24.540   2.803  52.941  1.00  0.00     0.076 C 
HETATM    7  C7  UNL     1      25.229   1.481  53.230  1.00  0.00     0.103 C 
HETATM    8  N1  UNL     1      24.542   0.388  53.491  1.00  0.00    -0.240 NA
HETATM    9  C8  UNL     1      23.288   0.048  52.942  1.00  0.00     0.171 C 
HETATM   10  C9  UNL     1      23.295   1.170  52.251  1.00  0.00     0.007 C 
HETATM   11  C10 UNL     1      23.023   2.421  53.107  1.00  0.00     0.059 C 
HETATM   12  O2  UNL     1      22.069  -0.152  52.327  1.00  0.00    -0.334 OA
HETATM   13  C11 UNL     1      20.844   0.166  52.979  1.00  0.00     0.179 C 
HETATM   14  C12 UNL     1      19.672  -0.118  52.090  1.00  0.00     0.057 C 
HETATM   15  C13 UNL     1      19.723   0.686  50.806  1.00  0.00     0.275 C 
HETATM   16  N2  UNL     1      19.715   2.075  51.122  1.00  0.00     0.103 N 
HETATM   17  C14 UNL     1      18.371   2.549  51.415  1.00  0.00     0.299 C 
HETATM   18  C15 UNL     1      18.436   4.060  51.439  1.00  0.00     0.198 C 
HETATM   19  O3  UNL     1      18.683   4.561  50.156  1.00  0.00    -0.387 OA
HETATM   20  C16 UNL     1      19.412   3.653  49.392  1.00  0.00     0.210 C 
HETATM   21  C17 UNL     1      20.449   2.929  50.265  1.00  0.00     0.302 C 
ENDROOT
BRANCH   1  22
HETATM   22  O1  UNL     1      21.150   2.078  48.069  1.00  0.00    -0.358 OA
HETATM   23  C1  UNL     1      22.004   2.629  47.083  1.00  0.00     0.209 C 
ENDBRANCH   1  22
TORSDOF 1
ENDMDL
MODEL 7
REMARK VINA RESULT:      -6.4      2.845      4.549
REMARK  1 active torsions:
REMARK  status: ('A' for Active; 'I' for Inactive)
REMARK    1  A    between atoms: O1_2  and  C2_3 
ROOT
HETATM    1  C2  UNL     1      22.951   4.073  48.940  1.00  0.00     0.082 C 
HETATM    2  C3  UNL     1      23.522   3.014  49.491  1.00  0.00     0.048 C 
HETATM    3  C4  UNL     1      23.950   2.581  50.811  1.00  0.00    -0.005 C 
HETATM    4  C5  UNL     1      25.197   2.447  51.365  1.00  0.00     0.032 C 
HETATM    5 CL1  UNL     1      26.608   2.262  50.306  1.00  0.00    -0.087 Cl
HETATM    6  C6  UNL     1      25.013   2.500  52.868  1.00  0.00     0.076 C 
HETATM    7  C7  UNL     1      24.542   1.093  53.190  1.00  0.00     0.103 C 
HETATM    8  N1  UNL     1      23.262   0.805  53.310  1.00  0.00    -0.240 NA
HETATM    9  C8  UNL     1      22.209   1.399  52.584  1.00  0.00     0.171 C 
HETATM   10  C9  UNL     1      23.083   2.153  51.948  1.00  0.00     0.007 C 
HETATM   11  C10 UNL     1      23.655   3.292  52.812  1.00  0.00     0.059 C 
HETATM   12  O2  UNL     1      21.286   2.065  51.803  1.00  0.00    -0.334 OA
HETATM   13  C11 UNL     1      20.561   3.185  52.297  1.00  0.00     0.179 C 
HETATM   14  C12 UNL     1      19.647   3.741  51.248  1.00  0.00     0.057 C 
HETATM   15  C13 UNL     1      20.405   4.198  50.017  1.00  0.00     0.275 C 
HETATM   16  N2  UNL     1      21.328   5.219  50.388  1.00  0.00     0.103 N 
HETATM   17  C14 UNL     1      20.673   6.511  50.518  1.00  0.00     0.299 C 
HETATM   18  C15 UNL     1      21.769   7.549  50.614  1.00  0.00     0.198 C 
HETATM   19  O3  UNL     1      22.454   7.654  49.398  1.00  0.00    -0.387 OA
HETATM   20  C16 UNL     1      22.432   6.449  48.701  1.00  0.00     0.210 C 
HETATM   21  C17 UNL     1      22.549   5.265  49.674  1.00  0.00     0.302 C 
ENDROOT
BRANCH   1  22
HETATM   22  O1  UNL     1      22.726   4.028  47.558  1.00  0.00    -0.358 OA
HETATM   23  C1  UNL     1      22.045   2.899  47.039  1.00  0.00     0.209 C 
ENDBRANCH   1  22
TORSDOF 1
ENDMDL
MODEL 8
REMARK VINA RESULT:      -6.3      3.329      5.248
REMARK  1 active torsions:
REMARK  status: ('A' for Active; 'I' for Inactive)
REMARK    1  A    between atoms: O1_2  and  C2_3 
ROOT
HETATM    1  C2  UNL     1      22.560   2.504  49.941  1.00  0.00     0.082 C 
HETATM    2  C3  UNL     1      22.349   1.335  50.525  1.00  0.00     0.048 C 
HETATM    3  C4  UNL     1      21.721   0.828  51.734  1.00  0.00    -0.005 C 
HETATM    4  C5  UNL     1      22.253   0.317  52.890  1.00  0.00     0.032 C 
HETATM    5 CL1  UNL     1      23.899  -0.346  52.875  1.00  0.00    -0.087 Cl
HETATM    6  C6  UNL     1      21.195   0.473  53.962  1.00  0.00     0.076 C 
HETATM    7  C7  UNL     1      20.268  -0.697  53.679  1.00  0.00     0.103 C 
HETATM    8  N1  UNL     1      19.178  -0.553  52.955  1.00  0.00    -0.240 NA
HETATM    9  C8  UNL     1      19.019   0.325  51.864  1.00  0.00     0.171 C 
HETATM   10  C9  UNL     1      20.260   0.738  52.025  1.00  0.00     0.007 C 
HETATM   11  C10 UNL     1      20.448   1.658  53.246  1.00  0.00     0.059 C 
HETATM   12  O2  UNL     1      19.010   1.229  50.820  1.00  0.00    -0.334 OA
HETATM   13  C11 UNL     1      18.472   2.538  50.972  1.00  0.00     0.179 C 
HETATM   14  C12 UNL     1      18.608   3.326  49.704  1.00  0.00     0.057 C 
HETATM   15  C13 UNL     1      20.055   3.476  49.279  1.00  0.00     0.275 C 
HETATM   16  N2  UNL     1      20.776   4.156  50.304  1.00  0.00     0.103 N 
HETATM   17  C14 UNL     1      20.564   5.594  50.243  1.00  0.00     0.299 C 
HETATM   18  C15 UNL     1      21.587   6.226  51.160  1.00  0.00     0.198 C 
HETATM   19  O3  UNL     1      22.876   6.066  50.641  1.00  0.00    -0.387 OA
HETATM   20  C16 UNL     1      22.970   4.912  49.868  1.00  0.00     0.210 C 
HETATM   21  C17 UNL     1      22.129   3.784  50.487  1.00  0.00     0.302 C 
ENDROOT
BRANCH   1  22
HETATM   22  O1  UNL     1      23.246   2.492  48.720  1.00  0.00    -0.358 OA
HETATM   23  C1  UNL     1      22.567   1.971  47.591  1.00  0.00     0.209 C 
ENDBRANCH   1  22
TORSDOF 1
ENDMDL
MODEL 9
REMARK VINA RESULT:      -6.1      2.879      3.844
REMARK  1 active torsions:
REMARK  status: ('A' for Active; 'I' for Inactive)
REMARK    1  A    between atoms: O1_2  and  C2_3 
ROOT
HETATM    1  C2  UNL     1      19.787   3.805  50.869  1.00  0.00     0.082 C 
HETATM    2  C3  UNL     1      20.424   3.142  51.822  1.00  0.00     0.048 C 
HETATM    3  C4  UNL     1      21.726   2.527  52.026  1.00  0.00    -0.005 C 
HETATM    4  C5  UNL     1      22.115   1.213  52.068  1.00  0.00     0.032 C 
HETATM    5 CL1  UNL     1      20.915  -0.041  52.437  1.00  0.00    -0.087 Cl
HETATM    6  C6  UNL     1      23.598   1.189  51.760  1.00  0.00     0.076 C 
HETATM    7  C7  UNL     1      24.215   1.583  53.090  1.00  0.00     0.103 C 
HETATM    8  N1  UNL     1      24.559   2.828  53.348  1.00  0.00    -0.240 NA
HETATM    9  C8  UNL     1      23.898   3.983  52.882  1.00  0.00     0.171 C 
HETATM   10  C9  UNL     1      23.028   3.221  52.251  1.00  0.00     0.007 C 
HETATM   11  C10 UNL     1      23.599   2.557  50.983  1.00  0.00     0.059 C 
HETATM   12  O2  UNL     1      23.153   5.018  52.355  1.00  0.00    -0.334 OA
HETATM   13  C11 UNL     1      23.547   5.690  51.164  1.00  0.00     0.179 C 
HETATM   14  C12 UNL     1      22.556   6.750  50.791  1.00  0.00     0.057 C 
HETATM   15  C13 UNL     1      21.173   6.180  50.552  1.00  0.00     0.275 C 
HETATM   16  N2  UNL     1      21.233   5.235  49.487  1.00  0.00     0.103 N 
HETATM   17  C14 UNL     1      21.233   5.891  48.189  1.00  0.00     0.299 C 
HETATM   18  C15 UNL     1      20.999   4.813  47.154  1.00  0.00     0.198 C 
HETATM   19  O3  UNL     1      19.700   4.304  47.261  1.00  0.00    -0.387 OA
HETATM   20  C16 UNL     1      19.226   4.399  48.566  1.00  0.00     0.210 C 
HETATM   21  C17 UNL     1      20.359   4.125  49.568  1.00  0.00     0.302 C 
ENDROOT
BRANCH   1  22
HETATM   22  O1  UNL     1      18.478   4.218  51.147  1.00  0.00    -0.358 OA
HETATM   23  C1  UNL     1      17.574   3.246  51.642  1.00  0.00     0.209 C 
ENDBRANCH   1  22
TORSDOF 1
ENDMDL
