MODEL 1
REMARK VINA RESULT:      -8.7      0.000      0.000
REMARK  3 active torsions:
REMARK  status: ('A' for Active; 'I' for Inactive)
REMARK    1  A    between atoms: O1_2  and  C2_3 
REMARK    2  A    between atoms: C6_7  and  N1_8 
REMARK    3  A    between atoms: N1_8  and  C7_9 
ROOT
HETATM    1  C2  UNL     1      22.954  -0.312  53.590  1.00  0.00     0.080 A 
HETATM    2  C3  UNL     1      22.631   0.922  53.046  1.00  0.00     0.050 A 
HETATM    3  C4  UNL     1      23.945   1.293  53.031  1.00  0.00    -0.017 A 
HETATM    4  C5  UNL     1      24.962   2.149  52.782  1.00  0.00     0.063 C 
HETATM    5  C6  UNL     1      26.162   2.361  52.176  1.00  0.00     0.130 C 
HETATM    6  N2  UNL     1      27.420   1.833  52.285  1.00  0.00    -0.224 NA
HETATM    7  C13 UNL     1      28.346   2.452  53.061  1.00  0.00     0.237 C 
HETATM    8  N3  UNL     1      28.528   1.929  54.289  1.00  0.00    -0.230 NA
HETATM    9  C14 UNL     1      28.636   0.585  54.382  1.00  0.00     0.258 C 
HETATM   10  O2  UNL     1      27.513   0.826  55.013  1.00  0.00    -0.316 OA
HETATM   11  C15 UNL     1      26.461   0.050  54.915  1.00  0.00     0.144 C 
HETATM   12  C16 UNL     1      25.631  -0.363  53.886  1.00  0.00     0.040 C 
HETATM   13  C17 UNL     1      24.315   0.025  53.592  1.00  0.00     0.009 A 
ENDROOT
BRANCH   5  14
HETATM   14  N1  UNL     1      26.440   3.301  51.146  1.00  0.00    -0.341 N 
HETATM   15  H6  UNL     1      27.496   3.424  51.176  1.00  0.00     0.167 HD
BRANCH  14  16
HETATM   16  C7  UNL     1      25.635   4.005  50.225  1.00  0.00     0.033 A 
HETATM   17  C8  UNL     1      24.435   3.441  49.849  1.00  0.00     0.029 A 
HETATM   18  C9  UNL     1      23.651   4.140  48.955  1.00  0.00     0.002 A 
HETATM   19  C10 UNL     1      24.086   5.373  48.469  1.00  0.00     0.000 A 
HETATM   20  C11 UNL     1      25.307   5.922  48.868  1.00  0.00     0.002 A 
HETATM   21  C12 UNL     1      26.089   5.222  49.760  1.00  0.00     0.029 A 
ENDBRANCH  14  16
ENDBRANCH   5  14
BRANCH   1  22
HETATM   22  O1  UNL     1      22.352  -1.493  54.016  1.00  0.00    -0.355 OA
HETATM   23  C1  UNL     1      20.976  -1.502  54.271  1.00  0.00     0.210 C 
ENDBRANCH   1  22
TORSDOF 3
ENDMDL
MODEL 2
REMARK VINA RESULT:      -8.5      2.958      6.340
REMARK  3 active torsions:
REMARK  status: ('A' for Active; 'I' for Inactive)
REMARK    1  A    between atoms: O1_2  and  C2_3 
REMARK    2  A    between atoms: C6_7  and  N1_8 
REMARK    3  A    between atoms: N1_8  and  C7_9 
ROOT
HETATM    1  C2  UNL     1      23.410   2.684  49.874  1.00  0.00     0.080 A 
HETATM    2  C3  UNL     1      24.587   2.779  50.602  1.00  0.00     0.050 A 
HETATM    3  C4  UNL     1      24.096   1.940  51.562  1.00  0.00    -0.017 A 
HETATM    4  C5  UNL     1      24.171   1.243  52.718  1.00  0.00     0.063 C 
HETATM    5  C6  UNL     1      24.056   0.039  53.342  1.00  0.00     0.130 C 
HETATM    6  N2  UNL     1      23.046  -0.858  53.559  1.00  0.00    -0.224 NA
HETATM    7  C13 UNL     1      22.356  -0.828  54.728  1.00  0.00     0.237 C 
HETATM    8  N3  UNL     1      21.163  -0.204  54.691  1.00  0.00    -0.230 NA
HETATM    9  C14 UNL     1      20.346  -0.489  53.652  1.00  0.00     0.258 C 
HETATM   10  O2  UNL     1      20.640   0.773  53.449  1.00  0.00    -0.316 OA
HETATM   11  C15 UNL     1      20.857   1.269  52.256  1.00  0.00     0.144 C 
HETATM   12  C16 UNL     1      21.772   1.039  51.242  1.00  0.00     0.040 C 
HETATM   13  C17 UNL     1      22.865   1.818  50.834  1.00  0.00     0.009 A 
ENDROOT
BRANCH   5  14
HETATM   14  N1  UNL     1      25.090  -0.679  54.004  1.00  0.00    -0.341 N 
HETATM   15  H6  UNL     1      24.578  -1.371  54.627  1.00  0.00     0.167 HD
BRANCH  14  16
HETATM   16  C7  UNL     1      26.499  -0.610  53.971  1.00  0.00     0.033 A 
HETATM   17  C8  UNL     1      27.167  -1.401  53.061  1.00  0.00     0.029 A 
HETATM   18  C9  UNL     1      28.543  -1.320  53.031  1.00  0.00     0.002 A 
HETATM   19  C10 UNL     1      29.207  -0.458  53.903  1.00  0.00     0.000 A 
HETATM   20  C11 UNL     1      28.505   0.334  54.815  1.00  0.00     0.002 A 
HETATM   21  C12 UNL     1      27.130   0.253  54.845  1.00  0.00     0.029 A 
ENDBRANCH  14  16
ENDBRANCH   5  14
BRANCH   1  22
HETATM   22  O1  UNL     1      22.828   3.153  48.701  1.00  0.00    -0.355 OA
HETATM   23  C1  UNL     1      22.314   2.233  47.779  1.00  0.00     0.210 C 
ENDBRANCH   1  22
TORSDOF 3
ENDMDL
MODEL 3
REMARK VINA RESULT:      -8.3      2.319      5.369
REMARK  3 active torsions:
REMARK  status: ('A' for Active; 'I' for Inactive)
REMARK    1  A    between atoms: O1_2  and  C2_3 
REMARK    2  A    between atoms: C6_7  and  N1_8 
REMARK    3  A    between atoms: N1_8  and  C7_9 
ROOT
HETATM    1  C2  UNL     1      20.743  -0.625  53.545  1.00  0.00     0.080 A 
HETATM    2  C3  UNL     1      21.788  -1.431  53.971  1.00  0.00     0.050 A 
HETATM    3  C4  UNL     1      22.708  -0.546  53.485  1.00  0.00    -0.017 A 
HETATM    4  C5  UNL     1      23.966  -0.114  53.242  1.00  0.00     0.063 C 
HETATM    5  C6  UNL     1      24.881   0.886  53.367  1.00  0.00     0.130 C 
HETATM    6  N2  UNL     1      24.988   2.176  52.921  1.00  0.00    -0.224 NA
HETATM    7  C13 UNL     1      25.694   2.443  51.794  1.00  0.00     0.237 C 
HETATM    8  N3  UNL     1      24.968   2.610  50.671  1.00  0.00    -0.230 NA
HETATM    9  C14 UNL     1      23.871   3.394  50.754  1.00  0.00     0.258 C 
HETATM   10  O2  UNL     1      23.361   2.210  50.510  1.00  0.00    -0.316 OA
HETATM   11  C15 UNL     1      22.259   1.780  51.075  1.00  0.00     0.144 C 
HETATM   12  C16 UNL     1      21.845   1.536  52.373  1.00  0.00     0.040 C 
HETATM   13  C17 UNL     1      21.651   0.313  53.032  1.00  0.00     0.009 A 
ENDROOT
BRANCH   5  14
HETATM   14  N1  UNL     1      26.106   0.833  54.087  1.00  0.00    -0.341 N 
HETATM   15  H6  UNL     1      25.924   1.405  54.965  1.00  0.00     0.167 HD
BRANCH  14  16
HETATM   16  C7  UNL     1      27.357   0.229  53.839  1.00  0.00     0.033 A 
HETATM   17  C8  UNL     1      28.495   0.932  54.171  1.00  0.00     0.029 A 
HETATM   18  C9  UNL     1      29.713   0.330  53.932  1.00  0.00     0.002 A 
HETATM   19  C10 UNL     1      29.757  -0.947  53.373  1.00  0.00     0.000 A 
HETATM   20  C11 UNL     1      28.587  -1.638  53.047  1.00  0.00     0.002 A 
HETATM   21  C12 UNL     1      27.372  -1.035  53.286  1.00  0.00     0.029 A 
ENDBRANCH  14  16
ENDBRANCH   5  14
BRANCH   1  22
HETATM   22  O1  UNL     1      19.352  -0.582  53.532  1.00  0.00    -0.355 OA
HETATM   23  C1  UNL     1      18.690  -0.312  52.329  1.00  0.00     0.210 C 
ENDBRANCH   1  22
TORSDOF 3
ENDMDL
MODEL 4
REMARK VINA RESULT:      -7.9      2.442      5.688
REMARK  3 active torsions:
REMARK  status: ('A' for Active; 'I' for Inactive)
REMARK    1  A    between atoms: O1_2  and  C2_3 
REMARK    2  A    between atoms: C6_7  and  N1_8 
REMARK    3  A    between atoms: N1_8  and  C7_9 
ROOT
HETATM    1  C2  UNL     1      26.586  -0.607  53.709  1.00  0.00     0.080 A 
HETATM    2  C3  UNL     1      25.362  -0.505  54.354  1.00  0.00     0.050 A 
HETATM    3  C4  UNL     1      24.915   0.394  53.429  1.00  0.00    -0.017 A 
HETATM    4  C5  UNL     1      23.996   1.228  52.893  1.00  0.00     0.063 C 
HETATM    5  C6  UNL     1      23.280   1.594  51.795  1.00  0.00     0.130 C 
HETATM    6  N2  UNL     1      23.578   2.082  50.551  1.00  0.00    -0.224 NA
HETATM    7  C13 UNL     1      23.533   3.419  50.323  1.00  0.00     0.237 C 
HETATM    8  N3  UNL     1      24.718   4.059  50.344  1.00  0.00    -0.230 NA
HETATM    9  C14 UNL     1      25.744   3.487  49.677  1.00  0.00     0.258 C 
HETATM   10  O2  UNL     1      26.137   3.412  50.925  1.00  0.00    -0.316 OA
HETATM   11  C15 UNL     1      26.770   2.372  51.412  1.00  0.00     0.144 C 
HETATM   12  C16 UNL     1      26.483   1.027  51.570  1.00  0.00     0.040 C 
HETATM   13  C17 UNL     1      26.169   0.314  52.736  1.00  0.00     0.009 A 
ENDROOT
BRANCH   5  14
HETATM   14  N1  UNL     1      21.866   1.551  51.647  1.00  0.00    -0.341 N 
HETATM   15  H6  UNL     1      21.639   2.379  51.020  1.00  0.00     0.167 HD
BRANCH  14  16
HETATM   16  C7  UNL     1      20.860   0.700  52.149  1.00  0.00     0.033 A 
HETATM   17  C8  UNL     1      21.120  -0.001  53.308  1.00  0.00     0.029 A 
HETATM   18  C9  UNL     1      20.127  -0.824  53.795  1.00  0.00     0.002 A 
HETATM   19  C10 UNL     1      18.912  -0.922  53.117  1.00  0.00     0.000 A 
HETATM   20  C11 UNL     1      18.675  -0.199  51.944  1.00  0.00     0.002 A 
HETATM   21  C12 UNL     1      19.667   0.622  51.458  1.00  0.00     0.029 A 
ENDBRANCH  14  16
ENDBRANCH   5  14
BRANCH   1  22
HETATM   22  O1  UNL     1      27.809  -1.263  53.815  1.00  0.00    -0.355 OA
HETATM   23  C1  UNL     1      28.982  -0.506  53.915  1.00  0.00     0.210 C 
ENDBRANCH   1  22
TORSDOF 3
ENDMDL
MODEL 5
REMARK VINA RESULT:      -7.7      2.377      5.328
REMARK  3 active torsions:
REMARK  status: ('A' for Active; 'I' for Inactive)
REMARK    1  A    between atoms: O1_2  and  C2_3 
REMARK    2  A    between atoms: C6_7  and  N1_8 
REMARK    3  A    between atoms: N1_8  and  C7_9 
ROOT
HETATM    1  C2  UNL     1      20.492  -0.046  53.013  1.00  0.00     0.080 A 
HETATM    2  C3  UNL     1      21.596  -0.506  53.715  1.00  0.00     0.050 A 
HETATM    3  C4  UNL     1      22.411   0.383  53.074  1.00  0.00    -0.017 A 
HETATM    4  C5  UNL     1      23.602   0.967  52.813  1.00  0.00     0.063 C 
HETATM    5  C6  UNL     1      24.321   2.119  52.728  1.00  0.00     0.130 C 
HETATM    6  N2  UNL     1      24.270   3.250  51.959  1.00  0.00    -0.224 NA
HETATM    7  C13 UNL     1      25.052   3.351  50.855  1.00  0.00     0.237 C 
HETATM    8  N3  UNL     1      24.447   3.089  49.680  1.00  0.00    -0.230 NA
HETATM    9  C14 UNL     1      23.234   3.648  49.469  1.00  0.00     0.258 C 
HETATM   10  O2  UNL     1      22.956   2.367  49.519  1.00  0.00    -0.316 OA
HETATM   11  C15 UNL     1      21.879   1.895  50.099  1.00  0.00     0.144 C 
HETATM   12  C16 UNL     1      21.359   1.915  51.382  1.00  0.00     0.040 C 
HETATM   13  C17 UNL     1      21.290   0.885  52.331  1.00  0.00     0.009 A 
ENDROOT
BRANCH   5  14
HETATM   14  N1  UNL     1      25.445   2.481  53.521  1.00  0.00    -0.341 N 
HETATM   15  H6  UNL     1      25.210   3.450  53.889  1.00  0.00     0.167 HD
BRANCH  14  16
HETATM   16  C7  UNL     1      26.662   1.840  53.837  1.00  0.00     0.033 A 
HETATM   17  C8  UNL     1      27.832   2.401  53.372  1.00  0.00     0.029 A 
HETATM   18  C9  UNL     1      29.016   1.771  53.693  1.00  0.00     0.002 A 
HETATM   19  C10 UNL     1      28.997   0.610  54.464  1.00  0.00     0.000 A 
HETATM   20  C11 UNL     1      27.796   0.063  54.924  1.00  0.00     0.002 A 
HETATM   21  C12 UNL     1      26.614   0.692  54.602  1.00  0.00     0.029 A 
ENDBRANCH  14  16
ENDBRANCH   5  14
BRANCH   1  22
HETATM   22  O1  UNL     1      19.123  -0.269  52.890  1.00  0.00    -0.355 OA
HETATM   23  C1  UNL     1      18.569  -1.426  53.449  1.00  0.00     0.210 C 
ENDBRANCH   1  22
TORSDOF 3
ENDMDL
MODEL 6
REMARK VINA RESULT:      -7.5      2.360      4.528
REMARK  3 active torsions:
REMARK  status: ('A' for Active; 'I' for Inactive)
REMARK    1  A    between atoms: O1_2  and  C2_3 
REMARK    2  A    between atoms: C6_7  and  N1_8 
REMARK    3  A    between atoms: N1_8  and  C7_9 
ROOT
HETATM    1  C2  UNL     1      26.686   0.047  53.165  1.00  0.00     0.080 A 
HETATM    2  C3  UNL     1      26.836   0.843  52.039  1.00  0.00     0.050 A 
HETATM    3  C4  UNL     1      25.490   1.064  51.980  1.00  0.00    -0.017 A 
HETATM    4  C5  UNL     1      24.371   1.603  51.444  1.00  0.00     0.063 C 
HETATM    5  C6  UNL     1      23.248   2.346  51.639  1.00  0.00     0.130 C 
HETATM    6  N2  UNL     1      22.113   2.225  52.394  1.00  0.00    -0.224 NA
HETATM    7  C13 UNL     1      20.987   1.708  51.841  1.00  0.00     0.237 C 
HETATM    8  N3  UNL     1      20.742   0.411  52.110  1.00  0.00    -0.230 NA
HETATM    9  C14 UNL     1      20.883   0.007  53.391  1.00  0.00     0.258 C 
HETATM   10  O2  UNL     1      21.841  -0.645  52.777  1.00  0.00    -0.316 OA
HETATM   11  C15 UNL     1      23.026  -0.832  53.304  1.00  0.00     0.144 C 
HETATM   12  C16 UNL     1      24.055  -0.013  53.739  1.00  0.00     0.040 C 
HETATM   13  C17 UNL     1      25.298   0.248  53.144  1.00  0.00     0.009 A 
ENDROOT
BRANCH   5  14
HETATM   14  N1  UNL     1      22.938   3.595  51.032  1.00  0.00    -0.341 N 
HETATM   15  H6  UNL     1      21.879   3.592  50.943  1.00  0.00     0.167 HD
BRANCH  14  16
HETATM   16  C7  UNL     1      23.720   4.680  50.581  1.00  0.00     0.033 A 
HETATM   17  C8  UNL     1      23.800   5.799  51.382  1.00  0.00     0.029 A 
HETATM   18  C9  UNL     1      24.573   6.851  50.938  1.00  0.00     0.002 A 
HETATM   19  C10 UNL     1      25.238   6.754  49.716  1.00  0.00     0.000 A 
HETATM   20  C11 UNL     1      25.140   5.607  48.924  1.00  0.00     0.002 A 
HETATM   21  C12 UNL     1      24.367   4.558  49.369  1.00  0.00     0.029 A 
ENDBRANCH  14  16
ENDBRANCH   5  14
BRANCH   1  22
HETATM   22  O1  UNL     1      27.440  -0.705  54.061  1.00  0.00    -0.355 OA
HETATM   23  C1  UNL     1      28.543  -0.113  54.687  1.00  0.00     0.210 C 
ENDBRANCH   1  22
TORSDOF 3
ENDMDL
MODEL 7
REMARK VINA RESULT:      -7.3      3.430      6.531
REMARK  3 active torsions:
REMARK  status: ('A' for Active; 'I' for Inactive)
REMARK    1  A    between atoms: O1_2  and  C2_3 
REMARK    2  A    between atoms: C6_7  and  N1_8 
REMARK    3  A    between atoms: N1_8  and  C7_9 
ROOT
HETATM    1  C2  UNL     1      24.641  -0.513  54.003  1.00  0.00     0.080 A 
HETATM    2  C3  UNL     1      23.357  -0.980  54.240  1.00  0.00     0.050 A 
HETATM    3  C4  UNL     1      22.816   0.077  53.567  1.00  0.00    -0.017 A 
HETATM    4  C5  UNL     1      21.787   0.806  53.077  1.00  0.00     0.063 C 
HETATM    5  C6  UNL     1      21.213   1.397  51.994  1.00  0.00     0.130 C 
HETATM    6  N2  UNL     1      21.558   2.400  51.129  1.00  0.00    -0.224 NA
HETATM    7  C13 UNL     1      21.106   3.662  51.344  1.00  0.00     0.237 C 
HETATM    8  N3  UNL     1      21.976   4.506  51.932  1.00  0.00    -0.230 NA
HETATM    9  C14 UNL     1      23.242   4.518  51.462  1.00  0.00     0.258 C 
HETATM   10  O2  UNL     1      23.391   4.046  52.676  1.00  0.00    -0.316 OA
HETATM   11  C15 UNL     1      24.235   3.085  52.967  1.00  0.00     0.144 C 
HETATM   12  C16 UNL     1      24.398   1.765  52.585  1.00  0.00     0.040 C 
HETATM   13  C17 UNL     1      24.129   0.590  53.303  1.00  0.00     0.009 A 
ENDROOT
BRANCH   5  14
HETATM   14  N1  UNL     1      19.954   1.076  51.416  1.00  0.00    -0.341 N 
HETATM   15  H6  UNL     1      19.906   1.668  50.535  1.00  0.00     0.167 HD
BRANCH  14  16
HETATM   16  C7  UNL     1      18.900   0.216  51.793  1.00  0.00     0.033 A 
HETATM   17  C8  UNL     1      19.060  -0.548  52.930  1.00  0.00     0.029 A 
HETATM   18  C9  UNL     1      18.021  -1.378  53.294  1.00  0.00     0.002 A 
HETATM   19  C10 UNL     1      16.863  -1.421  52.520  1.00  0.00     0.000 A 
HETATM   20  C11 UNL     1      16.727  -0.635  51.372  1.00  0.00     0.002 A 
HETATM   21  C12 UNL     1      17.765   0.194  51.009  1.00  0.00     0.029 A 
ENDBRANCH  14  16
ENDBRANCH   5  14
BRANCH   1  22
HETATM   22  O1  UNL     1      25.970  -0.838  54.258  1.00  0.00    -0.355 OA
HETATM   23  C1  UNL     1      26.839   0.158  54.718  1.00  0.00     0.210 C 
ENDBRANCH   1  22
TORSDOF 3
ENDMDL
MODEL 8
REMARK VINA RESULT:      -7.3      6.288      9.085
REMARK  3 active torsions:
REMARK  status: ('A' for Active; 'I' for Inactive)
REMARK    1  A    between atoms: O1_2  and  C2_3 
REMARK    2  A    between atoms: C6_7  and  N1_8 
REMARK    3  A    between atoms: N1_8  and  C7_9 
ROOT
HETATM    1  C2  UNL     1      26.196   5.401  49.078  1.00  0.00     0.080 A 
HETATM    2  C3  UNL     1      27.084   4.339  49.010  1.00  0.00     0.050 A 
HETATM    3  C4  UNL     1      28.071   5.156  48.536  1.00  0.00    -0.017 A 
HETATM    4  C5  UNL     1      29.321   5.417  48.092  1.00  0.00     0.063 C 
HETATM    5  C6  UNL     1      30.452   6.163  48.219  1.00  0.00     0.130 C 
HETATM    6  N2  UNL     1      30.770   7.488  48.092  1.00  0.00    -0.224 NA
HETATM    7  C13 UNL     1      31.280   7.950  46.922  1.00  0.00     0.237 C 
HETATM    8  N3  UNL     1      30.405   8.562  46.101  1.00  0.00    -0.230 NA
HETATM    9  C14 UNL     1      29.563   9.463  46.653  1.00  0.00     0.258 C 
HETATM   10  O2  UNL     1      28.750   8.510  46.265  1.00  0.00    -0.316 OA
HETATM   11  C15 UNL     1      27.713   8.129  46.970  1.00  0.00     0.144 C 
HETATM   12  C16 UNL     1      27.521   7.588  48.231  1.00  0.00     0.040 C 
HETATM   13  C17 UNL     1      27.179   6.278  48.595  1.00  0.00     0.009 A 
ENDROOT
BRANCH   5  14
HETATM   14  N1  UNL     1      31.749   5.690  48.564  1.00  0.00    -0.341 N 
HETATM   15  H6  UNL     1      31.995   6.215  49.455  1.00  0.00     0.167 HD
BRANCH  14  16
HETATM   16  C7  UNL     1      32.637   4.766  47.975  1.00  0.00     0.033 A 
HETATM   17  C8  UNL     1      33.990   4.950  48.170  1.00  0.00     0.029 A 
HETATM   18  C9  UNL     1      34.850   4.037  47.597  1.00  0.00     0.002 A 
HETATM   19  C10 UNL     1      34.338   2.975  46.853  1.00  0.00     0.000 A 
HETATM   20  C11 UNL     1      32.962   2.811  46.672  1.00  0.00     0.002 A 
HETATM   21  C12 UNL     1      32.104   3.724  47.244  1.00  0.00     0.029 A 
ENDBRANCH  14  16
ENDBRANCH   5  14
BRANCH   1  22
HETATM   22  O1  UNL     1      24.880   5.685  49.434  1.00  0.00    -0.355 OA
HETATM   23  C1  UNL     1      24.635   6.604  50.461  1.00  0.00     0.210 C 
ENDBRANCH   1  22
TORSDOF 3
ENDMDL
MODEL 9
REMARK VINA RESULT:      -7.2      3.738      7.547
REMARK  3 active torsions:
REMARK  status: ('A' for Active; 'I' for Inactive)
REMARK    1  A    between atoms: O1_2  and  C2_3 
REMARK    2  A    between atoms: C6_7  and  N1_8 
REMARK    3  A    between atoms: N1_8  and  C7_9 
ROOT
HETATM    1  C2  UNL     1      27.220   5.986  48.468  1.00  0.00     0.080 A 
HETATM    2  C3  UNL     1      27.435   4.708  48.961  1.00  0.00     0.050 A 
HETATM    3  C4  UNL     1      26.165   4.655  49.461  1.00  0.00    -0.017 A 
HETATM    4  C5  UNL     1      25.141   4.058  50.112  1.00  0.00     0.063 C 
HETATM    5  C6  UNL     1      23.836   3.671  50.088  1.00  0.00     0.130 C 
HETATM    6  N2  UNL     1      22.628   4.307  49.999  1.00  0.00    -0.224 NA
HETATM    7  C13 UNL     1      21.931   4.592  51.127  1.00  0.00     0.237 C 
HETATM    8  N3  UNL     1      22.035   5.857  51.579  1.00  0.00    -0.230 NA
HETATM    9  C14 UNL     1      21.918   6.851  50.672  1.00  0.00     0.258 C 
HETATM   10  O2  UNL     1      23.166   6.962  51.058  1.00  0.00    -0.316 OA
HETATM   11  C15 UNL     1      24.143   7.250  50.234  1.00  0.00     0.144 C 
HETATM   12  C16 UNL     1      24.692   6.660  49.108  1.00  0.00     0.040 C 
HETATM   13  C17 UNL     1      25.908   5.976  48.963  1.00  0.00     0.009 A 
ENDROOT
BRANCH   5  14
HETATM   14  N1  UNL     1      23.343   2.338  50.155  1.00  0.00    -0.341 N 
HETATM   15  H6  UNL     1      23.099   2.094  49.150  1.00  0.00     0.167 HD
BRANCH  14  16
HETATM   16  C7  UNL     1      23.146   1.424  51.212  1.00  0.00     0.033 A 
HETATM   17  C8  UNL     1      21.926   0.789  51.303  1.00  0.00     0.029 A 
HETATM   18  C9  UNL     1      21.746  -0.108  52.334  1.00  0.00     0.002 A 
HETATM   19  C10 UNL     1      22.783  -0.344  53.237  1.00  0.00     0.000 A 
HETATM   20  C11 UNL     1      24.011   0.313  53.120  1.00  0.00     0.002 A 
HETATM   21  C12 UNL     1      24.189   1.209  52.090  1.00  0.00     0.029 A 
ENDBRANCH  14  16
ENDBRANCH   5  14
BRANCH   1  22
HETATM   22  O1  UNL     1      27.877   6.996  47.771  1.00  0.00    -0.355 OA
HETATM   23  C1  UNL     1      29.272   6.959  47.670  1.00  0.00     0.210 C 
ENDBRANCH   1  22
TORSDOF 3
ENDMDL
