MODEL 1
REMARK VINA RESULT:      -9.3      0.000      0.000
REMARK  4 active torsions:
REMARK  status: ('A' for Active; 'I' for Inactive)
REMARK    1  A    between atoms: O1_2  and  C2_3 
REMARK    2  A    between atoms: C3_4  and  N1_5 
REMARK    3  A    between atoms: N1_5  and  C4_6 
REMARK    4  A    between atoms: C9_12  and  C10_13 
ROOT
HETATM    1  C4  UNL     1      24.638   1.054  52.987  1.00  0.00     0.743 A 
HETATM    2  N2  UNL     1      23.473   0.363  53.153  1.00  0.00    -0.071 NA
HETATM    3  C5  UNL     1      22.520   0.579  52.198  1.00  0.00     0.168 A 
HETATM    4  C6  UNL     1      22.708   1.443  51.124  1.00  0.00     0.077 A 
HETATM    5  C7  UNL     1      21.943   1.833  50.058  1.00  0.00     0.035 A 
HETATM    6  C8  UNL     1      22.700   2.730  49.326  1.00  0.00     0.035 A 
HETATM    7  C9  UNL     1      23.922   2.883  49.949  1.00  0.00     0.070 A 
HETATM    8  N3  UNL     1      23.896   2.080  51.050  1.00  0.00    -0.216 N 
HETATM    9  N4  UNL     1      24.841   1.893  51.957  1.00  0.00     0.027 NA
ENDROOT
BRANCH   1  10
HETATM   10  N1  UNL     1      25.655   0.871  53.939  1.00  0.00    -0.188 N 
HETATM   11  H4  UNL     1      25.707   1.455  54.806  1.00  0.00     0.184 HD
BRANCH  10  12
HETATM   12  C3  UNL     1      26.660  -0.144  53.726  1.00  0.00     0.061 C 
HETATM   13  C2  UNL     1      27.882   0.277  54.023  1.00  0.00     0.092 C 
HETATM   14  C19 UNL     1      29.121  -0.521  53.912  1.00  0.00     0.055 C 
HETATM   15  C18 UNL     1      29.307  -1.775  53.486  1.00  0.00     0.085 C 
HETATM   16  N5  UNL     1      28.253  -2.630  53.026  1.00  0.00    -0.398 N 
HETATM   17  C17 UNL     1      27.030  -2.239  52.401  1.00  0.00     0.125 C 
HETATM   18  H17 UNL     1      28.455  -3.661  53.194  1.00  0.00     0.158 HD
HETATM   19  C16 UNL     1      26.116  -1.401  53.236  1.00  0.00     0.080 C 
BRANCH  13  20
HETATM   20  O1  UNL     1      28.180   1.532  54.482  1.00  0.00    -0.354 OA
HETATM   21  C1  UNL     1      28.855   2.474  53.669  1.00  0.00     0.210 C 
ENDBRANCH  13  20
ENDBRANCH  10  12
ENDBRANCH   1  10
BRANCH   7  22
HETATM   22  C10 UNL     1      25.051   3.735  49.536  1.00  0.00    -0.007 A 
HETATM   23  C11 UNL     1      24.689   5.033  49.204  1.00  0.00     0.014 A 
HETATM   24  C12 UNL     1      25.600   5.986  48.791  1.00  0.00     0.001 A 
HETATM   25  C13 UNL     1      26.918   5.586  48.721  1.00  0.00     0.000 A 
HETATM   26  C14 UNL     1      27.307   4.305  49.044  1.00  0.00     0.001 A 
HETATM   27  C15 UNL     1      26.378   3.363  49.455  1.00  0.00     0.014 A 
ENDBRANCH   7  22
TORSDOF 4
ENDMDL
MODEL 2
REMARK VINA RESULT:      -8.6      1.631      4.494
REMARK  4 active torsions:
REMARK  status: ('A' for Active; 'I' for Inactive)
REMARK    1  A    between atoms: O1_2  and  C2_3 
REMARK    2  A    between atoms: C3_4  and  N1_5 
REMARK    3  A    between atoms: N1_5  and  C4_6 
REMARK    4  A    between atoms: C9_12  and  C10_13 
ROOT
HETATM    1  C4  UNL     1      25.068   1.409  52.766  1.00  0.00     0.743 A 
HETATM    2  N2  UNL     1      25.756   2.230  51.921  1.00  0.00    -0.071 NA
HETATM    3  C5  UNL     1      25.043   2.715  50.861  1.00  0.00     0.168 A 
HETATM    4  C6  UNL     1      23.705   2.401  50.643  1.00  0.00     0.077 A 
HETATM    5  C7  UNL     1      22.781   2.738  49.692  1.00  0.00     0.035 A 
HETATM    6  C8  UNL     1      21.603   2.097  50.030  1.00  0.00     0.035 A 
HETATM    7  C9  UNL     1      21.814   1.373  51.185  1.00  0.00     0.070 A 
HETATM    8  N3  UNL     1      23.114   1.580  51.538  1.00  0.00    -0.216 N 
HETATM    9  N4  UNL     1      23.775   1.093  52.575  1.00  0.00     0.027 NA
ENDROOT
BRANCH   1  10
HETATM   10  N1  UNL     1      25.751   0.880  53.874  1.00  0.00    -0.188 N 
HETATM   11  H4  UNL     1      25.578   1.232  54.845  1.00  0.00     0.184 HD
BRANCH  10  12
HETATM   12  C3  UNL     1      26.719  -0.174  53.682  1.00  0.00     0.061 C 
HETATM   13  C2  UNL     1      27.948   0.193  54.020  1.00  0.00     0.092 C 
HETATM   14  C19 UNL     1      29.155  -0.655  53.938  1.00  0.00     0.055 C 
HETATM   15  C18 UNL     1      29.303  -1.912  53.505  1.00  0.00     0.085 C 
HETATM   16  N5  UNL     1      28.229  -2.717  53.004  1.00  0.00    -0.398 N 
HETATM   17  C17 UNL     1      27.044  -2.270  52.346  1.00  0.00     0.125 C 
HETATM   18  H17 UNL     1      28.383  -3.758  53.168  1.00  0.00     0.158 HD
HETATM   19  C16 UNL     1      26.139  -1.402  53.161  1.00  0.00     0.080 C 
BRANCH  13  20
HETATM   20  O1  UNL     1      28.283   1.431  54.501  1.00  0.00    -0.354 OA
HETATM   21  C1  UNL     1      28.897   2.401  53.674  1.00  0.00     0.210 C 
ENDBRANCH  13  20
ENDBRANCH  10  12
ENDBRANCH   1  10
BRANCH   7  22
HETATM   22  C10 UNL     1      20.850   0.533  51.919  1.00  0.00    -0.007 A 
HETATM   23  C11 UNL     1      19.581   0.506  51.358  1.00  0.00     0.014 A 
HETATM   24  C12 UNL     1      18.537  -0.221  51.895  1.00  0.00     0.001 A 
HETATM   25  C13 UNL     1      18.812  -0.939  53.040  1.00  0.00     0.000 A 
HETATM   26  C14 UNL     1      20.062  -0.932  53.619  1.00  0.00     0.001 A 
HETATM   27  C15 UNL     1      21.097  -0.196  53.065  1.00  0.00     0.014 A 
ENDBRANCH   7  22
TORSDOF 4
ENDMDL
MODEL 3
REMARK VINA RESULT:      -8.5      1.520      2.332
REMARK  4 active torsions:
REMARK  status: ('A' for Active; 'I' for Inactive)
REMARK    1  A    between atoms: O1_2  and  C2_3 
REMARK    2  A    between atoms: C3_4  and  N1_5 
REMARK    3  A    between atoms: N1_5  and  C4_6 
REMARK    4  A    between atoms: C9_12  and  C10_13 
ROOT
HETATM    1  C4  UNL     1      24.846   2.527  52.785  1.00  0.00     0.743 A 
HETATM    2  N2  UNL     1      23.637   1.904  52.898  1.00  0.00    -0.071 NA
HETATM    3  C5  UNL     1      22.813   2.017  51.814  1.00  0.00     0.168 A 
HETATM    4  C6  UNL     1      23.167   2.717  50.664  1.00  0.00     0.077 A 
HETATM    5  C7  UNL     1      22.553   2.980  49.470  1.00  0.00     0.035 A 
HETATM    6  C8  UNL     1      23.433   3.742  48.724  1.00  0.00     0.035 A 
HETATM    7  C9  UNL     1      24.579   3.940  49.465  1.00  0.00     0.070 A 
HETATM    8  N3  UNL     1      24.386   3.298  50.652  1.00  0.00    -0.216 N 
HETATM    9  N4  UNL     1      25.208   3.209  51.684  1.00  0.00     0.027 NA
ENDROOT
BRANCH   1  10
HETATM   10  N1  UNL     1      25.734   2.445  53.870  1.00  0.00    -0.188 N 
HETATM   11  H4  UNL     1      25.537   2.925  54.779  1.00  0.00     0.184 HD
BRANCH  10  12
HETATM   12  C3  UNL     1      26.954   1.684  53.740  1.00  0.00     0.061 C 
HETATM   13  C2  UNL     1      26.744   0.374  53.765  1.00  0.00     0.092 C 
HETATM   14  C19 UNL     1      27.785  -0.669  53.655  1.00  0.00     0.055 C 
HETATM   15  C18 UNL     1      29.113  -0.559  53.538  1.00  0.00     0.085 C 
HETATM   16  N5  UNL     1      29.811   0.692  53.496  1.00  0.00    -0.398 N 
HETATM   17  C17 UNL     1      29.422   1.923  54.105  1.00  0.00     0.125 C 
HETATM   18  H17 UNL     1      30.715   0.640  52.936  1.00  0.00     0.158 HD
HETATM   19  C16 UNL     1      28.141   2.513  53.609  1.00  0.00     0.080 C 
BRANCH  13  20
HETATM   20  O1  UNL     1      25.514  -0.211  53.900  1.00  0.00    -0.354 OA
HETATM   21  C1  UNL     1      25.157  -0.915  55.075  1.00  0.00     0.210 C 
ENDBRANCH  13  20
ENDBRANCH  10  12
ENDBRANCH   1  10
BRANCH   7  22
HETATM   22  C10 UNL     1      25.789   4.689  49.082  1.00  0.00    -0.007 A 
HETATM   23  C11 UNL     1      25.565   6.034  48.824  1.00  0.00     0.014 A 
HETATM   24  C12 UNL     1      26.568   6.906  48.451  1.00  0.00     0.001 A 
HETATM   25  C13 UNL     1      27.836   6.374  48.342  1.00  0.00     0.000 A 
HETATM   26  C14 UNL     1      28.090   5.044  48.593  1.00  0.00     0.001 A 
HETATM   27  C15 UNL     1      27.069   4.184  48.966  1.00  0.00     0.014 A 
ENDBRANCH   7  22
TORSDOF 4
ENDMDL
MODEL 4
REMARK VINA RESULT:      -8.5      2.531      7.009
REMARK  4 active torsions:
REMARK  status: ('A' for Active; 'I' for Inactive)
REMARK    1  A    between atoms: O1_2  and  C2_3 
REMARK    2  A    between atoms: C3_4  and  N1_5 
REMARK    3  A    between atoms: N1_5  and  C4_6 
REMARK    4  A    between atoms: C9_12  and  C10_13 
ROOT
HETATM    1  C4  UNL     1      25.851   2.250  51.166  1.00  0.00     0.743 A 
HETATM    2  N2  UNL     1      27.163   2.305  51.538  1.00  0.00    -0.071 NA
HETATM    3  C5  UNL     1      27.494   1.566  52.638  1.00  0.00     0.168 A 
HETATM    4  C6  UNL     1      26.569   0.804  53.344  1.00  0.00     0.077 A 
HETATM    5  C7  UNL     1      26.630  -0.005  54.447  1.00  0.00     0.035 A 
HETATM    6  C8  UNL     1      25.353  -0.489  54.661  1.00  0.00     0.035 A 
HETATM    7  C9  UNL     1      24.519   0.025  53.690  1.00  0.00     0.070 A 
HETATM    8  N3  UNL     1      25.296   0.815  52.896  1.00  0.00    -0.216 N 
HETATM    9  N4  UNL     1      24.940   1.520  51.834  1.00  0.00     0.027 NA
ENDROOT
BRANCH   1  10
HETATM   10  N1  UNL     1      25.452   2.990  50.041  1.00  0.00    -0.188 N 
HETATM   11  H4  UNL     1      24.889   2.559  49.271  1.00  0.00     0.184 HD
BRANCH  10  12
HETATM   12  C3  UNL     1      25.823   4.381  49.932  1.00  0.00     0.061 C 
HETATM   13  C2  UNL     1      24.932   5.193  50.484  1.00  0.00     0.092 C 
HETATM   14  C19 UNL     1      25.021   6.667  50.536  1.00  0.00     0.055 C 
HETATM   15  C18 UNL     1      25.950   7.496  50.047  1.00  0.00     0.085 C 
HETATM   16  N5  UNL     1      27.112   7.061  49.328  1.00  0.00    -0.398 N 
HETATM   17  C17 UNL     1      27.246   5.890  48.523  1.00  0.00     0.125 C 
HETATM   18  H17 UNL     1      27.938   7.723  49.442  1.00  0.00     0.158 HD
HETATM   19  C16 UNL     1      27.087   4.589  49.243  1.00  0.00     0.080 C 
BRANCH  13  20
HETATM   20  O1  UNL     1      23.779   4.778  51.096  1.00  0.00    -0.354 OA
HETATM   21  C1  UNL     1      23.512   5.084  52.452  1.00  0.00     0.210 C 
ENDBRANCH  13  20
ENDBRANCH  10  12
ENDBRANCH   1  10
BRANCH   7  22
HETATM   22  C10 UNL     1      23.075  -0.210  53.515  1.00  0.00    -0.007 A 
HETATM   23  C11 UNL     1      22.519  -1.050  54.469  1.00  0.00     0.014 A 
HETATM   24  C12 UNL     1      21.182  -1.395  54.480  1.00  0.00     0.001 A 
HETATM   25  C13 UNL     1      20.400  -0.858  53.478  1.00  0.00     0.000 A 
HETATM   26  C14 UNL     1      20.924  -0.021  52.518  1.00  0.00     0.001 A 
HETATM   27  C15 UNL     1      22.268   0.313  52.524  1.00  0.00     0.014 A 
ENDBRANCH   7  22
TORSDOF 4
ENDMDL
MODEL 5
REMARK VINA RESULT:      -8.5      2.243      6.397
REMARK  4 active torsions:
REMARK  status: ('A' for Active; 'I' for Inactive)
REMARK    1  A    between atoms: O1_2  and  C2_3 
REMARK    2  A    between atoms: C3_4  and  N1_5 
REMARK    3  A    between atoms: N1_5  and  C4_6 
REMARK    4  A    between atoms: C9_12  and  C10_13 
ROOT
HETATM    1  C4  UNL     1      22.620   1.248  51.531  1.00  0.00     0.743 A 
HETATM    2  N2  UNL     1      21.310   0.986  51.806  1.00  0.00    -0.071 NA
HETATM    3  C5  UNL     1      21.085   0.192  52.895  1.00  0.00     0.168 A 
HETATM    4  C6  UNL     1      22.111  -0.324  53.681  1.00  0.00     0.077 A 
HETATM    5  C7  UNL     1      22.165  -1.121  54.792  1.00  0.00     0.035 A 
HETATM    6  C8  UNL     1      23.501  -1.283  55.107  1.00  0.00     0.035 A 
HETATM    7  C9  UNL     1      24.257  -0.585  54.187  1.00  0.00     0.070 A 
HETATM    8  N3  UNL     1      23.374  -0.006  53.325  1.00  0.00    -0.216 N 
HETATM    9  N4  UNL     1      23.628   0.760  52.276  1.00  0.00     0.027 NA
ENDROOT
BRANCH   1  10
HETATM   10  N1  UNL     1      22.912   2.059  50.422  1.00  0.00    -0.188 N 
HETATM   11  H4  UNL     1      22.995   1.662  49.457  1.00  0.00     0.184 HD
BRANCH  10  12
HETATM   12  C3  UNL     1      23.107   3.478  50.605  1.00  0.00     0.061 C 
HETATM   13  C2  UNL     1      24.362   3.852  50.396  1.00  0.00     0.092 C 
HETATM   14  C19 UNL     1      24.882   5.232  50.505  1.00  0.00     0.055 C 
HETATM   15  C18 UNL     1      24.261   6.366  50.846  1.00  0.00     0.085 C 
HETATM   16  N5  UNL     1      22.873   6.445  51.194  1.00  0.00    -0.398 N 
HETATM   17  C17 UNL     1      22.069   5.427  51.790  1.00  0.00     0.125 C 
HETATM   18  H17 UNL     1      22.443   7.390  50.960  1.00  0.00     0.158 HD
HETATM   19  C16 UNL     1      21.892   4.184  50.978  1.00  0.00     0.080 C 
BRANCH  13  20
HETATM   20  O1  UNL     1      25.377   3.002  50.044  1.00  0.00    -0.354 OA
HETATM   21  C1  UNL     1      26.458   2.742  50.919  1.00  0.00     0.210 C 
ENDBRANCH  13  20
ENDBRANCH  10  12
ENDBRANCH   1  10
BRANCH   7  22
HETATM   22  C10 UNL     1      25.724  -0.466  54.120  1.00  0.00    -0.007 A 
HETATM   23  C11 UNL     1      26.303  -1.185  53.084  1.00  0.00     0.014 A 
HETATM   24  C12 UNL     1      27.664  -1.205  52.852  1.00  0.00     0.001 A 
HETATM   25  C13 UNL     1      28.446  -0.463  53.712  1.00  0.00     0.000 A 
HETATM   26  C14 UNL     1      27.899   0.261  54.748  1.00  0.00     0.001 A 
HETATM   27  C15 UNL     1      26.531   0.268  54.966  1.00  0.00     0.014 A 
ENDBRANCH   7  22
TORSDOF 4
ENDMDL
MODEL 6
REMARK VINA RESULT:      -8.5      2.488      6.509
REMARK  4 active torsions:
REMARK  status: ('A' for Active; 'I' for Inactive)
REMARK    1  A    between atoms: O1_2  and  C2_3 
REMARK    2  A    between atoms: C3_4  and  N1_5 
REMARK    3  A    between atoms: N1_5  and  C4_6 
REMARK    4  A    between atoms: C9_12  and  C10_13 
ROOT
HETATM    1  C4  UNL     1      22.489   1.391  51.537  1.00  0.00     0.743 A 
HETATM    2  N2  UNL     1      21.192   1.274  51.946  1.00  0.00    -0.071 NA
HETATM    3  C5  UNL     1      20.996   0.531  53.076  1.00  0.00     0.168 A 
HETATM    4  C6  UNL     1      22.038  -0.073  53.774  1.00  0.00     0.077 A 
HETATM    5  C7  UNL     1      22.119  -0.848  54.899  1.00  0.00     0.035 A 
HETATM    6  C8  UNL     1      23.457  -1.142  55.089  1.00  0.00     0.035 A 
HETATM    7  C9  UNL     1      24.185  -0.546  54.079  1.00  0.00     0.070 A 
HETATM    8  N3  UNL     1      23.285   0.104  53.288  1.00  0.00    -0.216 N 
HETATM    9  N4  UNL     1      23.510   0.817  52.197  1.00  0.00     0.027 NA
ENDROOT
BRANCH   1  10
HETATM   10  N1  UNL     1      22.751   2.144  50.381  1.00  0.00    -0.188 N 
HETATM   11  H4  UNL     1      22.392   1.852  49.442  1.00  0.00     0.184 HD
BRANCH  10  12
HETATM   12  C3  UNL     1      23.534   3.353  50.476  1.00  0.00     0.061 C 
HETATM   13  C2  UNL     1      22.801   4.414  50.784  1.00  0.00     0.092 C 
HETATM   14  C19 UNL     1      23.306   5.793  50.954  1.00  0.00     0.055 C 
HETATM   15  C18 UNL     1      24.543   6.285  50.821  1.00  0.00     0.085 C 
HETATM   16  N5  UNL     1      25.684   5.495  50.460  1.00  0.00    -0.398 N 
HETATM   17  C17 UNL     1      25.702   4.313  49.661  1.00  0.00     0.125 C 
HETATM   18  H17 UNL     1      26.592   5.879  50.859  1.00  0.00     0.158 HD
HETATM   19  C16 UNL     1      24.950   3.145  50.216  1.00  0.00     0.080 C 
BRANCH  13  20
HETATM   20  O1  UNL     1      21.448   4.388  50.993  1.00  0.00    -0.354 OA
HETATM   21  C1  UNL     1      20.563   5.137  50.181  1.00  0.00     0.210 C 
ENDBRANCH  13  20
ENDBRANCH  10  12
ENDBRANCH   1  10
BRANCH   7  22
HETATM   22  C10 UNL     1      25.643  -0.583  53.867  1.00  0.00    -0.007 A 
HETATM   23  C11 UNL     1      26.364   0.197  54.759  1.00  0.00     0.014 A 
HETATM   24  C12 UNL     1      27.741   0.298  54.728  1.00  0.00     0.001 A 
HETATM   25  C13 UNL     1      28.388  -0.427  53.749  1.00  0.00     0.000 A 
HETATM   26  C14 UNL     1      27.699  -1.211  52.850  1.00  0.00     0.001 A 
HETATM   27  C15 UNL     1      26.317  -1.298  52.898  1.00  0.00     0.014 A 
ENDBRANCH   7  22
TORSDOF 4
ENDMDL
MODEL 7
REMARK VINA RESULT:      -8.1      2.522      7.158
REMARK  4 active torsions:
REMARK  status: ('A' for Active; 'I' for Inactive)
REMARK    1  A    between atoms: O1_2  and  C2_3 
REMARK    2  A    between atoms: C3_4  and  N1_5 
REMARK    3  A    between atoms: N1_5  and  C4_6 
REMARK    4  A    between atoms: C9_12  and  C10_13 
ROOT
HETATM    1  C4  UNL     1      25.513   2.569  50.964  1.00  0.00     0.743 A 
HETATM    2  N2  UNL     1      26.854   2.633  51.205  1.00  0.00    -0.071 NA
HETATM    3  C5  UNL     1      27.313   1.822  52.203  1.00  0.00     0.168 A 
HETATM    4  C6  UNL     1      26.481   0.981  52.937  1.00  0.00     0.077 A 
HETATM    5  C7  UNL     1      26.673   0.092  53.959  1.00  0.00     0.035 A 
HETATM    6  C8  UNL     1      25.435  -0.445  54.263  1.00  0.00     0.035 A 
HETATM    7  C9  UNL     1      24.495   0.119  53.424  1.00  0.00     0.070 A 
HETATM    8  N3  UNL     1      25.169   0.990  52.621  1.00  0.00    -0.216 N 
HETATM    9  N4  UNL     1      24.691   1.763  51.660  1.00  0.00     0.027 NA
ENDROOT
BRANCH   1  10
HETATM   10  N1  UNL     1      24.985   3.382  49.947  1.00  0.00    -0.188 N 
HETATM   11  H4  UNL     1      25.039   3.105  48.939  1.00  0.00     0.184 HD
BRANCH  10  12
HETATM   12  C3  UNL     1      24.349   4.632  50.289  1.00  0.00     0.061 C 
HETATM   13  C2  UNL     1      25.130   5.680  50.064  1.00  0.00     0.092 C 
HETATM   14  C19 UNL     1      24.772   7.093  50.312  1.00  0.00     0.055 C 
HETATM   15  C18 UNL     1      23.655   7.627  50.816  1.00  0.00     0.085 C 
HETATM   16  N5  UNL     1      22.520   6.859  51.240  1.00  0.00    -0.398 N 
HETATM   17  C17 UNL     1      22.517   5.526  51.749  1.00  0.00     0.125 C 
HETATM   18  H17 UNL     1      21.604   7.391  51.142  1.00  0.00     0.158 HD
HETATM   19  C16 UNL     1      22.998   4.472  50.804  1.00  0.00     0.080 C 
BRANCH  13  20
HETATM   20  O1  UNL     1      26.402   5.606  49.563  1.00  0.00    -0.354 OA
HETATM   21  C1  UNL     1      26.812   6.406  48.470  1.00  0.00     0.210 C 
ENDBRANCH  13  20
ENDBRANCH  10  12
ENDBRANCH   1  10
BRANCH   7  22
HETATM   22  C10 UNL     1      23.046  -0.145  53.378  1.00  0.00    -0.007 A 
HETATM   23  C11 UNL     1      22.575  -0.908  54.437  1.00  0.00     0.014 A 
HETATM   24  C12 UNL     1      21.248  -1.264  54.576  1.00  0.00     0.001 A 
HETATM   25  C13 UNL     1      20.386  -0.819  53.595  1.00  0.00     0.000 A 
HETATM   26  C14 UNL     1      20.824  -0.060  52.533  1.00  0.00     0.001 A 
HETATM   27  C15 UNL     1      22.160   0.287  52.411  1.00  0.00     0.014 A 
ENDBRANCH   7  22
TORSDOF 4
ENDMDL
MODEL 8
REMARK VINA RESULT:      -8.0      2.415      6.724
REMARK  4 active torsions:
REMARK  status: ('A' for Active; 'I' for Inactive)
REMARK    1  A    between atoms: O1_2  and  C2_3 
REMARK    2  A    between atoms: C3_4  and  N1_5 
REMARK    3  A    between atoms: N1_5  and  C4_6 
REMARK    4  A    between atoms: C9_12  and  C10_13 
ROOT
HETATM    1  C4  UNL     1      23.582   3.930  52.273  1.00  0.00     0.743 A 
HETATM    2  N2  UNL     1      22.228   3.956  52.112  1.00  0.00    -0.071 NA
HETATM    3  C5  UNL     1      21.592   2.758  52.282  1.00  0.00     0.168 A 
HETATM    4  C6  UNL     1      22.266   1.582  52.596  1.00  0.00     0.077 A 
HETATM    5  C7  UNL     1      21.887   0.285  52.815  1.00  0.00     0.035 A 
HETATM    6  C8  UNL     1      23.038  -0.429  53.092  1.00  0.00     0.035 A 
HETATM    7  C9  UNL     1      24.113   0.434  53.040  1.00  0.00     0.070 A 
HETATM    8  N3  UNL     1      23.606   1.662  52.735  1.00  0.00    -0.216 N 
HETATM    9  N4  UNL     1      24.253   2.805  52.577  1.00  0.00     0.027 NA
ENDROOT
BRANCH   1  10
HETATM   10  N1  UNL     1      24.289   5.133  52.110  1.00  0.00    -0.188 N 
HETATM   11  H4  UNL     1      24.914   5.508  52.861  1.00  0.00     0.184 HD
BRANCH  10  12
HETATM   12  C3  UNL     1      24.157   5.880  50.881  1.00  0.00     0.061 C 
HETATM   13  C2  UNL     1      25.021   5.492  49.952  1.00  0.00     0.092 C 
HETATM   14  C19 UNL     1      25.138   6.059  48.592  1.00  0.00     0.055 C 
HETATM   15  C18 UNL     1      24.465   7.057  48.009  1.00  0.00     0.085 C 
HETATM   16  N5  UNL     1      23.431   7.809  48.655  1.00  0.00    -0.398 N 
HETATM   17  C17 UNL     1      23.299   8.084  50.050  1.00  0.00     0.125 C 
HETATM   18  H17 UNL     1      22.705   8.182  47.971  1.00  0.00     0.158 HD
HETATM   19  C16 UNL     1      23.111   6.889  50.928  1.00  0.00     0.080 C 
BRANCH  13  20
HETATM   20  O1  UNL     1      25.945   4.496  50.120  1.00  0.00    -0.354 OA
HETATM   21  C1  UNL     1      26.977   4.281  49.176  1.00  0.00     0.210 C 
ENDBRANCH  13  20
ENDBRANCH  10  12
ENDBRANCH   1  10
BRANCH   7  22
HETATM   22  C10 UNL     1      25.536   0.126  53.265  1.00  0.00    -0.007 A 
HETATM   23  C11 UNL     1      26.002   0.489  54.521  1.00  0.00     0.014 A 
HETATM   24  C12 UNL     1      27.306   0.285  54.927  1.00  0.00     0.001 A 
HETATM   25  C13 UNL     1      28.150  -0.309  54.012  1.00  0.00     0.000 A 
HETATM   26  C14 UNL     1      27.716  -0.680  52.759  1.00  0.00     0.001 A 
HETATM   27  C15 UNL     1      26.404  -0.467  52.370  1.00  0.00     0.014 A 
ENDBRANCH   7  22
TORSDOF 4
ENDMDL
MODEL 9
REMARK VINA RESULT:      -8.0      3.062      7.045
REMARK  4 active torsions:
REMARK  status: ('A' for Active; 'I' for Inactive)
REMARK    1  A    between atoms: O1_2  and  C2_3 
REMARK    2  A    between atoms: C3_4  and  N1_5 
REMARK    3  A    between atoms: N1_5  and  C4_6 
REMARK    4  A    between atoms: C9_12  and  C10_13 
ROOT
HETATM    1  C4  UNL     1      22.768   2.424  52.052  1.00  0.00     0.743 A 
HETATM    2  N2  UNL     1      21.436   2.302  52.323  1.00  0.00    -0.071 NA
HETATM    3  C5  UNL     1      21.095   1.259  53.138  1.00  0.00     0.168 A 
HETATM    4  C6  UNL     1      22.029   0.372  53.663  1.00  0.00     0.077 A 
HETATM    5  C7  UNL     1      21.962  -0.724  54.479  1.00  0.00     0.035 A 
HETATM    6  C8  UNL     1      23.255  -1.185  54.641  1.00  0.00     0.035 A 
HETATM    7  C9  UNL     1      24.105  -0.369  53.924  1.00  0.00     0.070 A 
HETATM    8  N3  UNL     1      23.322   0.579  53.335  1.00  0.00    -0.216 N 
HETATM    9  N4  UNL     1      23.688   1.578  52.548  1.00  0.00     0.027 NA
ENDROOT
BRANCH   1  10
HETATM   10  N1  UNL     1      23.178   3.478  51.219  1.00  0.00    -0.188 N 
HETATM   11  H4  UNL     1      23.938   4.138  51.503  1.00  0.00     0.184 HD
BRANCH  10  12
HETATM   12  C3  UNL     1      22.540   3.666  49.937  1.00  0.00     0.061 C 
HETATM   13  C2  UNL     1      21.795   4.762  49.893  1.00  0.00     0.092 C 
HETATM   14  C19 UNL     1      21.016   5.231  48.727  1.00  0.00     0.055 C 
HETATM   15  C18 UNL     1      20.859   4.687  47.516  1.00  0.00     0.085 C 
HETATM   16  N5  UNL     1      21.467   3.455  47.106  1.00  0.00    -0.398 N 
HETATM   17  C17 UNL     1      21.819   2.345  47.932  1.00  0.00     0.125 C 
HETATM   18  H17 UNL     1      21.656   3.417  46.060  1.00  0.00     0.158 HD
HETATM   19  C16 UNL     1      22.853   2.619  48.977  1.00  0.00     0.080 C 
BRANCH  13  20
HETATM   20  O1  UNL     1      21.634   5.633  50.938  1.00  0.00    -0.354 OA
HETATM   21  C1  UNL     1      21.547   7.030  50.727  1.00  0.00     0.210 C 
ENDBRANCH  13  20
ENDBRANCH  10  12
ENDBRANCH   1  10
BRANCH   7  22
HETATM   22  C10 UNL     1      25.570  -0.470  53.798  1.00  0.00    -0.007 A 
HETATM   23  C11 UNL     1      26.271   0.230  54.770  1.00  0.00     0.014 A 
HETATM   24  C12 UNL     1      27.651   0.261  54.826  1.00  0.00     0.001 A 
HETATM   25  C13 UNL     1      28.322  -0.449  53.852  1.00  0.00     0.000 A 
HETATM   26  C14 UNL     1      27.653  -1.153  52.876  1.00  0.00     0.001 A 
HETATM   27  C15 UNL     1      26.268  -1.172  52.836  1.00  0.00     0.014 A 
ENDBRANCH   7  22
TORSDOF 4
ENDMDL
