MODEL 1
REMARK VINA RESULT:     -10.1      0.000      0.000
REMARK  3 active torsions:
REMARK  status: ('A' for Active; 'I' for Inactive)
REMARK    1  A    between atoms: N1_1  and  C1_2 
REMARK    2  A    between atoms: C6_9  and  C9_12 
REMARK    3  A    between atoms: C13_16  and  C14_17 
ROOT
HETATM    1  C1  UNL     1      21.911  -0.768  53.531  1.00  0.00     0.221 C 
HETATM    2  C2  UNL     1      20.612  -0.136  53.474  1.00  0.00     0.061 C 
HETATM    3  C3  UNL     1      19.914   0.172  52.195  1.00  0.00     0.172 C 
HETATM    4  O1  UNL     1      20.291   1.109  51.321  1.00  0.00    -0.372 OA
HETATM    5  C4  UNL     1      19.500   1.149  50.146  1.00  0.00     0.285 C 
HETATM    6  N2  UNL     1      19.826   2.345  49.319  1.00  0.00    -0.389 N 
HETATM    7  C5  UNL     1      21.217   2.562  49.365  1.00  0.00     0.071 A 
HETATM    8  C6  UNL     1      21.050   3.112  50.714  1.00  0.00     0.036 A 
HETATM    9  C7  UNL     1      21.582   3.640  51.941  1.00  0.00     0.009 A 
HETATM   10  C8  UNL     1      23.023   3.902  52.424  1.00  0.00    -0.014 A 
HETATM   11  C9  UNL     1      22.605   3.422  51.300  1.00  0.00     0.056 A 
HETATM   12  C10 UNL     1      22.179   2.947  50.194  1.00  0.00     0.017 A 
HETATM   13  C11 UNL     1      23.407   2.840  49.304  1.00  0.00    -0.017 C 
HETATM   14  C12 UNL     1      24.616   3.547  49.270  1.00  0.00    -0.014 C 
HETATM   15  C13 UNL     1      25.057   4.415  50.469  1.00  0.00     0.100 C 
HETATM   16  C15 UNL     1      24.432   3.707  51.683  1.00  0.00    -0.037 C 
HETATM   17  C16 UNL     1      25.173   2.677  52.038  1.00  0.00     0.020 C 
HETATM   18  C17 UNL     1      26.495   2.217  51.601  1.00  0.00     0.098 C 
HETATM   19  C18 UNL     1      27.181   1.729  52.871  1.00  0.00    -0.026 A 
HETATM   20  C19 UNL     1      28.488   1.719  53.211  1.00  0.00     0.010 A 
HETATM   21  C20 UNL     1      28.703   0.859  54.297  1.00  0.00     0.001 A 
HETATM   22  C21 UNL     1      27.706   0.132  54.920  1.00  0.00     0.002 A 
HETATM   23  C22 UNL     1      26.375   0.241  54.465  1.00  0.00     0.030 A 
HETATM   24  C23 UNL     1      26.101   1.092  53.382  1.00  0.00     0.041 A 
HETATM   25  N3  UNL     1      24.830   1.592  52.897  1.00  0.00    -0.349 N 
HETATM   26  C24 UNL     1      23.466   1.096  53.005  1.00  0.00     0.131 C 
HETATM   27  C25 UNL     1      23.237  -0.137  53.788  1.00  0.00     0.055 C 
HETATM   28  H10 UNL     1      19.026   2.822  48.860  1.00  0.00     0.156 HD
ENDROOT
BRANCH   1  29
HETATM   29  N1  UNL     1      21.910  -1.861  54.588  1.00  0.00     0.083 N 
HETATM   30  H1  UNL     1      22.412  -1.369  55.393  1.00  0.00     0.313 HD
HETATM   31  H2  UNL     1      20.928  -1.958  54.926  1.00  0.00     0.313 HD
ENDBRANCH   1  29
BRANCH  15  32
HETATM   32  C14 UNL     1      24.330   5.684  50.368  1.00  0.00     0.244 C 
HETATM   33  O2  UNL     1      23.943   6.829  50.695  1.00  0.00    -0.306 OA
ENDBRANCH  15  32
TORSDOF 3
ENDMDL
MODEL 2
REMARK VINA RESULT:      -9.8      1.914      4.922
REMARK  3 active torsions:
REMARK  status: ('A' for Active; 'I' for Inactive)
REMARK    1  A    between atoms: N1_1  and  C1_2 
REMARK    2  A    between atoms: C6_9  and  C9_12 
REMARK    3  A    between atoms: C13_16  and  C14_17 
ROOT
HETATM    1  C1  UNL     1      25.468   4.920  49.814  1.00  0.00     0.221 C 
HETATM    2  C2  UNL     1      24.624   5.367  48.729  1.00  0.00     0.061 C 
HETATM    3  C3  UNL     1      23.339   6.090  48.944  1.00  0.00     0.172 C 
HETATM    4  O1  UNL     1      22.227   5.544  49.444  1.00  0.00    -0.372 OA
HETATM    5  C4  UNL     1      21.164   6.466  49.617  1.00  0.00     0.285 C 
HETATM    6  N2  UNL     1      19.896   5.766  49.966  1.00  0.00    -0.389 N 
HETATM    7  C5  UNL     1      20.193   4.700  50.837  1.00  0.00     0.071 A 
HETATM    8  C6  UNL     1      20.697   3.946  49.686  1.00  0.00     0.036 A 
HETATM    9  C7  UNL     1      21.338   2.796  49.107  1.00  0.00     0.009 A 
HETATM   10  C8  UNL     1      21.917   1.506  49.724  1.00  0.00    -0.014 A 
HETATM   11  C9  UNL     1      21.348   2.512  50.301  1.00  0.00     0.056 A 
HETATM   12  C10 UNL     1      20.784   3.512  50.859  1.00  0.00     0.017 A 
HETATM   13  C11 UNL     1      20.610   3.113  52.316  1.00  0.00    -0.017 C 
HETATM   14  C12 UNL     1      20.470   1.870  52.947  1.00  0.00    -0.014 C 
HETATM   15  C13 UNL     1      20.838   0.564  52.208  1.00  0.00     0.100 C 
HETATM   16  C15 UNL     1      21.957   0.993  51.244  1.00  0.00    -0.037 C 
HETATM   17  C16 UNL     1      23.106   1.063  51.884  1.00  0.00     0.020 C 
HETATM   18  C17 UNL     1      23.504   0.670  53.239  1.00  0.00     0.098 C 
HETATM   19  C18 UNL     1      24.900   0.079  53.082  1.00  0.00    -0.026 A 
HETATM   20  C19 UNL     1      25.523  -0.890  53.786  1.00  0.00     0.010 A 
HETATM   21  C20 UNL     1      26.904  -0.861  53.541  1.00  0.00     0.001 A 
HETATM   22  C21 UNL     1      27.522   0.041  52.693  1.00  0.00     0.002 A 
HETATM   23  C22 UNL     1      26.745   1.002  52.012  1.00  0.00     0.030 A 
HETATM   24  C23 UNL     1      25.357   1.015  52.217  1.00  0.00     0.041 A 
HETATM   25  N3  UNL     1      24.317   1.689  51.465  1.00  0.00    -0.349 N 
HETATM   26  C24 UNL     1      24.320   2.866  50.609  1.00  0.00     0.131 C 
HETATM   27  C25 UNL     1      25.613   3.544  50.369  1.00  0.00     0.055 C 
HETATM   28  H10 UNL     1      19.028   6.139  49.535  1.00  0.00     0.156 HD
ENDROOT
BRANCH   1  29
HETATM   29  N1  UNL     1      26.920   5.256  49.514  1.00  0.00     0.083 N 
HETATM   30  H1  UNL     1      27.403   4.343  49.787  1.00  0.00     0.313 HD
HETATM   31  H2  UNL     1      27.017   5.292  48.476  1.00  0.00     0.313 HD
ENDBRANCH   1  29
BRANCH  15  32
HETATM   32  C14 UNL     1      19.707   0.232  51.337  1.00  0.00     0.244 C 
HETATM   33  O2  UNL     1      18.573   0.337  50.818  1.00  0.00    -0.306 OA
ENDBRANCH  15  32
TORSDOF 3
ENDMDL
MODEL 3
REMARK VINA RESULT:      -9.6      2.247      5.219
REMARK  3 active torsions:
REMARK  status: ('A' for Active; 'I' for Inactive)
REMARK    1  A    between atoms: N1_1  and  C1_2 
REMARK    2  A    between atoms: C6_9  and  C9_12 
REMARK    3  A    between atoms: C13_16  and  C14_17 
ROOT
HETATM    1  C1  UNL     1      25.295   3.319  50.735  1.00  0.00     0.221 C 
HETATM    2  C2  UNL     1      25.078   3.636  49.342  1.00  0.00     0.061 C 
HETATM    3  C3  UNL     1      24.057   4.618  48.881  1.00  0.00     0.172 C 
HETATM    4  O1  UNL     1      22.735   4.431  48.934  1.00  0.00    -0.372 OA
HETATM    5  C4  UNL     1      21.980   5.550  48.502  1.00  0.00     0.285 C 
HETATM    6  N2  UNL     1      20.535   5.208  48.377  1.00  0.00    -0.389 N 
HETATM    7  C5  UNL     1      20.179   4.353  49.437  1.00  0.00     0.071 A 
HETATM    8  C6  UNL     1      20.854   3.258  48.734  1.00  0.00     0.036 A 
HETATM    9  C7  UNL     1      21.327   1.902  48.659  1.00  0.00     0.009 A 
HETATM   10  C8  UNL     1      21.256   0.718  49.644  1.00  0.00    -0.014 A 
HETATM   11  C9  UNL     1      20.808   1.923  49.770  1.00  0.00     0.056 A 
HETATM   12  C10 UNL     1      20.371   3.118  49.883  1.00  0.00     0.017 A 
HETATM   13  C11 UNL     1      19.559   3.129  51.168  1.00  0.00    -0.017 C 
HETATM   14  C12 UNL     1      18.859   2.128  51.854  1.00  0.00    -0.014 C 
HETATM   15  C13 UNL     1      19.108   0.635  51.542  1.00  0.00     0.100 C 
HETATM   16  C15 UNL     1      20.578   0.595  51.094  1.00  0.00    -0.037 C 
HETATM   17  C16 UNL     1      21.374   0.604  52.144  1.00  0.00     0.020 C 
HETATM   18  C17 UNL     1      21.108   0.487  53.581  1.00  0.00     0.098 C 
HETATM   19  C18 UNL     1      22.242  -0.376  54.122  1.00  0.00    -0.026 A 
HETATM   20  C19 UNL     1      22.264  -1.242  55.157  1.00  0.00     0.010 A 
HETATM   21  C20 UNL     1      23.587  -1.533  55.521  1.00  0.00     0.001 A 
HETATM   22  C21 UNL     1      24.699  -1.001  54.895  1.00  0.00     0.002 A 
HETATM   23  C22 UNL     1      24.530  -0.107  53.815  1.00  0.00     0.030 A 
HETATM   24  C23 UNL     1      23.227   0.216  53.406  1.00  0.00     0.041 A 
HETATM   25  N3  UNL     1      22.774   0.869  52.193  1.00  0.00    -0.349 N 
HETATM   26  C24 UNL     1      23.420   1.777  51.258  1.00  0.00     0.131 C 
HETATM   27  C25 UNL     1      24.839   2.119  51.494  1.00  0.00     0.055 C 
HETATM   28  H10 UNL     1      20.031   5.621  47.569  1.00  0.00     0.156 HD
ENDROOT
BRANCH   1  29
HETATM   29  N1  UNL     1      26.785   3.292  51.035  1.00  0.00     0.083 N 
HETATM   30  H1  UNL     1      26.931   4.268  51.443  1.00  0.00     0.313 HD
HETATM   31  H2  UNL     1      26.922   2.656  51.851  1.00  0.00     0.313 HD
ENDBRANCH   1  29
BRANCH  15  32
HETATM   32  C14 UNL     1      18.344   0.319  50.332  1.00  0.00     0.244 C 
HETATM   33  O2  UNL     1      17.342   0.186  49.594  1.00  0.00    -0.306 OA
ENDBRANCH  15  32
TORSDOF 3
ENDMDL
MODEL 4
REMARK VINA RESULT:      -9.4      2.419      5.366
REMARK  3 active torsions:
REMARK  status: ('A' for Active; 'I' for Inactive)
REMARK    1  A    between atoms: N1_1  and  C1_2 
REMARK    2  A    between atoms: C6_9  and  C9_12 
REMARK    3  A    between atoms: C13_16  and  C14_17 
ROOT
HETATM    1  C1  UNL     1      26.167   2.698  51.365  1.00  0.00     0.221 C 
HETATM    2  C2  UNL     1      26.515   3.100  50.021  1.00  0.00     0.061 C 
HETATM    3  C3  UNL     1      26.108   4.407  49.433  1.00  0.00     0.172 C 
HETATM    4  O1  UNL     1      24.859   4.740  49.096  1.00  0.00    -0.372 OA
HETATM    5  C4  UNL     1      24.728   6.071  48.627  1.00  0.00     0.285 C 
HETATM    6  N2  UNL     1      23.369   6.311  48.065  1.00  0.00    -0.389 N 
HETATM    7  C5  UNL     1      22.424   5.638  48.862  1.00  0.00     0.071 A 
HETATM    8  C6  UNL     1      22.839   4.382  48.232  1.00  0.00     0.036 A 
HETATM    9  C7  UNL     1      22.791   2.950  48.109  1.00  0.00     0.009 A 
HETATM   10  C8  UNL     1      22.002   1.865  48.869  1.00  0.00    -0.014 A 
HETATM   11  C9  UNL     1      22.003   3.147  49.027  1.00  0.00     0.056 A 
HETATM   12  C10 UNL     1      22.012   4.415  49.174  1.00  0.00     0.017 A 
HETATM   13  C11 UNL     1      20.908   4.713  50.176  1.00  0.00    -0.017 C 
HETATM   14  C12 UNL     1      19.722   4.043  50.503  1.00  0.00    -0.014 C 
HETATM   15  C13 UNL     1      19.500   2.576  50.075  1.00  0.00     0.100 C 
HETATM   16  C15 UNL     1      20.919   1.984  50.047  1.00  0.00    -0.037 C 
HETATM   17  C16 UNL     1      21.303   1.667  51.267  1.00  0.00     0.020 C 
HETATM   18  C17 UNL     1      20.588   1.633  52.546  1.00  0.00     0.098 C 
HETATM   19  C18 UNL     1      21.113   0.392  53.257  1.00  0.00    -0.026 A 
HETATM   20  C19 UNL     1      20.506  -0.436  54.134  1.00  0.00     0.010 A 
HETATM   21  C20 UNL     1      21.456  -1.219  54.804  1.00  0.00     0.001 A 
HETATM   22  C21 UNL     1      22.819  -1.142  54.585  1.00  0.00     0.002 A 
HETATM   23  C22 UNL     1      23.321  -0.232  53.630  1.00  0.00     0.030 A 
HETATM   24  C23 UNL     1      22.413   0.575  52.926  1.00  0.00     0.041 A 
HETATM   25  N3  UNL     1      22.618   1.374  51.734  1.00  0.00    -0.349 N 
HETATM   26  C24 UNL     1      23.799   1.982  51.142  1.00  0.00     0.131 C 
HETATM   27  C25 UNL     1      25.102   1.750  51.802  1.00  0.00     0.055 C 
HETATM   28  H10 UNL     1      23.319   6.901  47.212  1.00  0.00     0.156 HD
ENDROOT
BRANCH   1  29
HETATM   29  N1  UNL     1      27.380   2.096  52.057  1.00  0.00     0.083 N 
HETATM   30  H1  UNL     1      28.165   2.401  51.399  1.00  0.00     0.313 HD
HETATM   31  H2  UNL     1      27.547   2.654  52.922  1.00  0.00     0.313 HD
ENDBRANCH   1  29
BRANCH  15  32
HETATM   32  C14 UNL     1      19.081   2.599  48.670  1.00  0.00     0.244 C 
HETATM   33  O2  UNL     1      18.897   3.062  47.522  1.00  0.00    -0.306 OA
ENDBRANCH  15  32
TORSDOF 3
ENDMDL
MODEL 5
REMARK VINA RESULT:      -8.6      7.807     11.261
REMARK  3 active torsions:
REMARK  status: ('A' for Active; 'I' for Inactive)
REMARK    1  A    between atoms: N1_1  and  C1_2 
REMARK    2  A    between atoms: C6_9  and  C9_12 
REMARK    3  A    between atoms: C13_16  and  C14_17 
ROOT
HETATM    1  C1  UNL     1      26.452  11.366  47.656  1.00  0.00     0.221 C 
HETATM    2  C2  UNL     1      27.257  12.532  47.941  1.00  0.00     0.061 C 
HETATM    3  C3  UNL     1      28.343  13.009  47.041  1.00  0.00     0.172 C 
HETATM    4  O1  UNL     1      29.507  12.384  46.844  1.00  0.00    -0.372 OA
HETATM    5  C4  UNL     1      30.337  13.007  45.879  1.00  0.00     0.285 C 
HETATM    6  N2  UNL     1      31.697  12.397  45.865  1.00  0.00    -0.389 N 
HETATM    7  C5  UNL     1      31.570  11.006  46.045  1.00  0.00     0.071 A 
HETATM    8  C6  UNL     1      31.318  11.250  47.469  1.00  0.00     0.036 A 
HETATM    9  C7  UNL     1      30.975  10.798  48.790  1.00  0.00     0.009 A 
HETATM   10  C8  UNL     1      30.638   9.405  49.360  1.00  0.00    -0.014 A 
HETATM   11  C9  UNL     1      30.941   9.751  48.152  1.00  0.00     0.056 A 
HETATM   12  C10 UNL     1      31.241  10.105  46.963  1.00  0.00     0.017 A 
HETATM   13  C11 UNL     1      31.393   8.809  46.183  1.00  0.00    -0.017 C 
HETATM   14  C12 UNL     1      31.746   7.509  46.568  1.00  0.00    -0.014 C 
HETATM   15  C13 UNL     1      31.713   7.089  48.054  1.00  0.00     0.100 C 
HETATM   16  C15 UNL     1      30.600   7.963  48.657  1.00  0.00    -0.037 C 
HETATM   17  C16 UNL     1      29.420   7.443  48.389  1.00  0.00     0.020 C 
HETATM   18  C17 UNL     1      29.019   6.166  47.790  1.00  0.00     0.098 C 
HETATM   19  C18 UNL     1      27.793   5.728  48.582  1.00  0.00    -0.026 A 
HETATM   20  C19 UNL     1      27.339   4.492  48.879  1.00  0.00     0.010 A 
HETATM   21  C20 UNL     1      26.004   4.550  49.304  1.00  0.00     0.001 A 
HETATM   22  C21 UNL     1      25.272   5.719  49.401  1.00  0.00     0.002 A 
HETATM   23  C22 UNL     1      25.875   6.950  49.063  1.00  0.00     0.030 A 
HETATM   24  C23 UNL     1      27.212   6.950  48.635  1.00  0.00     0.041 A 
HETATM   25  N3  UNL     1      28.137   8.057  48.492  1.00  0.00    -0.349 N 
HETATM   26  C24 UNL     1      27.947   9.484  48.283  1.00  0.00     0.131 C 
HETATM   27  C25 UNL     1      26.561   9.999  48.242  1.00  0.00     0.055 C 
HETATM   28  H10 UNL     1      32.495  13.048  45.737  1.00  0.00     0.156 HD
ENDROOT
BRANCH   1  29
HETATM   29  N1  UNL     1      24.986  11.670  47.924  1.00  0.00     0.083 N 
HETATM   30  H1  UNL     1      24.564  10.689  47.902  1.00  0.00     0.313 HD
HETATM   31  H2  UNL     1      24.910  11.954  48.925  1.00  0.00     0.313 HD
ENDBRANCH   1  29
BRANCH  15  32
HETATM   32  C14 UNL     1      32.947   7.589  48.667  1.00  0.00     0.244 C 
HETATM   33  O2  UNL     1      34.070   8.138  48.732  1.00  0.00    -0.306 OA
ENDBRANCH  15  32
TORSDOF 3
ENDMDL
MODEL 6
REMARK VINA RESULT:      -8.5      2.365      5.965
REMARK  3 active torsions:
REMARK  status: ('A' for Active; 'I' for Inactive)
REMARK    1  A    between atoms: N1_1  and  C1_2 
REMARK    2  A    between atoms: C6_9  and  C9_12 
REMARK    3  A    between atoms: C13_16  and  C14_17 
ROOT
HETATM    1  C1  UNL     1      24.293   1.076  52.770  1.00  0.00     0.221 C 
HETATM    2  C2  UNL     1      25.310   1.369  51.785  1.00  0.00     0.061 C 
HETATM    3  C3  UNL     1      25.565   2.741  51.263  1.00  0.00     0.172 C 
HETATM    4  O1  UNL     1      24.741   3.421  50.461  1.00  0.00    -0.372 OA
HETATM    5  C4  UNL     1      25.182   4.737  50.170  1.00  0.00     0.285 C 
HETATM    6  N2  UNL     1      24.346   5.361  49.107  1.00  0.00    -0.389 N 
HETATM    7  C5  UNL     1      23.004   4.984  49.307  1.00  0.00     0.071 A 
HETATM    8  C6  UNL     1      23.330   3.665  48.758  1.00  0.00     0.036 A 
HETATM    9  C7  UNL     1      22.984   2.308  48.430  1.00  0.00     0.009 A 
HETATM   10  C8  UNL     1      21.688   1.491  48.609  1.00  0.00    -0.014 A 
HETATM   11  C9  UNL     1      21.940   2.718  48.926  1.00  0.00     0.056 A 
HETATM   12  C10 UNL     1      22.202   3.929  49.235  1.00  0.00     0.017 A 
HETATM   13  C11 UNL     1      20.876   4.526  49.680  1.00  0.00    -0.017 C 
HETATM   14  C12 UNL     1      19.546   4.224  49.357  1.00  0.00    -0.014 C 
HETATM   15  C13 UNL     1      19.183   2.885  48.678  1.00  0.00     0.100 C 
HETATM   16  C15 UNL     1      20.254   1.910  49.195  1.00  0.00    -0.037 C 
HETATM   17  C16 UNL     1      19.939   1.489  50.403  1.00  0.00     0.020 C 
HETATM   18  C17 UNL     1      18.733   1.655  51.220  1.00  0.00     0.098 C 
HETATM   19  C18 UNL     1      18.538   0.310  51.911  1.00  0.00    -0.026 A 
HETATM   20  C19 UNL     1      17.409  -0.313  52.308  1.00  0.00     0.010 A 
HETATM   21  C20 UNL     1      17.710  -1.340  53.213  1.00  0.00     0.001 A 
HETATM   22  C21 UNL     1      18.991  -1.657  53.629  1.00  0.00     0.002 A 
HETATM   23  C22 UNL     1      20.088  -0.924  53.127  1.00  0.00     0.030 A 
HETATM   24  C23 UNL     1      19.844   0.114  52.213  1.00  0.00     0.041 A 
HETATM   25  N3  UNL     1      20.769   0.827  51.355  1.00  0.00    -0.349 N 
HETATM   26  C24 UNL     1      22.201   1.073  51.432  1.00  0.00     0.131 C 
HETATM   27  C25 UNL     1      22.947   0.472  52.559  1.00  0.00     0.055 C 
HETATM   28  H10 UNL     1      24.845   5.945  48.409  1.00  0.00     0.156 HD
ENDROOT
BRANCH   1  29
HETATM   29  N1  UNL     1      24.855   0.146  53.834  1.00  0.00     0.083 N 
HETATM   30  H1  UNL     1      23.978  -0.063  54.408  1.00  0.00     0.313 HD
HETATM   31  H2  UNL     1      25.070  -0.761  53.365  1.00  0.00     0.313 HD
ENDBRANCH   1  29
BRANCH  15  32
HETATM   32  C14 UNL     1      19.480   3.036  47.250  1.00  0.00     0.244 C 
HETATM   33  O2  UNL     1      19.321   3.407  46.065  1.00  0.00    -0.306 OA
ENDBRANCH  15  32
TORSDOF 3
ENDMDL
MODEL 7
REMARK VINA RESULT:      -8.4      8.878     12.340
REMARK  3 active torsions:
REMARK  status: ('A' for Active; 'I' for Inactive)
REMARK    1  A    between atoms: N1_1  and  C1_2 
REMARK    2  A    between atoms: C6_9  and  C9_12 
REMARK    3  A    between atoms: C13_16  and  C14_17 
ROOT
HETATM    1  C1  UNL     1      30.100  10.966  46.641  1.00  0.00     0.221 C 
HETATM    2  C2  UNL     1      31.376  11.621  46.818  1.00  0.00     0.061 C 
HETATM    3  C3  UNL     1      32.544  11.382  45.925  1.00  0.00     0.172 C 
HETATM    4  O1  UNL     1      33.252  10.251  45.875  1.00  0.00    -0.372 OA
HETATM    5  C4  UNL     1      34.266  10.253  44.885  1.00  0.00     0.285 C 
HETATM    6  N2  UNL     1      35.155   9.065  45.024  1.00  0.00    -0.389 N 
HETATM    7  C5  UNL     1      34.369   7.950  45.374  1.00  0.00     0.071 A 
HETATM    8  C6  UNL     1      34.288   8.480  46.739  1.00  0.00     0.036 A 
HETATM    9  C7  UNL     1      33.788   8.440  48.086  1.00  0.00     0.009 A 
HETATM   10  C8  UNL     1      32.822   7.479  48.810  1.00  0.00    -0.014 A 
HETATM   11  C9  UNL     1      33.238   7.463  47.587  1.00  0.00     0.056 A 
HETATM   12  C10 UNL     1      33.656   7.459  46.380  1.00  0.00     0.017 A 
HETATM   13  C11 UNL     1      33.145   6.158  45.783  1.00  0.00    -0.017 C 
HETATM   14  C12 UNL     1      32.825   4.917  46.350  1.00  0.00    -0.014 C 
HETATM   15  C13 UNL     1      32.613   4.777  47.873  1.00  0.00     0.100 C 
HETATM   16  C15 UNL     1      32.076   6.154  48.296  1.00  0.00    -0.037 C 
HETATM   17  C16 UNL     1      30.788   6.241  48.032  1.00  0.00     0.020 C 
HETATM   18  C17 UNL     1      29.807   5.249  47.581  1.00  0.00     0.098 C 
HETATM   19  C18 UNL     1      28.535   5.575  48.354  1.00  0.00    -0.026 A 
HETATM   20  C19 UNL     1      27.540   4.769  48.781  1.00  0.00     0.010 A 
HETATM   21  C20 UNL     1      26.410   5.525  49.121  1.00  0.00     0.001 A 
HETATM   22  C21 UNL     1      26.342   6.903  49.027  1.00  0.00     0.002 A 
HETATM   23  C22 UNL     1      27.463   7.627  48.568  1.00  0.00     0.030 A 
HETATM   24  C23 UNL     1      28.624   6.919  48.218  1.00  0.00     0.041 A 
HETATM   25  N3  UNL     1      29.969   7.407  47.985  1.00  0.00    -0.349 N 
HETATM   26  C24 UNL     1      30.496   8.703  47.586  1.00  0.00     0.131 C 
HETATM   27  C25 UNL     1      29.537   9.814  47.402  1.00  0.00     0.055 C 
HETATM   28  H10 UNL     1      36.168   9.223  44.859  1.00  0.00     0.156 HD
ENDROOT
BRANCH   1  29
HETATM   29  N1  UNL     1      28.973  11.976  46.787  1.00  0.00     0.083 N 
HETATM   30  H1  UNL     1      29.461  12.875  46.477  1.00  0.00     0.313 HD
HETATM   31  H2  UNL     1      28.290  11.785  46.021  1.00  0.00     0.313 HD
ENDBRANCH   1  29
BRANCH  15  32
HETATM   32  C14 UNL     1      33.943   4.695  48.484  1.00  0.00     0.244 C 
HETATM   33  O2  UNL     1      35.192   4.739  48.554  1.00  0.00    -0.306 OA
ENDBRANCH  15  32
TORSDOF 3
ENDMDL
MODEL 8
REMARK VINA RESULT:      -8.4      3.175      6.218
REMARK  3 active torsions:
REMARK  status: ('A' for Active; 'I' for Inactive)
REMARK    1  A    between atoms: N1_1  and  C1_2 
REMARK    2  A    between atoms: C6_9  and  C9_12 
REMARK    3  A    between atoms: C13_16  and  C14_17 
ROOT
HETATM    1  C1  UNL     1      26.771   6.639  48.934  1.00  0.00     0.221 C 
HETATM    2  C2  UNL     1      26.331   7.346  47.753  1.00  0.00     0.061 C 
HETATM    3  C3  UNL     1      25.269   8.390  47.780  1.00  0.00     0.172 C 
HETATM    4  O1  UNL     1      23.971   8.159  47.996  1.00  0.00    -0.372 OA
HETATM    5  C4  UNL     1      23.180   9.334  48.046  1.00  0.00     0.285 C 
HETATM    6  N2  UNL     1      21.727   9.002  48.069  1.00  0.00    -0.389 N 
HETATM    7  C5  UNL     1      21.535   7.863  48.873  1.00  0.00     0.071 A 
HETATM    8  C6  UNL     1      22.057   7.044  47.776  1.00  0.00     0.036 A 
HETATM    9  C7  UNL     1      22.480   5.784  47.225  1.00  0.00     0.009 A 
HETATM   10  C8  UNL     1      22.549   4.361  47.815  1.00  0.00    -0.014 A 
HETATM   11  C9  UNL     1      22.156   5.462  48.364  1.00  0.00     0.056 A 
HETATM   12  C10 UNL     1      21.771   6.557  48.895  1.00  0.00     0.017 A 
HETATM   13  C11 UNL     1      21.187   6.166  50.243  1.00  0.00    -0.017 C 
HETATM   14  C12 UNL     1      20.590   4.987  50.710  1.00  0.00    -0.014 C 
HETATM   15  C13 UNL     1      20.749   3.661  49.935  1.00  0.00     0.100 C 
HETATM   16  C15 UNL     1      22.122   3.797  49.255  1.00  0.00    -0.037 C 
HETATM   17  C16 UNL     1      23.083   3.518  50.113  1.00  0.00     0.020 C 
HETATM   18  C17 UNL     1      23.060   2.976  51.475  1.00  0.00     0.098 C 
HETATM   19  C18 UNL     1      24.249   2.024  51.539  1.00  0.00    -0.026 A 
HETATM   20  C19 UNL     1      24.426   0.893  52.253  1.00  0.00     0.010 A 
HETATM   21  C20 UNL     1      25.784   0.545  52.289  1.00  0.00     0.001 A 
HETATM   22  C21 UNL     1      26.787   1.270  51.671  1.00  0.00     0.002 A 
HETATM   23  C22 UNL     1      26.459   2.437  50.947  1.00  0.00     0.030 A 
HETATM   24  C23 UNL     1      25.113   2.829  50.876  1.00  0.00     0.041 A 
HETATM   25  N3  UNL     1      24.477   3.797  50.004  1.00  0.00    -0.349 N 
HETATM   26  C24 UNL     1      24.977   4.958  49.284  1.00  0.00     0.131 C 
HETATM   27  C25 UNL     1      26.423   5.256  49.370  1.00  0.00     0.055 C 
HETATM   28  H10 UNL     1      21.103   9.620  47.515  1.00  0.00     0.156 HD
ENDROOT
BRANCH   1  29
HETATM   29  N1  UNL     1      28.290   6.567  48.959  1.00  0.00     0.083 N 
HETATM   30  H1  UNL     1      28.548   7.558  48.654  1.00  0.00     0.313 HD
HETATM   31  H2  UNL     1      28.578   6.530  49.961  1.00  0.00     0.313 HD
ENDBRANCH   1  29
BRANCH  15  32
HETATM   32  C14 UNL     1      19.786   3.693  48.830  1.00  0.00     0.244 C 
HETATM   33  O2  UNL     1      18.871   4.139  48.102  1.00  0.00    -0.306 OA
ENDBRANCH  15  32
TORSDOF 3
ENDMDL
MODEL 9
REMARK VINA RESULT:      -8.2      7.103     10.592
REMARK  3 active torsions:
REMARK  status: ('A' for Active; 'I' for Inactive)
REMARK    1  A    between atoms: N1_1  and  C1_2 
REMARK    2  A    between atoms: C6_9  and  C9_12 
REMARK    3  A    between atoms: C13_16  and  C14_17 
ROOT
HETATM    1  C1  UNL     1      31.761   6.399  48.560  1.00  0.00     0.221 C 
HETATM    2  C2  UNL     1      32.608   7.020  47.567  1.00  0.00     0.061 C 
HETATM    3  C3  UNL     1      32.885   8.483  47.535  1.00  0.00     0.172 C 
HETATM    4  O1  UNL     1      31.995   9.425  47.212  1.00  0.00    -0.372 OA
HETATM    5  C4  UNL     1      32.491  10.747  47.333  1.00  0.00     0.285 C 
HETATM    6  N2  UNL     1      31.536  11.734  46.754  1.00  0.00    -0.389 N 
HETATM    7  C5  UNL     1      30.224  11.331  47.066  1.00  0.00     0.071 A 
HETATM    8  C6  UNL     1      30.331  10.304  46.025  1.00  0.00     0.036 A 
HETATM    9  C7  UNL     1      29.814   9.171  45.306  1.00  0.00     0.009 A 
HETATM   10  C8  UNL     1      28.504   8.366  45.431  1.00  0.00    -0.014 A 
HETATM   11  C9  UNL     1      28.915   9.385  46.112  1.00  0.00     0.056 A 
HETATM   12  C10 UNL     1      29.332  10.391  46.778  1.00  0.00     0.017 A 
HETATM   13  C11 UNL     1      28.164  10.801  47.661  1.00  0.00    -0.017 C 
HETATM   14  C12 UNL     1      26.777  10.662  47.520  1.00  0.00    -0.014 C 
HETATM   15  C13 UNL     1      26.183   9.676  46.490  1.00  0.00     0.100 C 
HETATM   16  C15 UNL     1      27.239   8.562  46.399  1.00  0.00    -0.037 C 
HETATM   17  C16 UNL     1      27.108   7.728  47.411  1.00  0.00     0.020 C 
HETATM   18  C17 UNL     1      26.086   7.598  48.454  1.00  0.00     0.098 C 
HETATM   19  C18 UNL     1      25.900   6.097  48.638  1.00  0.00    -0.026 A 
HETATM   20  C19 UNL     1      24.809   5.389  48.999  1.00  0.00     0.010 A 
HETATM   21  C20 UNL     1      25.176   4.095  49.395  1.00  0.00     0.001 A 
HETATM   22  C21 UNL     1      26.477   3.627  49.406  1.00  0.00     0.002 A 
HETATM   23  C22 UNL     1      27.527   4.476  48.996  1.00  0.00     0.030 A 
HETATM   24  C23 UNL     1      27.216   5.782  48.585  1.00  0.00     0.041 A 
HETATM   25  N3  UNL     1      28.033   6.747  47.877  1.00  0.00    -0.349 N 
HETATM   26  C24 UNL     1      29.472   6.925  47.753  1.00  0.00     0.131 C 
HETATM   27  C25 UNL     1      30.351   5.937  48.417  1.00  0.00     0.055 C 
HETATM   28  H10 UNL     1      31.953  12.527  46.229  1.00  0.00     0.156 HD
ENDROOT
BRANCH   1  29
HETATM   29  N1  UNL     1      32.419   5.132  49.085  1.00  0.00     0.083 N 
HETATM   30  H1  UNL     1      33.187   5.541  49.705  1.00  0.00     0.313 HD
HETATM   31  H2  UNL     1      31.753   4.700  49.762  1.00  0.00     0.313 HD
ENDBRANCH   1  29
BRANCH  15  32
HETATM   32  C14 UNL     1      26.234  10.340  45.184  1.00  0.00     0.244 C 
HETATM   33  O2  UNL     1      26.449  11.251  44.354  1.00  0.00    -0.306 OA
ENDBRANCH  15  32
TORSDOF 3
ENDMDL
