MODEL 1
REMARK VINA RESULT:      -7.9      0.000      0.000
REMARK  5 active torsions:
REMARK  status: ('A' for Active; 'I' for Inactive)
REMARK    1  A    between atoms: C2_2  and  C4_4 
REMARK    2  A    between atoms: C6_6  and  C7_7 
REMARK    3  A    between atoms: C7_7  and  C9_10 
REMARK       I    between atoms: C9_10  and  N2_11 
REMARK    4  A    between atoms: C11_14  and  C12_15 
REMARK    5  A    between atoms: C16_19  and  O2_20 
ROOT
HETATM    1  C7  UNL     1      27.070   0.087  52.842  1.00  0.00     0.217 C 
HETATM    2  C8  UNL     1      27.253  -1.366  52.853  1.00  0.00     0.078 C 
HETATM    3  N1  UNL     1      27.409  -2.508  52.878  1.00  0.00    -0.196 NA
ENDROOT
BRANCH   1   4
HETATM    4  C6  UNL     1      25.629   0.382  52.740  1.00  0.00    -0.030 A 
HETATM    5  C5  UNL     1      24.755  -0.240  53.600  1.00  0.00     0.019 A 
HETATM    6  C4  UNL     1      23.396  -0.024  53.577  1.00  0.00    -0.020 A 
HETATM    7  C16 UNL     1      22.931   0.865  52.631  1.00  0.00     0.079 A 
HETATM    8  C11 UNL     1      23.724   1.532  51.732  1.00  0.00    -0.016 A 
HETATM    9  C10 UNL     1      25.071   1.261  51.821  1.00  0.00     0.019 A 
BRANCH   6  10
HETATM   10  C2  UNL     1      22.544  -0.748  54.548  1.00  0.00     0.013 C 
HETATM   11  C1  UNL     1      23.419  -1.333  55.631  1.00  0.00     0.015 C 
HETATM   12  C3  UNL     1      21.689  -1.815  53.949  1.00  0.00     0.015 C 
ENDBRANCH   6  10
BRANCH   7  13
HETATM   13  O2  UNL     1      21.563   1.087  52.601  1.00  0.00    -0.360 OA
HETATM   14  H22 UNL     1      21.167   2.029  52.712  1.00  0.00     0.217 HD
ENDBRANCH   7  13
BRANCH   8  15
HETATM   15  C12 UNL     1      23.147   2.467  50.752  1.00  0.00    -0.021 C 
HETATM   16  C13 UNL     1      24.287   3.058  49.960  1.00  0.00     0.019 C 
HETATM   17  C14 UNL     1      22.476   3.590  51.525  1.00  0.00     0.019 C 
HETATM   18  C15 UNL     1      22.171   1.823  49.812  1.00  0.00     0.019 C 
ENDBRANCH   8  15
ENDBRANCH   1   4
BRANCH   1  19
HETATM   19  C9  UNL     1      27.732   0.730  53.996  1.00  0.00     0.237 C 
HETATM   20  N2  UNL     1      28.260  -0.150  54.984  1.00  0.00    -0.369 N 
HETATM   21  H10 UNL     1      28.203   0.107  56.009  1.00  0.00     0.159 HD
HETATM   22  H11 UNL     1      28.742  -1.069  55.079  1.00  0.00     0.159 HD
HETATM   23  O1  UNL     1      27.900   1.959  54.235  1.00  0.00    -0.272 OA
ENDBRANCH   1  19
TORSDOF 5
ENDMDL
MODEL 2
REMARK VINA RESULT:      -7.8      0.611      3.769
REMARK  5 active torsions:
REMARK  status: ('A' for Active; 'I' for Inactive)
REMARK    1  A    between atoms: C2_2  and  C4_4 
REMARK    2  A    between atoms: C6_6  and  C7_7 
REMARK    3  A    between atoms: C7_7  and  C9_10 
REMARK       I    between atoms: C9_10  and  N2_11 
REMARK    4  A    between atoms: C11_14  and  C12_15 
REMARK    5  A    between atoms: C16_19  and  O2_20 
ROOT
HETATM    1  C7  UNL     1      26.997   0.143  52.842  1.00  0.00     0.217 C 
HETATM    2  C8  UNL     1      27.173  -1.310  52.810  1.00  0.00     0.078 C 
HETATM    3  N1  UNL     1      27.325  -2.452  52.800  1.00  0.00    -0.196 NA
ENDROOT
BRANCH   1   4
HETATM    4  C6  UNL     1      25.554   0.446  52.815  1.00  0.00    -0.030 A 
HETATM    5  C5  UNL     1      25.101   1.479  52.030  1.00  0.00     0.019 A 
HETATM    6  C4  UNL     1      23.772   1.831  51.943  1.00  0.00    -0.020 A 
HETATM    7  C16 UNL     1      22.890   1.087  52.697  1.00  0.00     0.079 A 
HETATM    8  C11 UNL     1      23.248   0.041  53.509  1.00  0.00    -0.016 A 
HETATM    9  C10 UNL     1      24.593  -0.247  53.540  1.00  0.00     0.019 A 
BRANCH   6  10
HETATM   10  C2  UNL     1      23.392   2.961  51.066  1.00  0.00     0.013 C 
HETATM   11  C1  UNL     1      24.300   2.977  49.859  1.00  0.00     0.015 C 
HETATM   12  C3  UNL     1      23.407   4.296  51.733  1.00  0.00     0.015 C 
ENDBRANCH   6  10
BRANCH   7  13
HETATM   13  O2  UNL     1      21.551   1.435  52.615  1.00  0.00    -0.360 OA
HETATM   14  H22 UNL     1      21.213   2.357  52.922  1.00  0.00     0.217 HD
ENDBRANCH   7  13
BRANCH   8  15
HETATM   15  C12 UNL     1      22.240  -0.704  54.282  1.00  0.00    -0.021 C 
HETATM   16  C13 UNL     1      22.953  -1.380  55.428  1.00  0.00     0.019 C 
HETATM   17  C14 UNL     1      21.669  -1.783  53.378  1.00  0.00     0.019 C 
HETATM   18  C15 UNL     1      21.140   0.161  54.824  1.00  0.00     0.019 C 
ENDBRANCH   8  15
ENDBRANCH   1   4
BRANCH   1  19
HETATM   19  C9  UNL     1      27.715   0.755  53.980  1.00  0.00     0.237 C 
HETATM   20  N2  UNL     1      28.231  -0.148  54.952  1.00  0.00    -0.369 N 
HETATM   21  H10 UNL     1      28.211   0.109  55.979  1.00  0.00     0.159 HD
HETATM   22  H11 UNL     1      28.677  -1.086  55.034  1.00  0.00     0.159 HD
HETATM   23  O1  UNL     1      27.941   1.975  54.216  1.00  0.00    -0.272 OA
ENDBRANCH   1  19
TORSDOF 5
ENDMDL
MODEL 3
REMARK VINA RESULT:      -7.5      1.260      1.454
REMARK  5 active torsions:
REMARK  status: ('A' for Active; 'I' for Inactive)
REMARK    1  A    between atoms: C2_2  and  C4_4 
REMARK    2  A    between atoms: C6_6  and  C7_7 
REMARK    3  A    between atoms: C7_7  and  C9_10 
REMARK       I    between atoms: C9_10  and  N2_11 
REMARK    4  A    between atoms: C11_14  and  C12_15 
REMARK    5  A    between atoms: C16_19  and  O2_20 
ROOT
HETATM    1  C7  UNL     1      26.560   0.691  52.743  1.00  0.00     0.217 C 
HETATM    2  C8  UNL     1      26.942   0.041  53.998  1.00  0.00     0.078 C 
HETATM    3  N1  UNL     1      27.255  -0.456  54.990  1.00  0.00    -0.196 NA
ENDROOT
BRANCH   1   4
HETATM    4  C6  UNL     1      25.089   0.698  52.642  1.00  0.00    -0.030 A 
HETATM    5  C5  UNL     1      24.349   0.019  53.580  1.00  0.00     0.019 A 
HETATM    6  C4  UNL     1      22.973  -0.028  53.564  1.00  0.00    -0.020 A 
HETATM    7  C16 UNL     1      22.348   0.651  52.539  1.00  0.00     0.079 A 
HETATM    8  C11 UNL     1      23.000   1.355  51.559  1.00  0.00    -0.016 A 
HETATM    9  C10 UNL     1      24.374   1.353  51.647  1.00  0.00     0.019 A 
BRANCH   6  10
HETATM   10  C2  UNL     1      22.275  -0.790  54.624  1.00  0.00     0.013 C 
HETATM   11  C1  UNL     1      23.294  -1.314  55.607  1.00  0.00     0.015 C 
HETATM   12  C3  UNL     1      21.424  -1.910  54.124  1.00  0.00     0.015 C 
ENDBRANCH   6  10
BRANCH   7  13
HETATM   13  O2  UNL     1      20.963   0.609  52.516  1.00  0.00    -0.360 OA
HETATM   14  H22 UNL     1      20.421   1.097  51.792  1.00  0.00     0.217 HD
ENDBRANCH   7  13
BRANCH   8  15
HETATM   15  C12 UNL     1      22.256   2.054  50.499  1.00  0.00    -0.021 C 
HETATM   16  C13 UNL     1      23.264   2.743  49.612  1.00  0.00     0.019 C 
HETATM   17  C14 UNL     1      21.402   3.122  51.161  1.00  0.00     0.019 C 
HETATM   18  C15 UNL     1      21.402   1.145  49.665  1.00  0.00     0.019 C 
ENDBRANCH   8  15
ENDBRANCH   1   4
BRANCH   1  19
HETATM   19  C9  UNL     1      27.175   2.029  52.612  1.00  0.00     0.237 C 
HETATM   20  N2  UNL     1      27.561   2.661  53.828  1.00  0.00    -0.369 N 
HETATM   21  H10 UNL     1      27.443   3.706  53.944  1.00  0.00     0.159 HD
HETATM   22  H11 UNL     1      27.968   2.445  54.763  1.00  0.00     0.159 HD
HETATM   23  O1  UNL     1      27.410   2.699  51.568  1.00  0.00    -0.272 OA
ENDBRANCH   1  19
TORSDOF 5
ENDMDL
MODEL 4
REMARK VINA RESULT:      -7.2      2.986      4.961
REMARK  5 active torsions:
REMARK  status: ('A' for Active; 'I' for Inactive)
REMARK    1  A    between atoms: C2_2  and  C4_4 
REMARK    2  A    between atoms: C6_6  and  C7_7 
REMARK    3  A    between atoms: C7_7  and  C9_10 
REMARK       I    between atoms: C9_10  and  N2_11 
REMARK    4  A    between atoms: C11_14  and  C12_15 
REMARK    5  A    between atoms: C16_19  and  O2_20 
ROOT
HETATM    1  C7  UNL     1      24.748   3.704  50.192  1.00  0.00     0.217 C 
HETATM    2  C8  UNL     1      26.092   3.759  49.613  1.00  0.00     0.078 C 
HETATM    3  N1  UNL     1      27.150   3.822  49.161  1.00  0.00    -0.196 NA
ENDROOT
BRANCH   1   4
HETATM    4  C6  UNL     1      24.674   2.549  51.106  1.00  0.00    -0.030 A 
HETATM    5  C5  UNL     1      23.466   1.922  51.297  1.00  0.00     0.019 A 
HETATM    6  C4  UNL     1      23.304   0.838  52.131  1.00  0.00    -0.020 A 
HETATM    7  C16 UNL     1      24.433   0.393  52.786  1.00  0.00     0.079 A 
HETATM    8  C11 UNL     1      25.679   0.954  52.659  1.00  0.00    -0.016 A 
HETATM    9  C10 UNL     1      25.756   2.032  51.808  1.00  0.00     0.019 A 
BRANCH   6  10
HETATM   10  C2  UNL     1      21.957   0.238  52.265  1.00  0.00     0.013 C 
HETATM   11  C1  UNL     1      21.234   0.349  50.944  1.00  0.00     0.015 C 
HETATM   12  C3  UNL     1      21.123   0.824  53.355  1.00  0.00     0.015 C 
ENDBRANCH   6  10
BRANCH   7  13
HETATM   13  O2  UNL     1      24.279  -0.697  53.627  1.00  0.00    -0.360 OA
HETATM   14  H22 UNL     1      23.984  -0.587  54.605  1.00  0.00     0.217 HD
ENDBRANCH   7  13
BRANCH   8  15
HETATM   15  C12 UNL     1      26.835   0.417  53.395  1.00  0.00    -0.021 C 
HETATM   16  C13 UNL     1      28.004   1.338  53.142  1.00  0.00     0.019 C 
HETATM   17  C14 UNL     1      27.169  -0.942  52.804  1.00  0.00     0.019 C 
HETATM   18  C15 UNL     1      26.605   0.303  54.873  1.00  0.00     0.019 C 
ENDBRANCH   8  15
ENDBRANCH   1   4
BRANCH   1  19
HETATM   19  C9  UNL     1      24.370   4.988  50.819  1.00  0.00     0.237 C 
HETATM   20  N2  UNL     1      25.334   6.032  50.735  1.00  0.00    -0.369 N 
HETATM   21  H10 UNL     1      25.470   6.696  51.548  1.00  0.00     0.159 HD
HETATM   22  H11 UNL     1      26.045   6.432  50.086  1.00  0.00     0.159 HD
HETATM   23  O1  UNL     1      23.304   5.297  51.422  1.00  0.00    -0.272 OA
ENDBRANCH   1  19
TORSDOF 5
ENDMDL
MODEL 5
REMARK VINA RESULT:      -7.2      1.980      4.202
REMARK  5 active torsions:
REMARK  status: ('A' for Active; 'I' for Inactive)
REMARK    1  A    between atoms: C2_2  and  C4_4 
REMARK    2  A    between atoms: C6_6  and  C7_7 
REMARK    3  A    between atoms: C7_7  and  C9_10 
REMARK       I    between atoms: C9_10  and  N2_11 
REMARK    4  A    between atoms: C11_14  and  C12_15 
REMARK    5  A    between atoms: C16_19  and  O2_20 
ROOT
HETATM    1  C7  UNL     1      26.962   0.776  52.512  1.00  0.00     0.217 C 
HETATM    2  C8  UNL     1      26.404  -0.208  53.442  1.00  0.00     0.078 C 
HETATM    3  N1  UNL     1      25.977  -0.975  54.189  1.00  0.00    -0.196 NA
ENDROOT
BRANCH   1   4
HETATM    4  C6  UNL     1      25.852   1.445  51.809  1.00  0.00    -0.030 A 
HETATM    5  C5  UNL     1      26.124   2.516  50.992  1.00  0.00     0.019 A 
HETATM    6  C4  UNL     1      25.151   3.199  50.297  1.00  0.00    -0.020 A 
HETATM    7  C16 UNL     1      23.856   2.756  50.459  1.00  0.00     0.079 A 
HETATM    8  C11 UNL     1      23.487   1.699  51.252  1.00  0.00    -0.016 A 
HETATM    9  C10 UNL     1      24.518   1.069  51.911  1.00  0.00     0.019 A 
BRANCH   6  10
HETATM   10  C2  UNL     1      25.555   4.340  49.444  1.00  0.00     0.013 C 
HETATM   11  C1  UNL     1      27.019   4.203  49.098  1.00  0.00     0.015 C 
HETATM   12  C3  UNL     1      25.294   5.683  50.040  1.00  0.00     0.015 C 
ENDBRANCH   6  10
BRANCH   7  13
HETATM   13  O2  UNL     1      22.870   3.439  49.763  1.00  0.00    -0.360 OA
HETATM   14  H22 UNL     1      22.396   3.022  48.952  1.00  0.00     0.217 HD
ENDBRANCH   7  13
BRANCH   8  15
HETATM   15  C12 UNL     1      22.078   1.289  51.369  1.00  0.00    -0.021 C 
HETATM   16  C13 UNL     1      21.328   2.420  52.029  1.00  0.00     0.019 C 
HETATM   17  C14 UNL     1      22.023   0.084  52.293  1.00  0.00     0.019 C 
HETATM   18  C15 UNL     1      21.434   0.969  50.052  1.00  0.00     0.019 C 
ENDBRANCH   8  15
ENDBRANCH   1   4
BRANCH   1  19
HETATM   19  C9  UNL     1      27.887   1.707  53.192  1.00  0.00     0.237 C 
HETATM   20  N2  UNL     1      27.297   2.599  54.132  1.00  0.00    -0.369 N 
HETATM   21  H10 UNL     1      27.652   3.592  54.217  1.00  0.00     0.159 HD
HETATM   22  H11 UNL     1      26.551   2.637  54.859  1.00  0.00     0.159 HD
HETATM   23  O1  UNL     1      29.137   1.827  53.059  1.00  0.00    -0.272 OA
ENDBRANCH   1  19
TORSDOF 5
ENDMDL
MODEL 6
REMARK VINA RESULT:      -7.2      2.909      4.592
REMARK  5 active torsions:
REMARK  status: ('A' for Active; 'I' for Inactive)
REMARK    1  A    between atoms: C2_2  and  C4_4 
REMARK    2  A    between atoms: C6_6  and  C7_7 
REMARK    3  A    between atoms: C7_7  and  C9_10 
REMARK       I    between atoms: C9_10  and  N2_11 
REMARK    4  A    between atoms: C11_14  and  C12_15 
REMARK    5  A    between atoms: C16_19  and  O2_20 
ROOT
HETATM    1  C7  UNL     1      21.906  -0.582  53.012  1.00  0.00     0.217 C 
HETATM    2  C8  UNL     1      20.715  -0.130  52.289  1.00  0.00     0.078 C 
HETATM    3  N1  UNL     1      19.767   0.224  51.737  1.00  0.00    -0.196 NA
ENDROOT
BRANCH   1   4
HETATM    4  C6  UNL     1      23.036   0.296  52.656  1.00  0.00    -0.030 A 
HETATM    5  C5  UNL     1      24.285   0.017  53.158  1.00  0.00     0.019 A 
HETATM    6  C4  UNL     1      25.396   0.781  52.878  1.00  0.00    -0.020 A 
HETATM    7  C16 UNL     1      25.202   1.868  52.053  1.00  0.00     0.079 A 
HETATM    8  C11 UNL     1      23.996   2.226  51.506  1.00  0.00    -0.016 A 
HETATM    9  C10 UNL     1      22.936   1.411  51.834  1.00  0.00     0.019 A 
BRANCH   6  10
HETATM   10  C2  UNL     1      26.695   0.391  53.472  1.00  0.00     0.013 C 
HETATM   11  C1  UNL     1      27.167  -0.892  52.829  1.00  0.00     0.015 C 
HETATM   12  C3  UNL     1      26.678   0.241  54.957  1.00  0.00     0.015 C 
ENDBRANCH   6  10
BRANCH   7  13
HETATM   13  O2  UNL     1      26.316   2.642  51.767  1.00  0.00    -0.360 OA
HETATM   14  H22 UNL     1      26.601   3.421  52.374  1.00  0.00     0.217 HD
ENDBRANCH   7  13
BRANCH   8  15
HETATM   15  C12 UNL     1      23.874   3.404  50.632  1.00  0.00    -0.021 C 
HETATM   16  C13 UNL     1      23.962   4.631  51.507  1.00  0.00     0.019 C 
HETATM   17  C14 UNL     1      22.493   3.372  50.002  1.00  0.00     0.019 C 
HETATM   18  C15 UNL     1      24.932   3.476  49.571  1.00  0.00     0.019 C 
ENDBRANCH   8  15
ENDBRANCH   1   4
BRANCH   1  19
HETATM   19  C9  UNL     1      21.658  -0.678  54.465  1.00  0.00     0.237 C 
HETATM   20  N2  UNL     1      20.679   0.210  54.993  1.00  0.00    -0.369 N 
HETATM   21  H10 UNL     1      20.816   0.647  55.947  1.00  0.00     0.159 HD
HETATM   22  H11 UNL     1      19.760   0.641  54.755  1.00  0.00     0.159 HD
HETATM   23  O1  UNL     1      22.194  -1.443  55.316  1.00  0.00    -0.272 OA
ENDBRANCH   1  19
TORSDOF 5
ENDMDL
MODEL 7
REMARK VINA RESULT:      -7.2      2.920      5.625
REMARK  5 active torsions:
REMARK  status: ('A' for Active; 'I' for Inactive)
REMARK    1  A    between atoms: C2_2  and  C4_4 
REMARK    2  A    between atoms: C6_6  and  C7_7 
REMARK    3  A    between atoms: C7_7  and  C9_10 
REMARK       I    between atoms: C9_10  and  N2_11 
REMARK    4  A    between atoms: C11_14  and  C12_15 
REMARK    5  A    between atoms: C16_19  and  O2_20 
ROOT
HETATM    1  C7  UNL     1      21.812  -0.487  52.969  1.00  0.00     0.217 C 
HETATM    2  C8  UNL     1      20.754   0.154  52.184  1.00  0.00     0.078 C 
HETATM    3  N1  UNL     1      19.910   0.656  51.582  1.00  0.00    -0.196 NA
ENDROOT
BRANCH   1   4
HETATM    4  C6  UNL     1      23.026   0.346  52.895  1.00  0.00    -0.030 A 
HETATM    5  C5  UNL     1      22.914   1.663  52.520  1.00  0.00     0.019 A 
HETATM    6  C4  UNL     1      23.994   2.513  52.425  1.00  0.00    -0.020 A 
HETATM    7  C16 UNL     1      25.227   1.976  52.729  1.00  0.00     0.079 A 
HETATM    8  C11 UNL     1      25.437   0.676  53.111  1.00  0.00    -0.016 A 
HETATM    9  C10 UNL     1      24.308  -0.108  53.182  1.00  0.00     0.019 A 
BRANCH   6  10
HETATM   10  C2  UNL     1      23.761   3.916  52.011  1.00  0.00     0.013 C 
HETATM   11  C1  UNL     1      22.401   4.355  52.501  1.00  0.00     0.015 C 
HETATM   12  C3  UNL     1      23.876   4.156  50.543  1.00  0.00     0.015 C 
ENDBRANCH   6  10
BRANCH   7  13
HETATM   13  O2  UNL     1      26.318   2.825  52.635  1.00  0.00    -0.360 OA
HETATM   14  H22 UNL     1      26.250   3.820  52.885  1.00  0.00     0.217 HD
ENDBRANCH   7  13
BRANCH   8  15
HETATM   15  C12 UNL     1      26.789   0.181  53.418  1.00  0.00    -0.021 C 
HETATM   16  C13 UNL     1      26.861  -1.258  52.969  1.00  0.00     0.019 C 
HETATM   17  C14 UNL     1      26.961   0.213  54.927  1.00  0.00     0.019 C 
HETATM   18  C15 UNL     1      27.881   0.964  52.751  1.00  0.00     0.019 C 
ENDBRANCH   8  15
ENDBRANCH   1   4
BRANCH   1  19
HETATM   19  C9  UNL     1      21.369  -0.777  54.348  1.00  0.00     0.237 C 
HETATM   20  N2  UNL     1      20.473   0.165  54.928  1.00  0.00    -0.369 N 
HETATM   21  H10 UNL     1      20.550   0.411  55.955  1.00  0.00     0.159 HD
HETATM   22  H11 UNL     1      19.667   0.779  54.682  1.00  0.00     0.159 HD
HETATM   23  O1  UNL     1      21.672  -1.750  55.095  1.00  0.00    -0.272 OA
ENDBRANCH   1  19
TORSDOF 5
ENDMDL
MODEL 8
REMARK VINA RESULT:      -7.1      2.956      4.791
REMARK  5 active torsions:
REMARK  status: ('A' for Active; 'I' for Inactive)
REMARK    1  A    between atoms: C2_2  and  C4_4 
REMARK    2  A    between atoms: C6_6  and  C7_7 
REMARK    3  A    between atoms: C7_7  and  C9_10 
REMARK       I    between atoms: C9_10  and  N2_11 
REMARK    4  A    between atoms: C11_14  and  C12_15 
REMARK    5  A    between atoms: C16_19  and  O2_20 
ROOT
HETATM    1  C7  UNL     1      22.657   2.486  50.822  1.00  0.00     0.217 C 
HETATM    2  C8  UNL     1      22.114   1.686  49.722  1.00  0.00     0.078 C 
HETATM    3  N1  UNL     1      21.696   1.069  48.843  1.00  0.00    -0.196 NA
ENDROOT
BRANCH   1   4
HETATM    4  C6  UNL     1      23.229   1.575  51.831  1.00  0.00    -0.030 A 
HETATM    5  C5  UNL     1      22.391   0.954  52.725  1.00  0.00     0.019 A 
HETATM    6  C4  UNL     1      22.838   0.089  53.699  1.00  0.00    -0.020 A 
HETATM    7  C16 UNL     1      24.197  -0.136  53.745  1.00  0.00     0.079 A 
HETATM    8  C11 UNL     1      25.110   0.438  52.896  1.00  0.00    -0.016 A 
HETATM    9  C10 UNL     1      24.584   1.289  51.952  1.00  0.00     0.019 A 
BRANCH   6  10
HETATM   10  C2  UNL     1      21.848  -0.526  54.613  1.00  0.00     0.013 C 
HETATM   11  C1  UNL     1      21.474  -1.892  54.087  1.00  0.00     0.015 C 
HETATM   12  C3  UNL     1      20.618   0.289  54.835  1.00  0.00     0.015 C 
ENDBRANCH   6  10
BRANCH   7  13
HETATM   13  O2  UNL     1      24.655  -1.005  54.722  1.00  0.00    -0.360 OA
HETATM   14  H22 UNL     1      25.418  -1.669  54.539  1.00  0.00     0.217 HD
ENDBRANCH   7  13
BRANCH   8  15
HETATM   15  C12 UNL     1      26.548   0.144  53.012  1.00  0.00    -0.021 C 
HETATM   16  C13 UNL     1      27.280   1.074  52.076  1.00  0.00     0.019 C 
HETATM   17  C14 UNL     1      26.769  -1.280  52.531  1.00  0.00     0.019 C 
HETATM   18  C15 UNL     1      27.086   0.316  54.402  1.00  0.00     0.019 C 
ENDBRANCH   8  15
ENDBRANCH   1   4
BRANCH   1  19
HETATM   19  C9  UNL     1      23.604   3.511  50.336  1.00  0.00     0.237 C 
HETATM   20  N2  UNL     1      24.073   3.347  49.002  1.00  0.00    -0.369 N 
HETATM   21  H10 UNL     1      25.075   3.584  48.758  1.00  0.00     0.159 HD
HETATM   22  H11 UNL     1      23.751   3.041  48.059  1.00  0.00     0.159 HD
HETATM   23  O1  UNL     1      24.061   4.523  50.939  1.00  0.00    -0.272 OA
ENDBRANCH   1  19
TORSDOF 5
ENDMDL
MODEL 9
REMARK VINA RESULT:      -7.0      3.063      5.283
REMARK  5 active torsions:
REMARK  status: ('A' for Active; 'I' for Inactive)
REMARK    1  A    between atoms: C2_2  and  C4_4 
REMARK    2  A    between atoms: C6_6  and  C7_7 
REMARK    3  A    between atoms: C7_7  and  C9_10 
REMARK       I    between atoms: C9_10  and  N2_11 
REMARK    4  A    between atoms: C11_14  and  C12_15 
REMARK    5  A    between atoms: C16_19  and  O2_20 
ROOT
HETATM    1  C7  UNL     1      22.912   2.284  50.703  1.00  0.00     0.217 C 
HETATM    2  C8  UNL     1      22.664   3.621  51.246  1.00  0.00     0.078 C 
HETATM    3  N1  UNL     1      22.451   4.673  51.664  1.00  0.00    -0.196 NA
ENDROOT
BRANCH   1   4
HETATM    4  C6  UNL     1      23.428   1.423  51.783  1.00  0.00    -0.030 A 
HETATM    5  C5  UNL     1      22.542   0.845  52.661  1.00  0.00     0.019 A 
HETATM    6  C4  UNL     1      22.935   0.028  53.697  1.00  0.00    -0.020 A 
HETATM    7  C16 UNL     1      24.290  -0.194  53.824  1.00  0.00     0.079 A 
HETATM    8  C11 UNL     1      25.248   0.338  52.999  1.00  0.00    -0.016 A 
HETATM    9  C10 UNL     1      24.774   1.143  51.988  1.00  0.00     0.019 A 
BRANCH   6  10
HETATM   10  C2  UNL     1      21.897  -0.542  54.586  1.00  0.00     0.013 C 
HETATM   11  C1  UNL     1      21.504  -1.908  54.072  1.00  0.00     0.015 C 
HETATM   12  C3  UNL     1      20.683   0.310  54.749  1.00  0.00     0.015 C 
ENDBRANCH   6  10
BRANCH   7  13
HETATM   13  O2  UNL     1      24.693  -1.016  54.865  1.00  0.00    -0.360 OA
HETATM   14  H22 UNL     1      25.646  -1.397  54.913  1.00  0.00     0.217 HD
ENDBRANCH   7  13
BRANCH   8  15
HETATM   15  C12 UNL     1      26.677   0.049  53.204  1.00  0.00    -0.021 C 
HETATM   16  C13 UNL     1      27.462   0.994  52.328  1.00  0.00     0.019 C 
HETATM   17  C14 UNL     1      26.936  -1.368  52.722  1.00  0.00     0.019 C 
HETATM   18  C15 UNL     1      27.122   0.207  54.628  1.00  0.00     0.019 C 
ENDBRANCH   8  15
ENDBRANCH   1   4
BRANCH   1  19
HETATM   19  C9  UNL     1      21.717   1.740  50.023  1.00  0.00     0.237 C 
HETATM   20  N2  UNL     1      20.533   2.523  50.119  1.00  0.00    -0.369 N 
HETATM   21  H10 UNL     1      19.591   2.053  50.223  1.00  0.00     0.159 HD
HETATM   22  H11 UNL     1      20.213   3.516  50.124  1.00  0.00     0.159 HD
HETATM   23  O1  UNL     1      21.594   0.670  49.363  1.00  0.00    -0.272 OA
ENDBRANCH   1  19
TORSDOF 5
ENDMDL
