MODEL 1
REMARK VINA RESULT:      -9.1      0.000      0.000
REMARK  7 active torsions:
REMARK  status: ('A' for Active; 'I' for Inactive)
REMARK    1  A    between atoms: C5_5  and  C6_6 
REMARK       I    between atoms: C6_6  and  N1_8 
REMARK    2  A    between atoms: N1_8  and  C7_9 
REMARK    3  A    between atoms: C7_9  and  C8_10 
REMARK    4  A    between atoms: C9_11  and  N2_12 
REMARK    5  A    between atoms: C9_11  and  C19_25 
REMARK    6  A    between atoms: N2_12  and  C10_13 
REMARK    7  A    between atoms: C13_17  and  C14_18 
ROOT
HETATM    1  C8  UNL     1      22.204   2.588  52.113  1.00  0.00     0.023 C 
HETATM    2  C9  UNL     1      21.914   1.443  51.472  1.00  0.00     0.053 C 
ENDROOT
BRANCH   2   3
HETATM    3  N2  UNL     1      21.793   0.210  52.130  1.00  0.00    -0.188 N 
HETATM    4  H10 UNL     1      21.003  -0.341  51.731  1.00  0.00     0.184 HD
BRANCH   3   5
HETATM    5  C10 UNL     1      22.591  -0.277  53.185  1.00  0.00     0.727 A 
HETATM    6  N3  UNL     1      21.967  -0.876  54.241  1.00  0.00    -0.075 NA
HETATM    7  C11 UNL     1      22.719  -1.356  55.277  1.00  0.00     0.139 A 
HETATM    8  C12 UNL     1      24.086  -1.197  55.177  1.00  0.00     0.053 A 
HETATM    9  C13 UNL     1      24.735  -0.595  54.120  1.00  0.00     0.089 A 
HETATM   10  N5  UNL     1      23.928  -0.140  53.123  1.00  0.00    -0.062 NA
BRANCH   9  11
HETATM   11  C14 UNL     1      26.185  -0.449  54.058  1.00  0.00     0.011 A 
HETATM   12  C15 UNL     1      27.001  -1.062  53.137  1.00  0.00     0.017 A 
HETATM   13  C16 UNL     1      28.371  -0.893  53.118  1.00  0.00     0.020 A 
HETATM   14  C17 UNL     1      28.913  -0.059  54.086  1.00  0.00     0.116 A 
HETATM   15  N4  UNL     1      28.131   0.554  55.000  1.00  0.00    -0.272 NA
HETATM   16  C18 UNL     1      26.792   0.366  54.989  1.00  0.00     0.130 A 
ENDBRANCH   9  11
ENDBRANCH   3   5
ENDBRANCH   2   3
BRANCH   2  17
HETATM   17  C19 UNL     1      21.722   1.524  50.022  1.00  0.00    -0.031 A 
HETATM   18  C20 UNL     1      20.883   1.397  48.991  1.00  0.00    -0.013 A 
HETATM   19  C21 UNL     1      22.276   1.791  48.657  1.00  0.00     0.068 A 
ENDBRANCH   2  17
BRANCH   1  20
HETATM   20  C7  UNL     1      22.393   4.001  51.713  1.00  0.00     0.152 C 
BRANCH  20  21
HETATM   21  N1  UNL     1      23.749   4.243  51.253  1.00  0.00    -0.353 N 
HETATM   22  C6  UNL     1      23.988   4.805  49.962  1.00  0.00     0.251 C 
HETATM   23  O1  UNL     1      22.931   5.044  49.325  1.00  0.00    -0.268 OA
HETATM   24  H6  UNL     1      24.594   4.014  51.851  1.00  0.00     0.163 HD
BRANCH  22  25
HETATM   25  C5  UNL     1      25.315   5.072  49.442  1.00  0.00     0.032 A 
HETATM   26  C4  UNL     1      26.339   4.151  49.306  1.00  0.00     0.017 A 
HETATM   27  C3  UNL     1      27.555   4.547  48.793  1.00  0.00     0.007 A 
HETATM   28  C2  UNL     1      27.820   5.844  48.396  1.00  0.00    -0.062 A 
HETATM   29  C1  UNL     1      29.132   6.281  47.841  1.00  0.00     0.048 C 
HETATM   30  C23 UNL     1      26.795   6.783  48.529  1.00  0.00     0.007 A 
HETATM   31  C22 UNL     1      25.585   6.363  49.044  1.00  0.00     0.017 A 
ENDBRANCH  22  25
ENDBRANCH  20  21
ENDBRANCH   1  20
TORSDOF 7
ENDMDL
MODEL 2
REMARK VINA RESULT:      -8.8      1.523      2.213
REMARK  7 active torsions:
REMARK  status: ('A' for Active; 'I' for Inactive)
REMARK    1  A    between atoms: C5_5  and  C6_6 
REMARK       I    between atoms: C6_6  and  N1_8 
REMARK    2  A    between atoms: N1_8  and  C7_9 
REMARK    3  A    between atoms: C7_9  and  C8_10 
REMARK    4  A    between atoms: C9_11  and  N2_12 
REMARK    5  A    between atoms: C9_11  and  C19_25 
REMARK    6  A    between atoms: N2_12  and  C10_13 
REMARK    7  A    between atoms: C13_17  and  C14_18 
ROOT
HETATM    1  C8  UNL     1      23.007   5.273  51.526  1.00  0.00     0.023 C 
HETATM    2  C9  UNL     1      22.829   3.966  51.271  1.00  0.00     0.053 C 
ENDROOT
BRANCH   2   3
HETATM    3  N2  UNL     1      22.383   3.054  52.239  1.00  0.00    -0.188 N 
HETATM    4  H10 UNL     1      21.437   3.323  52.586  1.00  0.00     0.184 HD
BRANCH   3   5
HETATM    5  C10 UNL     1      23.063   1.915  52.718  1.00  0.00     0.727 A 
HETATM    6  N3  UNL     1      22.353   0.759  52.874  1.00  0.00    -0.075 NA
HETATM    7  C11 UNL     1      22.990  -0.358  53.338  1.00  0.00     0.139 A 
HETATM    8  C12 UNL     1      24.334  -0.233  53.621  1.00  0.00     0.053 A 
HETATM    9  C13 UNL     1      25.068   0.925  53.472  1.00  0.00     0.089 A 
HETATM   10  N5  UNL     1      24.374   1.999  53.006  1.00  0.00    -0.062 NA
BRANCH   9  11
HETATM   11  C14 UNL     1      26.490   1.010  53.786  1.00  0.00     0.011 A 
HETATM   12  C15 UNL     1      27.323   2.034  53.403  1.00  0.00     0.017 A 
HETATM   13  C16 UNL     1      28.665   2.071  53.724  1.00  0.00     0.020 A 
HETATM   14  C17 UNL     1      29.159   1.010  54.470  1.00  0.00     0.116 A 
HETATM   15  N4  UNL     1      28.360  -0.006  54.858  1.00  0.00    -0.272 NA
HETATM   16  C18 UNL     1      27.050  -0.010  54.526  1.00  0.00     0.130 A 
ENDBRANCH   9  11
ENDBRANCH   3   5
ENDBRANCH   2   3
BRANCH   2  17
HETATM   17  C19 UNL     1      23.123   3.508  49.911  1.00  0.00    -0.031 A 
HETATM   18  C20 UNL     1      24.019   2.982  49.073  1.00  0.00    -0.013 A 
HETATM   19  C21 UNL     1      22.684   3.288  48.497  1.00  0.00     0.068 A 
ENDBRANCH   2  17
BRANCH   1  20
HETATM   20  C7  UNL     1      23.452   6.449  50.744  1.00  0.00     0.152 C 
BRANCH  20  21
HETATM   21  N1  UNL     1      24.861   6.355  50.404  1.00  0.00    -0.353 N 
HETATM   22  C6  UNL     1      25.279   6.356  49.038  1.00  0.00     0.251 C 
HETATM   23  O1  UNL     1      24.321   6.444  48.229  1.00  0.00    -0.268 OA
HETATM   24  H6  UNL     1      25.614   6.283  51.147  1.00  0.00     0.163 HD
BRANCH  22  25
HETATM   25  C5  UNL     1      26.668   6.265  48.630  1.00  0.00     0.032 A 
HETATM   26  C4  UNL     1      27.469   5.139  48.704  1.00  0.00     0.017 A 
HETATM   27  C3  UNL     1      28.777   5.198  48.277  1.00  0.00     0.007 A 
HETATM   28  C2  UNL     1      29.354   6.346  47.766  1.00  0.00    -0.062 A 
HETATM   29  C1  UNL     1      30.768   6.419  47.303  1.00  0.00     0.048 C 
HETATM   30  C23 UNL     1      28.556   7.490  47.687  1.00  0.00     0.007 A 
HETATM   31  C22 UNL     1      27.248   7.407  48.120  1.00  0.00     0.017 A 
ENDBRANCH  22  25
ENDBRANCH  20  21
ENDBRANCH   1  20
TORSDOF 7
ENDMDL
MODEL 3
REMARK VINA RESULT:      -8.7      1.163      2.172
REMARK  7 active torsions:
REMARK  status: ('A' for Active; 'I' for Inactive)
REMARK    1  A    between atoms: C5_5  and  C6_6 
REMARK       I    between atoms: C6_6  and  N1_8 
REMARK    2  A    between atoms: N1_8  and  C7_9 
REMARK    3  A    between atoms: C7_9  and  C8_10 
REMARK    4  A    between atoms: C9_11  and  N2_12 
REMARK    5  A    between atoms: C9_11  and  C19_25 
REMARK    6  A    between atoms: N2_12  and  C10_13 
REMARK    7  A    between atoms: C13_17  and  C14_18 
ROOT
HETATM    1  C8  UNL     1      22.298   2.593  49.881  1.00  0.00     0.023 C 
HETATM    2  C9  UNL     1      22.522   2.192  51.144  1.00  0.00     0.053 C 
ENDROOT
BRANCH   2   3
HETATM    3  N2  UNL     1      22.337   0.867  51.567  1.00  0.00    -0.188 N 
HETATM    4  H10 UNL     1      21.668   0.373  50.939  1.00  0.00     0.184 HD
BRANCH   3   5
HETATM    5  C10 UNL     1      22.939   0.232  52.673  1.00  0.00     0.727 A 
HETATM    6  N3  UNL     1      22.124  -0.324  53.618  1.00  0.00    -0.075 NA
HETATM    7  C11 UNL     1      22.683  -0.945  54.699  1.00  0.00     0.139 A 
HETATM    8  C12 UNL     1      24.062  -0.966  54.758  1.00  0.00     0.053 A 
HETATM    9  C13 UNL     1      24.901  -0.410  53.816  1.00  0.00     0.089 A 
HETATM   10  N5  UNL     1      24.280   0.192  52.765  1.00  0.00    -0.062 NA
BRANCH   9  11
HETATM   11  C14 UNL     1      26.355  -0.457  53.922  1.00  0.00     0.011 A 
HETATM   12  C15 UNL     1      27.114   0.360  54.725  1.00  0.00     0.017 A 
HETATM   13  C16 UNL     1      28.491   0.279  54.792  1.00  0.00     0.020 A 
HETATM   14  C17 UNL     1      29.100  -0.682  53.999  1.00  0.00     0.116 A 
HETATM   15  N4  UNL     1      28.375  -1.496  53.202  1.00  0.00    -0.272 NA
HETATM   16  C18 UNL     1      27.028  -1.389  53.162  1.00  0.00     0.130 A 
ENDBRANCH   9  11
ENDBRANCH   3   5
ENDBRANCH   2   3
BRANCH   2  17
HETATM   17  C19 UNL     1      22.979   3.209  52.093  1.00  0.00    -0.031 A 
HETATM   18  C20 UNL     1      22.703   4.342  52.744  1.00  0.00    -0.013 A 
HETATM   19  C21 UNL     1      24.035   3.740  53.011  1.00  0.00     0.068 A 
ENDBRANCH   2  17
BRANCH   1  20
HETATM   20  C7  UNL     1      22.398   3.876  49.149  1.00  0.00     0.152 C 
BRANCH  20  21
HETATM   21  N1  UNL     1      23.767   4.153  48.751  1.00  0.00    -0.353 N 
HETATM   22  C6  UNL     1      24.410   5.363  49.154  1.00  0.00     0.251 C 
HETATM   23  O1  UNL     1      23.674   6.103  49.854  1.00  0.00    -0.268 OA
HETATM   24  H6  UNL     1      24.326   3.476  48.156  1.00  0.00     0.163 HD
BRANCH  22  25
HETATM   25  C5  UNL     1      25.773   5.700  48.790  1.00  0.00     0.032 A 
HETATM   26  C4  UNL     1      26.211   6.920  48.306  1.00  0.00     0.017 A 
HETATM   27  C3  UNL     1      27.543   7.100  48.002  1.00  0.00     0.007 A 
HETATM   28  C2  UNL     1      28.493   6.107  48.155  1.00  0.00    -0.062 A 
HETATM   29  C1  UNL     1      29.935   6.293  47.827  1.00  0.00     0.048 C 
HETATM   30  C23 UNL     1      28.063   4.871  48.642  1.00  0.00     0.007 A 
HETATM   31  C22 UNL     1      26.724   4.715  48.941  1.00  0.00     0.017 A 
ENDBRANCH  22  25
ENDBRANCH  20  21
ENDBRANCH   1  20
TORSDOF 7
ENDMDL
MODEL 4
REMARK VINA RESULT:      -8.6      2.120      6.940
REMARK  7 active torsions:
REMARK  status: ('A' for Active; 'I' for Inactive)
REMARK    1  A    between atoms: C5_5  and  C6_6 
REMARK       I    between atoms: C6_6  and  N1_8 
REMARK    2  A    between atoms: N1_8  and  C7_9 
REMARK    3  A    between atoms: C7_9  and  C8_10 
REMARK    4  A    between atoms: C9_11  and  N2_12 
REMARK    5  A    between atoms: C9_11  and  C19_25 
REMARK    6  A    between atoms: N2_12  and  C10_13 
REMARK    7  A    between atoms: C13_17  and  C14_18 
ROOT
HETATM    1  C8  UNL     1      22.024   2.287  51.721  1.00  0.00     0.023 C 
HETATM    2  C9  UNL     1      21.783   2.950  50.577  1.00  0.00     0.053 C 
ENDROOT
BRANCH   2   3
HETATM    3  N2  UNL     1      21.468   4.316  50.539  1.00  0.00    -0.188 N 
HETATM    4  H10 UNL     1      20.443   4.458  50.668  1.00  0.00     0.184 HD
BRANCH   3   5
HETATM    5  C10 UNL     1      22.359   5.394  50.358  1.00  0.00     0.727 A 
HETATM    6  N3  UNL     1      21.917   6.652  50.653  1.00  0.00    -0.075 NA
HETATM    7  C11 UNL     1      22.761   7.713  50.485  1.00  0.00     0.139 A 
HETATM    8  C12 UNL     1      24.029   7.429  50.019  1.00  0.00     0.053 A 
HETATM    9  C13 UNL     1      24.494   6.168  49.715  1.00  0.00     0.089 A 
HETATM   10  N5  UNL     1      23.603   5.156  49.905  1.00  0.00    -0.062 NA
BRANCH   9  11
HETATM   11  C14 UNL     1      25.844   5.916  49.224  1.00  0.00     0.011 A 
HETATM   12  C15 UNL     1      26.664   6.859  48.650  1.00  0.00     0.017 A 
HETATM   13  C16 UNL     1      27.937   6.573  48.199  1.00  0.00     0.020 A 
HETATM   14  C17 UNL     1      28.375   5.265  48.350  1.00  0.00     0.116 A 
HETATM   15  N4  UNL     1      27.588   4.323  48.911  1.00  0.00    -0.272 NA
HETATM   16  C18 UNL     1      26.346   4.638  49.342  1.00  0.00     0.130 A 
ENDBRANCH   9  11
ENDBRANCH   3   5
ENDBRANCH   2   3
BRANCH   2  17
HETATM   17  C19 UNL     1      21.862   2.180  49.334  1.00  0.00    -0.031 A 
HETATM   18  C20 UNL     1      21.413   1.141  48.626  1.00  0.00    -0.013 A 
HETATM   19  C21 UNL     1      22.465   1.968  47.979  1.00  0.00     0.068 A 
ENDBRANCH   2  17
BRANCH   1  20
HETATM   20  C7  UNL     1      22.370   0.892  52.078  1.00  0.00     0.152 C 
BRANCH  20  21
HETATM   21  N1  UNL     1      23.806   0.725  52.224  1.00  0.00    -0.353 N 
HETATM   22  C6  UNL     1      24.346   0.051  53.361  1.00  0.00     0.251 C 
HETATM   23  O1  UNL     1      23.464  -0.349  54.162  1.00  0.00    -0.268 OA
HETATM   24  H6  UNL     1      24.489   1.092  51.502  1.00  0.00     0.163 HD
BRANCH  22  25
HETATM   25  C5  UNL     1      25.767  -0.150  53.567  1.00  0.00     0.032 A 
HETATM   26  C4  UNL     1      26.520   0.356  54.613  1.00  0.00     0.017 A 
HETATM   27  C3  UNL     1      27.869   0.082  54.683  1.00  0.00     0.007 A 
HETATM   28  C2  UNL     1      28.532  -0.688  53.746  1.00  0.00    -0.062 A 
HETATM   29  C1  UNL     1      29.991  -0.988  53.813  1.00  0.00     0.048 C 
HETATM   30  C23 UNL     1      27.784  -1.203  52.685  1.00  0.00     0.007 A 
HETATM   31  C22 UNL     1      26.434  -0.917  52.637  1.00  0.00     0.017 A 
ENDBRANCH  22  25
ENDBRANCH  20  21
ENDBRANCH   1  20
TORSDOF 7
ENDMDL
MODEL 5
REMARK VINA RESULT:      -8.3      2.729      4.447
REMARK  7 active torsions:
REMARK  status: ('A' for Active; 'I' for Inactive)
REMARK    1  A    between atoms: C5_5  and  C6_6 
REMARK       I    between atoms: C6_6  and  N1_8 
REMARK    2  A    between atoms: N1_8  and  C7_9 
REMARK    3  A    between atoms: C7_9  and  C8_10 
REMARK    4  A    between atoms: C9_11  and  N2_12 
REMARK    5  A    between atoms: C9_11  and  C19_25 
REMARK    6  A    between atoms: N2_12  and  C10_13 
REMARK    7  A    between atoms: C13_17  and  C14_18 
ROOT
HETATM    1  C8  UNL     1      25.874   4.461  49.225  1.00  0.00     0.023 C 
HETATM    2  C9  UNL     1      24.726   4.285  49.902  1.00  0.00     0.053 C 
ENDROOT
BRANCH   2   3
HETATM    3  N2  UNL     1      24.123   3.030  50.067  1.00  0.00    -0.188 N 
HETATM    4  H10 UNL     1      23.524   2.801  49.245  1.00  0.00     0.184 HD
BRANCH   3   5
HETATM    5  C10 UNL     1      24.263   2.152  51.162  1.00  0.00     0.727 A 
HETATM    6  N3  UNL     1      23.134   1.765  51.825  1.00  0.00    -0.075 NA
HETATM    7  C11 UNL     1      23.244   0.915  52.890  1.00  0.00     0.139 A 
HETATM    8  C12 UNL     1      24.517   0.501  53.224  1.00  0.00     0.053 A 
HETATM    9  C13 UNL     1      25.668   0.881  52.568  1.00  0.00     0.089 A 
HETATM   10  N5  UNL     1      25.489   1.728  51.518  1.00  0.00    -0.062 NA
BRANCH   9  11
HETATM   11  C14 UNL     1      26.995   0.417  52.959  1.00  0.00     0.011 A 
HETATM   12  C15 UNL     1      28.072   1.231  53.216  1.00  0.00     0.017 A 
HETATM   13  C16 UNL     1      29.311   0.745  53.583  1.00  0.00     0.020 A 
HETATM   14  C17 UNL     1      29.436  -0.633  53.688  1.00  0.00     0.116 A 
HETATM   15  N4  UNL     1      28.392  -1.453  53.440  1.00  0.00    -0.272 NA
HETATM   16  C18 UNL     1      27.193  -0.942  53.083  1.00  0.00     0.130 A 
ENDBRANCH   9  11
ENDBRANCH   3   5
ENDBRANCH   2   3
BRANCH   2  17
HETATM   17  C19 UNL     1      24.106   5.480  50.478  1.00  0.00    -0.031 A 
HETATM   18  C20 UNL     1      24.112   6.387  51.458  1.00  0.00    -0.013 A 
HETATM   19  C21 UNL     1      23.054   6.545  50.426  1.00  0.00     0.068 A 
ENDBRANCH   2  17
BRANCH   1  20
HETATM   20  C7  UNL     1      26.732   5.619  48.887  1.00  0.00     0.152 C 
BRANCH  20  21
HETATM   21  N1  UNL     1      28.140   5.264  48.929  1.00  0.00    -0.353 N 
HETATM   22  C6  UNL     1      29.095   5.994  48.158  1.00  0.00     0.251 C 
HETATM   23  O1  UNL     1      28.580   6.923  47.486  1.00  0.00    -0.268 OA
HETATM   24  H6  UNL     1      28.499   4.463  49.523  1.00  0.00     0.163 HD
BRANCH  22  25
HETATM   25  C5  UNL     1      30.514   5.692  48.154  1.00  0.00     0.032 A 
HETATM   26  C4  UNL     1      31.123   4.640  47.491  1.00  0.00     0.017 A 
HETATM   27  C3  UNL     1      32.488   4.475  47.576  1.00  0.00     0.007 A 
HETATM   28  C2  UNL     1      33.307   5.318  48.302  1.00  0.00    -0.062 A 
HETATM   29  C1  UNL     1      34.784   5.145  48.400  1.00  0.00     0.048 C 
HETATM   30  C23 UNL     1      32.704   6.382  48.976  1.00  0.00     0.007 A 
HETATM   31  C22 UNL     1      31.335   6.530  48.876  1.00  0.00     0.017 A 
ENDBRANCH  22  25
ENDBRANCH  20  21
ENDBRANCH   1  20
TORSDOF 7
ENDMDL
MODEL 6
REMARK VINA RESULT:      -8.2      4.958      9.174
REMARK  7 active torsions:
REMARK  status: ('A' for Active; 'I' for Inactive)
REMARK    1  A    between atoms: C5_5  and  C6_6 
REMARK       I    between atoms: C6_6  and  N1_8 
REMARK    2  A    between atoms: N1_8  and  C7_9 
REMARK    3  A    between atoms: C7_9  and  C8_10 
REMARK    4  A    between atoms: C9_11  and  N2_12 
REMARK    5  A    between atoms: C9_11  and  C19_25 
REMARK    6  A    between atoms: N2_12  and  C10_13 
REMARK    7  A    between atoms: C13_17  and  C14_18 
ROOT
HETATM    1  C8  UNL     1      21.324   0.889  52.733  1.00  0.00     0.023 C 
HETATM    2  C9  UNL     1      20.066   1.244  52.421  1.00  0.00     0.053 C 
ENDROOT
BRANCH   2   3
HETATM    3  N2  UNL     1      19.690   2.571  52.164  1.00  0.00    -0.188 N 
HETATM    4  H10 UNL     1      20.333   3.233  52.648  1.00  0.00     0.184 HD
BRANCH   3   5
HETATM    5  C10 UNL     1      18.609   3.015  51.375  1.00  0.00     0.727 A 
HETATM    6  N3  UNL     1      18.812   3.168  50.033  1.00  0.00    -0.075 NA
HETATM    7  C11 UNL     1      17.780   3.598  49.246  1.00  0.00     0.139 A 
HETATM    8  C12 UNL     1      16.581   3.852  49.880  1.00  0.00     0.053 A 
HETATM    9  C13 UNL     1      16.356   3.704  51.232  1.00  0.00     0.089 A 
HETATM   10  N5  UNL     1      17.425   3.273  51.957  1.00  0.00    -0.062 NA
BRANCH   9  11
HETATM   11  C14 UNL     1      15.070   3.986  51.859  1.00  0.00     0.011 A 
HETATM   12  C15 UNL     1      14.854   4.076  53.213  1.00  0.00     0.017 A 
HETATM   13  C16 UNL     1      13.616   4.345  53.761  1.00  0.00     0.020 A 
HETATM   14  C17 UNL     1      12.565   4.528  52.873  1.00  0.00     0.116 A 
HETATM   15  N4  UNL     1      12.753   4.444  51.539  1.00  0.00    -0.272 NA
HETATM   16  C18 UNL     1      13.980   4.179  51.037  1.00  0.00     0.130 A 
ENDBRANCH   9  11
ENDBRANCH   3   5
ENDBRANCH   2   3
BRANCH   2  17
HETATM   17  C19 UNL     1      19.071   0.172  52.353  1.00  0.00    -0.031 A 
HETATM   18  C20 UNL     1      18.537  -0.904  52.937  1.00  0.00    -0.013 A 
HETATM   19  C21 UNL     1      17.951  -0.510  51.629  1.00  0.00     0.068 A 
ENDBRANCH   2  17
BRANCH   1  20
HETATM   20  C7  UNL     1      22.012  -0.383  53.049  1.00  0.00     0.152 C 
BRANCH  20  21
HETATM   21  N1  UNL     1      23.454  -0.247  52.932  1.00  0.00    -0.353 N 
HETATM   22  C6  UNL     1      24.308  -0.618  54.014  1.00  0.00     0.251 C 
HETATM   23  O1  UNL     1      23.680  -1.049  55.013  1.00  0.00    -0.268 OA
HETATM   24  H6  UNL     1      23.912   0.127  52.052  1.00  0.00     0.163 HD
BRANCH  22  25
HETATM   25  C5  UNL     1      25.753  -0.507  53.962  1.00  0.00     0.032 A 
HETATM   26  C4  UNL     1      26.548   0.221  54.830  1.00  0.00     0.017 A 
HETATM   27  C3  UNL     1      27.916   0.236  54.661  1.00  0.00     0.007 A 
HETATM   28  C2  UNL     1      28.558  -0.452  53.648  1.00  0.00    -0.062 A 
HETATM   29  C1  UNL     1      30.036  -0.442  53.457  1.00  0.00     0.048 C 
HETATM   30  C23 UNL     1      27.767  -1.191  52.765  1.00  0.00     0.007 A 
HETATM   31  C22 UNL     1      26.399  -1.191  52.956  1.00  0.00     0.017 A 
ENDBRANCH  22  25
ENDBRANCH  20  21
ENDBRANCH   1  20
TORSDOF 7
ENDMDL
MODEL 7
REMARK VINA RESULT:      -8.2      2.728      4.014
REMARK  7 active torsions:
REMARK  status: ('A' for Active; 'I' for Inactive)
REMARK    1  A    between atoms: C5_5  and  C6_6 
REMARK       I    between atoms: C6_6  and  N1_8 
REMARK    2  A    between atoms: N1_8  and  C7_9 
REMARK    3  A    between atoms: C7_9  and  C8_10 
REMARK    4  A    between atoms: C9_11  and  N2_12 
REMARK    5  A    between atoms: C9_11  and  C19_25 
REMARK    6  A    between atoms: N2_12  and  C10_13 
REMARK    7  A    between atoms: C13_17  and  C14_18 
ROOT
HETATM    1  C8  UNL     1      26.229   4.527  50.057  1.00  0.00     0.023 C 
HETATM    2  C9  UNL     1      25.008   4.173  50.493  1.00  0.00     0.053 C 
ENDROOT
BRANCH   2   3
HETATM    3  N2  UNL     1      24.757   3.761  51.810  1.00  0.00    -0.188 N 
HETATM    4  H10 UNL     1      24.642   4.588  52.435  1.00  0.00     0.184 HD
BRANCH   3   5
HETATM    5  C10 UNL     1      24.661   2.438  52.288  1.00  0.00     0.727 A 
HETATM    6  N3  UNL     1      23.426   1.962  52.620  1.00  0.00    -0.075 NA
HETATM    7  C11 UNL     1      23.307   0.682  53.087  1.00  0.00     0.139 A 
HETATM    8  C12 UNL     1      24.471  -0.051  53.190  1.00  0.00     0.053 A 
HETATM    9  C13 UNL     1      25.727   0.412  52.861  1.00  0.00     0.089 A 
HETATM   10  N5  UNL     1      25.775   1.693  52.403  1.00  0.00    -0.062 NA
BRANCH   9  11
HETATM   11  C14 UNL     1      26.931  -0.401  52.988  1.00  0.00     0.011 A 
HETATM   12  C15 UNL     1      28.183   0.083  53.285  1.00  0.00     0.017 A 
HETATM   13  C16 UNL     1      29.295  -0.727  53.394  1.00  0.00     0.020 A 
HETATM   14  C17 UNL     1      29.103  -2.086  53.190  1.00  0.00     0.116 A 
HETATM   15  N4  UNL     1      27.883  -2.584  52.898  1.00  0.00    -0.272 NA
HETATM   16  C18 UNL     1      26.815  -1.762  52.798  1.00  0.00     0.130 A 
ENDBRANCH   9  11
ENDBRANCH   3   5
ENDBRANCH   2   3
BRANCH   2  17
HETATM   17  C19 UNL     1      23.913   4.233  49.521  1.00  0.00    -0.031 A 
HETATM   18  C20 UNL     1      23.200   3.592  48.592  1.00  0.00    -0.013 A 
HETATM   19  C21 UNL     1      22.815   5.003  48.856  1.00  0.00     0.068 A 
ENDBRANCH   2  17
BRANCH   1  20
HETATM   20  C7  UNL     1      26.796   4.990  48.771  1.00  0.00     0.152 C 
BRANCH  20  21
HETATM   21  N1  UNL     1      27.777   6.041  48.973  1.00  0.00    -0.353 N 
HETATM   22  C6  UNL     1      27.537   7.362  48.487  1.00  0.00     0.251 C 
HETATM   23  O1  UNL     1      26.432   7.478  47.899  1.00  0.00    -0.268 OA
HETATM   24  H6  UNL     1      28.691   5.865  49.482  1.00  0.00     0.163 HD
BRANCH  22  25
HETATM   25  C5  UNL     1      28.474   8.456  48.655  1.00  0.00     0.032 A 
HETATM   26  C4  UNL     1      29.825   8.339  48.932  1.00  0.00     0.017 A 
HETATM   27  C3  UNL     1      30.599   9.471  49.066  1.00  0.00     0.007 A 
HETATM   28  C2  UNL     1      30.094  10.751  48.937  1.00  0.00    -0.062 A 
HETATM   29  C1  UNL     1      30.923  11.980  49.081  1.00  0.00     0.048 C 
HETATM   30  C23 UNL     1      28.731  10.882  48.659  1.00  0.00     0.007 A 
HETATM   31  C22 UNL     1      27.976   9.734  48.528  1.00  0.00     0.017 A 
ENDBRANCH  22  25
ENDBRANCH  20  21
ENDBRANCH   1  20
TORSDOF 7
ENDMDL
MODEL 8
REMARK VINA RESULT:      -8.0      3.126      8.448
REMARK  7 active torsions:
REMARK  status: ('A' for Active; 'I' for Inactive)
REMARK    1  A    between atoms: C5_5  and  C6_6 
REMARK       I    between atoms: C6_6  and  N1_8 
REMARK    2  A    between atoms: N1_8  and  C7_9 
REMARK    3  A    between atoms: C7_9  and  C8_10 
REMARK    4  A    between atoms: C9_11  and  N2_12 
REMARK    5  A    between atoms: C9_11  and  C19_25 
REMARK    6  A    between atoms: N2_12  and  C10_13 
REMARK    7  A    between atoms: C13_17  and  C14_18 
ROOT
HETATM    1  C8  UNL     1      24.809   1.427  52.362  1.00  0.00     0.023 C 
HETATM    2  C9  UNL     1      26.031   1.119  51.895  1.00  0.00     0.053 C 
ENDROOT
BRANCH   2   3
HETATM    3  N2  UNL     1      26.717   1.917  50.969  1.00  0.00    -0.188 N 
HETATM    4  H10 UNL     1      27.687   1.562  50.828  1.00  0.00     0.184 HD
BRANCH   3   5
HETATM    5  C10 UNL     1      26.227   3.050  50.288  1.00  0.00     0.727 A 
HETATM    6  N3  UNL     1      24.876   3.247  50.256  1.00  0.00    -0.075 NA
HETATM    7  C11 UNL     1      24.375   4.338  49.602  1.00  0.00     0.139 A 
HETATM    8  C12 UNL     1      25.293   5.180  49.008  1.00  0.00     0.053 A 
HETATM    9  C13 UNL     1      26.659   4.999  49.028  1.00  0.00     0.089 A 
HETATM   10  N5  UNL     1      27.091   3.894  49.696  1.00  0.00    -0.062 NA
BRANCH   9  11
HETATM   11  C14 UNL     1      27.592   5.917  48.385  1.00  0.00     0.011 A 
HETATM   12  C15 UNL     1      27.263   7.152  47.880  1.00  0.00     0.017 A 
HETATM   13  C16 UNL     1      28.182   7.988  47.279  1.00  0.00     0.020 A 
HETATM   14  C17 UNL     1      29.488   7.527  47.199  1.00  0.00     0.116 A 
HETATM   15  N4  UNL     1      29.835   6.318  47.687  1.00  0.00    -0.272 NA
HETATM   16  C18 UNL     1      28.909   5.525  48.271  1.00  0.00     0.130 A 
ENDBRANCH   9  11
ENDBRANCH   3   5
ENDBRANCH   2   3
BRANCH   2  17
HETATM   17  C19 UNL     1      26.642  -0.114  52.398  1.00  0.00    -0.031 A 
HETATM   18  C20 UNL     1      27.575  -0.669  53.174  1.00  0.00    -0.013 A 
HETATM   19  C21 UNL     1      26.696  -1.610  52.433  1.00  0.00     0.068 A 
ENDBRANCH   2  17
BRANCH   1  20
HETATM   20  C7  UNL     1      23.856   0.810  53.312  1.00  0.00     0.152 C 
BRANCH  20  21
HETATM   21  N1  UNL     1      22.539   0.661  52.718  1.00  0.00    -0.353 N 
HETATM   22  C6  UNL     1      21.513  -0.062  53.399  1.00  0.00     0.251 C 
HETATM   23  O1  UNL     1      21.886  -0.521  54.508  1.00  0.00    -0.268 OA
HETATM   24  H6  UNL     1      22.299   1.079  51.773  1.00  0.00     0.163 HD
BRANCH  22  25
HETATM   25  C5  UNL     1      20.178  -0.248  52.863  1.00  0.00     0.032 A 
HETATM   26  C4  UNL     1      19.152  -0.962  53.455  1.00  0.00     0.017 A 
HETATM   27  C3  UNL     1      17.928  -1.054  52.828  1.00  0.00     0.007 A 
HETATM   28  C2  UNL     1      17.658  -0.460  51.610  1.00  0.00    -0.062 A 
HETATM   29  C1  UNL     1      16.338  -0.554  50.924  1.00  0.00     0.048 C 
HETATM   30  C23 UNL     1      18.686   0.263  51.001  1.00  0.00     0.007 A 
HETATM   31  C22 UNL     1      19.903   0.343  51.648  1.00  0.00     0.017 A 
ENDBRANCH  22  25
ENDBRANCH  20  21
ENDBRANCH   1  20
TORSDOF 7
ENDMDL
MODEL 9
REMARK VINA RESULT:      -8.0      2.583      7.431
REMARK  7 active torsions:
REMARK  status: ('A' for Active; 'I' for Inactive)
REMARK    1  A    between atoms: C5_5  and  C6_6 
REMARK       I    between atoms: C6_6  and  N1_8 
REMARK    2  A    between atoms: N1_8  and  C7_9 
REMARK    3  A    between atoms: C7_9  and  C8_10 
REMARK    4  A    between atoms: C9_11  and  N2_12 
REMARK    5  A    between atoms: C9_11  and  C19_25 
REMARK    6  A    between atoms: N2_12  and  C10_13 
REMARK    7  A    between atoms: C13_17  and  C14_18 
ROOT
HETATM    1  C8  UNL     1      23.487   4.350  51.047  1.00  0.00     0.023 C 
HETATM    2  C9  UNL     1      23.033   4.025  49.825  1.00  0.00     0.053 C 
ENDROOT
BRANCH   2   3
HETATM    3  N2  UNL     1      23.067   4.910  48.738  1.00  0.00    -0.188 N 
HETATM    4  H10 UNL     1      22.383   4.618  48.007  1.00  0.00     0.184 HD
BRANCH   3   5
HETATM    5  C10 UNL     1      23.884   6.050  48.590  1.00  0.00     0.727 A 
HETATM    6  N3  UNL     1      23.275   7.266  48.459  1.00  0.00    -0.075 NA
HETATM    7  C11 UNL     1      24.044   8.386  48.314  1.00  0.00     0.139 A 
HETATM    8  C12 UNL     1      25.412   8.203  48.310  1.00  0.00     0.053 A 
HETATM    9  C13 UNL     1      26.046   6.985  48.439  1.00  0.00     0.089 A 
HETATM   10  N5  UNL     1      25.221   5.911  48.581  1.00  0.00    -0.062 NA
BRANCH   9  11
HETATM   11  C14 UNL     1      27.497   6.840  48.429  1.00  0.00     0.011 A 
HETATM   12  C15 UNL     1      28.170   5.651  48.274  1.00  0.00     0.017 A 
HETATM   13  C16 UNL     1      29.548   5.563  48.271  1.00  0.00     0.020 A 
HETATM   14  C17 UNL     1      30.251   6.749  48.433  1.00  0.00     0.116 A 
HETATM   15  N4  UNL     1      29.611   7.927  48.586  1.00  0.00    -0.272 NA
HETATM   16  C18 UNL     1      28.261   7.977  48.584  1.00  0.00     0.130 A 
ENDBRANCH   9  11
ENDBRANCH   3   5
ENDBRANCH   2   3
BRANCH   2  17
HETATM   17  C19 UNL     1      22.486   2.677  49.657  1.00  0.00    -0.031 A 
HETATM   18  C20 UNL     1      22.088   1.545  50.244  1.00  0.00    -0.013 A 
HETATM   19  C21 UNL     1      21.979   1.588  48.762  1.00  0.00     0.068 A 
ENDBRANCH   2  17
BRANCH   1  20
HETATM   20  C7  UNL     1      23.585   3.661  52.354  1.00  0.00     0.152 C 
BRANCH  20  21
HETATM   21  N1  UNL     1      24.909   3.100  52.558  1.00  0.00    -0.353 N 
HETATM   22  C6  UNL     1      25.069   1.730  52.927  1.00  0.00     0.251 C 
HETATM   23  O1  UNL     1      23.976   1.120  53.041  1.00  0.00    -0.268 OA
HETATM   24  H6  UNL     1      25.788   3.682  52.442  1.00  0.00     0.163 HD
BRANCH  22  25
HETATM   25  C5  UNL     1      26.361   1.109  53.146  1.00  0.00     0.032 A 
HETATM   26  C4  UNL     1      27.506   1.742  53.596  1.00  0.00     0.017 A 
HETATM   27  C3  UNL     1      28.670   1.023  53.760  1.00  0.00     0.007 A 
HETATM   28  C2  UNL     1      28.764  -0.330  53.493  1.00  0.00    -0.062 A 
HETATM   29  C1  UNL     1      30.019  -1.115  53.666  1.00  0.00     0.048 C 
HETATM   30  C23 UNL     1      27.616  -0.981  53.037  1.00  0.00     0.007 A 
HETATM   31  C22 UNL     1      26.461  -0.240  52.882  1.00  0.00     0.017 A 
ENDBRANCH  22  25
ENDBRANCH  20  21
ENDBRANCH   1  20
TORSDOF 7
ENDMDL
