MODEL 1
REMARK VINA RESULT:      -8.1      0.000      0.000
REMARK  8 active torsions:
REMARK  status: ('A' for Active; 'I' for Inactive)
REMARK    1  A    between atoms: C1_2  and  C2_3 
REMARK       I    between atoms: C1_2  and  N2_13 
REMARK    2  A    between atoms: C3_4  and  C4_5 
REMARK    3  A    between atoms: C4_5  and  C5_6 
REMARK    4  A    between atoms: C5_6  and  N1_7 
REMARK    5  A    between atoms: C14_20  and  N5_21 
REMARK    6  A    between atoms: N5_21  and  C15_22 
REMARK    7  A    between atoms: C16_23  and  C17_24 
REMARK    8  A    between atoms: C18_25  and  C19_27 
ROOT
HETATM    1  O1  UNL     1      22.595   3.817  52.051  1.00  0.00    -0.258 OA
HETATM    2  C1  UNL     1      23.745   3.922  51.546  1.00  0.00     0.299 C 
HETATM    3  N2  UNL     1      24.649   2.816  51.345  1.00  0.00    -0.334 N 
HETATM    4  C10 UNL     1      25.993   2.793  50.779  1.00  0.00     0.156 C 
HETATM    5  C11 UNL     1      26.979   2.310  51.810  1.00  0.00     0.025 C 
HETATM    6  C12 UNL     1      26.541   1.444  52.716  1.00  0.00     0.064 A 
HETATM    7  N3  UNL     1      27.619   1.111  53.596  1.00  0.00    -0.242 NA
HETATM    8  C13 UNL     1      27.615   0.304  54.608  1.00  0.00     0.235 A 
HETATM    9  N4  UNL     1      26.538  -0.472  55.119  1.00  0.00    -0.225 NA
HETATM   10  C14 UNL     1      25.309  -0.591  54.744  1.00  0.00     0.129 A 
HETATM   11  C20 UNL     1      24.634   0.069  53.630  1.00  0.00     0.061 A 
HETATM   12  C21 UNL     1      25.177   0.930  52.782  1.00  0.00    -0.008 A 
HETATM   13  C22 UNL     1      24.266   1.458  51.733  1.00  0.00     0.168 C 
ENDROOT
BRANCH   2  14
HETATM   14  C2  UNL     1      24.275   5.203  51.108  1.00  0.00    -0.005 C 
HETATM   15  C3  UNL     1      24.709   6.276  50.722  1.00  0.00    -0.095 C 
BRANCH  15  16
HETATM   16  C4  UNL     1      25.211   7.551  50.242  1.00  0.00     0.124 C 
BRANCH  16  17
HETATM   17  C5  UNL     1      26.478   7.398  49.433  1.00  0.00     0.284 C 
BRANCH  17  18
HETATM   18  N1  UNL     1      26.880   8.654  48.833  1.00  0.00     0.093 N 
HETATM   19  C6  UNL     1      25.853   9.626  49.161  1.00  0.00     0.298 C 
HETATM   20  C7  UNL     1      26.225  10.931  48.481  1.00  0.00     0.198 C 
HETATM   21  O2  UNL     1      27.371  11.387  49.161  1.00  0.00    -0.388 OA
HETATM   22  C8  UNL     1      28.394  10.496  48.950  1.00  0.00     0.198 C 
HETATM   23  C9  UNL     1      28.110   9.096  49.462  1.00  0.00     0.298 C 
ENDBRANCH  17  18
ENDBRANCH  16  17
ENDBRANCH  15  16
ENDBRANCH   2  14
BRANCH  10  24
HETATM   24  N5  UNL     1      24.472  -1.486  55.507  1.00  0.00    -0.351 N 
HETATM   25  H17 UNL     1      24.966  -2.261  56.031  1.00  0.00     0.166 HD
BRANCH  24  26
HETATM   26  C15 UNL     1      23.067  -1.166  55.427  1.00  0.00     0.090 C 
HETATM   27  C16 UNL     1      22.345  -1.871  54.584  1.00  0.00     0.020 C 
BRANCH  27  28
HETATM   28  C17 UNL     1      20.898  -1.617  54.433  1.00  0.00     0.041 C 
HETATM   29  C18 UNL     1      20.333  -0.750  53.619  1.00  0.00     0.122 C 
HETATM   30  F1  UNL     1      19.004  -0.551  53.514  1.00  0.00    -0.208 F 
BRANCH  29  31
HETATM   31  C19 UNL     1      21.024   0.148  52.688  1.00  0.00     0.292 C 
HETATM   32  F2  UNL     1      21.451   1.259  53.412  1.00  0.00    -0.248 F 
ENDBRANCH  29  31
ENDBRANCH  27  28
ENDBRANCH  24  26
ENDBRANCH  10  24
TORSDOF 8
ENDMDL
MODEL 2
REMARK VINA RESULT:      -7.9      1.685      2.081
REMARK  8 active torsions:
REMARK  status: ('A' for Active; 'I' for Inactive)
REMARK    1  A    between atoms: C1_2  and  C2_3 
REMARK       I    between atoms: C1_2  and  N2_13 
REMARK    2  A    between atoms: C3_4  and  C4_5 
REMARK    3  A    between atoms: C4_5  and  C5_6 
REMARK    4  A    between atoms: C5_6  and  N1_7 
REMARK    5  A    between atoms: C14_20  and  N5_21 
REMARK    6  A    between atoms: N5_21  and  C15_22 
REMARK    7  A    between atoms: C16_23  and  C17_24 
REMARK    8  A    between atoms: C18_25  and  C19_27 
ROOT
HETATM    1  O1  UNL     1      22.783   5.138  51.847  1.00  0.00    -0.258 OA
HETATM    2  C1  UNL     1      23.837   4.972  51.178  1.00  0.00     0.299 C 
HETATM    3  N2  UNL     1      24.324   3.689  50.735  1.00  0.00    -0.334 N 
HETATM    4  C10 UNL     1      25.516   3.352  49.963  1.00  0.00     0.156 C 
HETATM    5  C11 UNL     1      26.424   2.467  50.775  1.00  0.00     0.025 C 
HETATM    6  C12 UNL     1      25.856   1.651  51.654  1.00  0.00     0.064 A 
HETATM    7  N3  UNL     1      26.879   0.901  52.317  1.00  0.00    -0.242 NA
HETATM    8  C13 UNL     1      26.750   0.000  53.238  1.00  0.00     0.235 A 
HETATM    9  N4  UNL     1      25.558  -0.490  53.839  1.00  0.00    -0.225 NA
HETATM   10  C14 UNL     1      24.316  -0.194  53.655  1.00  0.00     0.129 A 
HETATM   11  C20 UNL     1      23.746   0.780  52.728  1.00  0.00     0.061 A 
HETATM   12  C21 UNL     1      24.419   1.553  51.888  1.00  0.00    -0.008 A 
HETATM   13  C22 UNL     1      23.593   2.461  51.051  1.00  0.00     0.168 C 
ENDROOT
BRANCH   2  14
HETATM   14  C2  UNL     1      24.679   6.090  50.782  1.00  0.00    -0.005 C 
HETATM   15  C3  UNL     1      25.402   7.017  50.458  1.00  0.00    -0.095 C 
BRANCH  15  16
HETATM   16  C4  UNL     1      26.282   8.110  50.083  1.00  0.00     0.124 C 
BRANCH  16  17
HETATM   17  C5  UNL     1      26.458   8.214  48.587  1.00  0.00     0.284 C 
BRANCH  17  18
HETATM   18  N1  UNL     1      27.860   8.224  48.217  1.00  0.00     0.093 N 
HETATM   19  C6  UNL     1      28.574   8.896  49.287  1.00  0.00     0.298 C 
HETATM   20  C7  UNL     1      30.035   8.976  48.882  1.00  0.00     0.198 C 
HETATM   21  O2  UNL     1      30.502   7.648  48.926  1.00  0.00    -0.388 OA
HETATM   22  C8  UNL     1      29.841   6.915  47.973  1.00  0.00     0.198 C 
HETATM   23  C9  UNL     1      28.338   6.855  48.171  1.00  0.00     0.298 C 
ENDBRANCH  17  18
ENDBRANCH  16  17
ENDBRANCH  15  16
ENDBRANCH   2  14
BRANCH  10  24
HETATM   24  N5  UNL     1      23.345  -0.901  54.455  1.00  0.00    -0.351 N 
HETATM   25  H17 UNL     1      23.631  -1.132  55.446  1.00  0.00     0.166 HD
BRANCH  24  26
HETATM   26  C15 UNL     1      22.116  -1.179  53.752  1.00  0.00     0.090 C 
HETATM   27  C16 UNL     1      21.042  -0.537  54.158  1.00  0.00     0.020 C 
BRANCH  27  28
HETATM   28  C17 UNL     1      19.738  -0.756  53.499  1.00  0.00     0.041 C 
HETATM   29  C18 UNL     1      19.320  -0.203  52.380  1.00  0.00     0.122 C 
HETATM   30  F1  UNL     1      18.118  -0.432  51.814  1.00  0.00    -0.208 F 
BRANCH  29  31
HETATM   31  C19 UNL     1      20.064   0.749  51.549  1.00  0.00     0.292 C 
HETATM   32  F2  UNL     1      21.004   0.027  50.817  1.00  0.00    -0.248 F 
ENDBRANCH  29  31
ENDBRANCH  27  28
ENDBRANCH  24  26
ENDBRANCH  10  24
TORSDOF 8
ENDMDL
MODEL 3
REMARK VINA RESULT:      -7.7      5.391      9.588
REMARK  8 active torsions:
REMARK  status: ('A' for Active; 'I' for Inactive)
REMARK    1  A    between atoms: C1_2  and  C2_3 
REMARK       I    between atoms: C1_2  and  N2_13 
REMARK    2  A    between atoms: C3_4  and  C4_5 
REMARK    3  A    between atoms: C4_5  and  C5_6 
REMARK    4  A    between atoms: C5_6  and  N1_7 
REMARK    5  A    between atoms: C14_20  and  N5_21 
REMARK    6  A    between atoms: N5_21  and  C15_22 
REMARK    7  A    between atoms: C16_23  and  C17_24 
REMARK    8  A    between atoms: C18_25  and  C19_27 
ROOT
HETATM    1  O1  UNL     1      19.764  -1.168  53.562  1.00  0.00    -0.258 OA
HETATM    2  C1  UNL     1      19.187  -0.469  52.687  1.00  0.00     0.299 C 
HETATM    3  N2  UNL     1      19.875   0.306  51.683  1.00  0.00    -0.334 N 
HETATM    4  C10 UNL     1      19.340   1.151  50.621  1.00  0.00     0.156 C 
HETATM    5  C11 UNL     1      19.796   2.574  50.816  1.00  0.00     0.025 C 
HETATM    6  C12 UNL     1      20.976   2.764  51.392  1.00  0.00     0.064 A 
HETATM    7  N3  UNL     1      21.224   4.171  51.484  1.00  0.00    -0.242 NA
HETATM    8  C13 UNL     1      22.256   4.777  51.976  1.00  0.00     0.235 A 
HETATM    9  N4  UNL     1      23.425   4.211  52.556  1.00  0.00    -0.225 NA
HETATM   10  C14 UNL     1      23.781   2.987  52.756  1.00  0.00     0.129 A 
HETATM   11  C20 UNL     1      23.049   1.767  52.427  1.00  0.00     0.061 A 
HETATM   12  C21 UNL     1      21.859   1.696  51.848  1.00  0.00    -0.008 A 
HETATM   13  C22 UNL     1      21.337   0.323  51.624  1.00  0.00     0.168 C 
ENDROOT
BRANCH   2  14
HETATM   14  C2  UNL     1      17.738  -0.379  52.610  1.00  0.00    -0.005 C 
HETATM   15  C3  UNL     1      16.523  -0.285  52.556  1.00  0.00    -0.095 C 
BRANCH  15  16
HETATM   16  C4  UNL     1      15.078  -0.151  52.504  1.00  0.00     0.124 C 
BRANCH  16  17
HETATM   17  C5  UNL     1      14.647   1.170  51.910  1.00  0.00     0.284 C 
BRANCH  17  18
HETATM   18  N1  UNL     1      14.326   2.136  52.941  1.00  0.00     0.093 N 
HETATM   19  C6  UNL     1      14.866   3.412  52.506  1.00  0.00     0.298 C 
HETATM   20  C7  UNL     1      14.597   4.421  53.608  1.00  0.00     0.198 C 
HETATM   21  O2  UNL     1      13.201   4.610  53.602  1.00  0.00    -0.388 OA
HETATM   22  C8  UNL     1      12.595   3.430  53.955  1.00  0.00     0.198 C 
HETATM   23  C9  UNL     1      12.883   2.279  53.010  1.00  0.00     0.298 C 
ENDBRANCH  17  18
ENDBRANCH  16  17
ENDBRANCH  15  16
ENDBRANCH   2  14
BRANCH  10  24
HETATM   24  N5  UNL     1      25.061   2.768  53.384  1.00  0.00    -0.351 N 
HETATM   25  H17 UNL     1      25.531   3.617  53.804  1.00  0.00     0.166 HD
BRANCH  24  26
HETATM   26  C15 UNL     1      25.497   1.393  53.335  1.00  0.00     0.090 C 
HETATM   27  C16 UNL     1      26.560   1.134  52.606  1.00  0.00     0.020 C 
BRANCH  27  28
HETATM   28  C17 UNL     1      27.081  -0.244  52.495  1.00  0.00     0.041 C 
HETATM   29  C18 UNL     1      28.034  -0.786  53.225  1.00  0.00     0.122 C 
HETATM   30  F1  UNL     1      28.479  -2.050  53.088  1.00  0.00    -0.208 F 
BRANCH  29  31
HETATM   31  C19 UNL     1      28.780  -0.132  54.305  1.00  0.00     0.292 C 
HETATM   32  F2  UNL     1      29.745   0.683  53.719  1.00  0.00    -0.248 F 
ENDBRANCH  29  31
ENDBRANCH  27  28
ENDBRANCH  24  26
ENDBRANCH  10  24
TORSDOF 8
ENDMDL
MODEL 4
REMARK VINA RESULT:      -7.6      2.843      5.233
REMARK  8 active torsions:
REMARK  status: ('A' for Active; 'I' for Inactive)
REMARK    1  A    between atoms: C1_2  and  C2_3 
REMARK       I    between atoms: C1_2  and  N2_13 
REMARK    2  A    between atoms: C3_4  and  C4_5 
REMARK    3  A    between atoms: C4_5  and  C5_6 
REMARK    4  A    between atoms: C5_6  and  N1_7 
REMARK    5  A    between atoms: C14_20  and  N5_21 
REMARK    6  A    between atoms: N5_21  and  C15_22 
REMARK    7  A    between atoms: C16_23  and  C17_24 
REMARK    8  A    between atoms: C18_25  and  C19_27 
ROOT
HETATM    1  O1  UNL     1      25.885   9.254  50.446  1.00  0.00    -0.258 OA
HETATM    2  C1  UNL     1      26.736   8.699  49.702  1.00  0.00     0.299 C 
HETATM    3  N2  UNL     1      26.500   7.481  48.966  1.00  0.00    -0.334 N 
HETATM    4  C10 UNL     1      27.385   6.735  48.077  1.00  0.00     0.156 C 
HETATM    5  C11 UNL     1      27.625   5.354  48.628  1.00  0.00     0.025 C 
HETATM    6  C12 UNL     1      26.649   4.801  49.338  1.00  0.00     0.064 A 
HETATM    7  N3  UNL     1      27.069   3.502  49.767  1.00  0.00    -0.242 NA
HETATM    8  C13 UNL     1      26.417   2.637  50.475  1.00  0.00     0.235 A 
HETATM    9  N4  UNL     1      25.107   2.741  51.018  1.00  0.00    -0.225 NA
HETATM   10  C14 UNL     1      24.227   3.684  50.969  1.00  0.00     0.129 A 
HETATM   11  C20 UNL     1      24.327   4.982  50.308  1.00  0.00     0.061 A 
HETATM   12  C21 UNL     1      25.366   5.435  49.621  1.00  0.00    -0.008 A 
HETATM   13  C22 UNL     1      25.209   6.797  49.046  1.00  0.00     0.168 C 
ENDROOT
BRANCH   2  14
HETATM   14  C2  UNL     1      28.068   9.252  49.514  1.00  0.00    -0.005 C 
HETATM   15  C3  UNL     1      29.191   9.706  49.375  1.00  0.00    -0.095 C 
BRANCH  15  16
HETATM   16  C4  UNL     1      30.536  10.235  49.231  1.00  0.00     0.124 C 
BRANCH  16  17
HETATM   17  C5  UNL     1      31.401   9.365  48.350  1.00  0.00     0.284 C 
BRANCH  17  18
HETATM   18  N1  UNL     1      31.135   7.957  48.567  1.00  0.00     0.093 N 
HETATM   19  C6  UNL     1      31.489   7.266  47.340  1.00  0.00     0.298 C 
HETATM   20  C7  UNL     1      31.150   5.799  47.528  1.00  0.00     0.198 C 
HETATM   21  O2  UNL     1      32.076   5.326  48.478  1.00  0.00    -0.388 OA
HETATM   22  C8  UNL     1      31.851   5.966  49.671  1.00  0.00     0.198 C 
HETATM   23  C9  UNL     1      32.022   7.472  49.608  1.00  0.00     0.298 C 
ENDBRANCH  17  18
ENDBRANCH  16  17
ENDBRANCH  15  16
ENDBRANCH   2  14
BRANCH  10  24
HETATM   24  N5  UNL     1      22.974   3.452  51.647  1.00  0.00    -0.351 N 
HETATM   25  H17 UNL     1      22.544   4.284  52.138  1.00  0.00     0.166 HD
BRANCH  24  26
HETATM   26  C15 UNL     1      22.506   2.092  51.537  1.00  0.00     0.090 C 
HETATM   27  C16 UNL     1      22.621   1.337  52.607  1.00  0.00     0.020 C 
BRANCH  27  28
HETATM   28  C17 UNL     1      22.169  -0.070  52.591  1.00  0.00     0.041 C 
HETATM   29  C18 UNL     1      21.747  -0.772  53.622  1.00  0.00     0.122 C 
HETATM   30  F1  UNL     1      21.343  -2.056  53.561  1.00  0.00    -0.208 F 
BRANCH  29  31
HETATM   31  C19 UNL     1      21.638  -0.303  55.008  1.00  0.00     0.292 C 
HETATM   32  F2  UNL     1      20.540   0.550  55.081  1.00  0.00    -0.248 F 
ENDBRANCH  29  31
ENDBRANCH  27  28
ENDBRANCH  24  26
ENDBRANCH  10  24
TORSDOF 8
ENDMDL
MODEL 5
REMARK VINA RESULT:      -7.5      4.070      6.073
REMARK  8 active torsions:
REMARK  status: ('A' for Active; 'I' for Inactive)
REMARK    1  A    between atoms: C1_2  and  C2_3 
REMARK       I    between atoms: C1_2  and  N2_13 
REMARK    2  A    between atoms: C3_4  and  C4_5 
REMARK    3  A    between atoms: C4_5  and  C5_6 
REMARK    4  A    between atoms: C5_6  and  N1_7 
REMARK    5  A    between atoms: C14_20  and  N5_21 
REMARK    6  A    between atoms: N5_21  and  C15_22 
REMARK    7  A    between atoms: C16_23  and  C17_24 
REMARK    8  A    between atoms: C18_25  and  C19_27 
ROOT
HETATM    1  O1  UNL     1      26.972   3.073  49.702  1.00  0.00    -0.258 OA
HETATM    2  C1  UNL     1      26.696   4.245  49.334  1.00  0.00     0.299 C 
HETATM    3  N2  UNL     1      25.394   4.852  49.464  1.00  0.00    -0.334 N 
HETATM    4  C10 UNL     1      24.937   6.185  49.085  1.00  0.00     0.156 C 
HETATM    5  C11 UNL     1      23.850   6.082  48.048  1.00  0.00     0.025 C 
HETATM    6  C12 UNL     1      23.064   5.014  48.090  1.00  0.00     0.064 A 
HETATM    7  N3  UNL     1      22.104   5.103  47.032  1.00  0.00    -0.242 NA
HETATM    8  C13 UNL     1      21.160   4.272  46.727  1.00  0.00     0.235 A 
HETATM    9  N4  UNL     1      20.819   3.045  47.360  1.00  0.00    -0.225 NA
HETATM   10  C14 UNL     1      21.327   2.429  48.374  1.00  0.00     0.129 A 
HETATM   11  C20 UNL     1      22.456   2.834  49.206  1.00  0.00     0.061 A 
HETATM   12  C21 UNL     1      23.180   3.936  49.067  1.00  0.00    -0.008 A 
HETATM   13  C22 UNL     1      24.278   4.110  50.052  1.00  0.00     0.168 C 
ENDROOT
BRANCH   2  14
HETATM   14  C2  UNL     1      27.693   5.115  48.730  1.00  0.00    -0.005 C 
HETATM   15  C3  UNL     1      28.528   5.832  48.205  1.00  0.00    -0.095 C 
BRANCH  15  16
HETATM   16  C4  UNL     1      29.519   6.674  47.559  1.00  0.00     0.124 C 
BRANCH  16  17
HETATM   17  C5  UNL     1      30.528   7.224  48.539  1.00  0.00     0.284 C 
BRANCH  17  18
HETATM   18  N1  UNL     1      31.886   6.931  48.126  1.00  0.00     0.093 N 
HETATM   19  C6  UNL     1      32.746   7.897  48.786  1.00  0.00     0.298 C 
HETATM   20  C7  UNL     1      34.165   7.646  48.309  1.00  0.00     0.198 C 
HETATM   21  O2  UNL     1      34.529   6.408  48.873  1.00  0.00    -0.388 OA
HETATM   22  C8  UNL     1      33.727   5.428  48.342  1.00  0.00     0.198 C 
HETATM   23  C9  UNL     1      32.249   5.618  48.625  1.00  0.00     0.298 C 
ENDBRANCH  17  18
ENDBRANCH  16  17
ENDBRANCH  15  16
ENDBRANCH   2  14
BRANCH  10  24
HETATM   24  N5  UNL     1      20.720   1.176  48.755  1.00  0.00    -0.351 N 
HETATM   25  H17 UNL     1      20.684   0.426  48.010  1.00  0.00     0.166 HD
BRANCH  24  26
HETATM   26  C15 UNL     1      20.254   1.156  50.120  1.00  0.00     0.090 C 
HETATM   27  C16 UNL     1      20.944   0.431  50.972  1.00  0.00     0.020 C 
BRANCH  27  28
HETATM   28  C17 UNL     1      20.545   0.349  52.392  1.00  0.00     0.041 C 
HETATM   29  C18 UNL     1      21.343   0.398  53.437  1.00  0.00     0.122 C 
HETATM   30  F1  UNL     1      20.934   0.319  54.719  1.00  0.00    -0.208 F 
BRANCH  29  31
HETATM   31  C19 UNL     1      22.802   0.544  53.412  1.00  0.00     0.292 C 
HETATM   32  F2  UNL     1      23.089   1.866  53.081  1.00  0.00    -0.248 F 
ENDBRANCH  29  31
ENDBRANCH  27  28
ENDBRANCH  24  26
ENDBRANCH  10  24
TORSDOF 8
ENDMDL
MODEL 6
REMARK VINA RESULT:      -7.4      2.374      3.186
REMARK  8 active torsions:
REMARK  status: ('A' for Active; 'I' for Inactive)
REMARK    1  A    between atoms: C1_2  and  C2_3 
REMARK       I    between atoms: C1_2  and  N2_13 
REMARK    2  A    between atoms: C3_4  and  C4_5 
REMARK    3  A    between atoms: C4_5  and  C5_6 
REMARK    4  A    between atoms: C5_6  and  N1_7 
REMARK    5  A    between atoms: C14_20  and  N5_21 
REMARK    6  A    between atoms: N5_21  and  C15_22 
REMARK    7  A    between atoms: C16_23  and  C17_24 
REMARK    8  A    between atoms: C18_25  and  C19_27 
ROOT
HETATM    1  O1  UNL     1      23.713   6.903  51.333  1.00  0.00    -0.258 OA
HETATM    2  C1  UNL     1      24.702   6.615  50.609  1.00  0.00     0.299 C 
HETATM    3  N2  UNL     1      24.910   5.328  49.992  1.00  0.00    -0.334 N 
HETATM    4  C10 UNL     1      25.997   4.860  49.139  1.00  0.00     0.156 C 
HETATM    5  C11 UNL     1      26.715   3.713  49.800  1.00  0.00     0.025 C 
HETATM    6  C12 UNL     1      26.003   2.922  50.594  1.00  0.00     0.064 A 
HETATM    7  N3  UNL     1      26.859   1.903  51.120  1.00  0.00    -0.242 NA
HETATM    8  C13 UNL     1      26.561   0.936  51.927  1.00  0.00     0.235 A 
HETATM    9  N4  UNL     1      25.301   0.622  52.509  1.00  0.00    -0.225 NA
HETATM   10  C14 UNL     1      24.144   1.184  52.410  1.00  0.00     0.129 A 
HETATM   11  C20 UNL     1      23.773   2.364  51.634  1.00  0.00     0.061 A 
HETATM   12  C21 UNL     1      24.580   3.086  50.869  1.00  0.00    -0.008 A 
HETATM   13  C22 UNL     1      23.947   4.242  50.183  1.00  0.00     0.168 C 
ENDROOT
BRANCH   2  14
HETATM   14  C2  UNL     1      25.749   7.582  50.321  1.00  0.00    -0.005 C 
HETATM   15  C3  UNL     1      26.642   8.380  50.090  1.00  0.00    -0.095 C 
BRANCH  15  16
HETATM   16  C4  UNL     1      27.721   9.315  49.828  1.00  0.00     0.124 C 
BRANCH  16  17
HETATM   17  C5  UNL     1      27.891   9.592  48.353  1.00  0.00     0.284 C 
BRANCH  17  18
HETATM   18  N1  UNL     1      28.836  10.666  48.120  1.00  0.00     0.093 N 
HETATM   19  C6  UNL     1      28.285  11.856  48.743  1.00  0.00     0.298 C 
HETATM   20  C7  UNL     1      29.231  13.006  48.448  1.00  0.00     0.198 C 
HETATM   21  O2  UNL     1      30.394  12.726  49.192  1.00  0.00    -0.388 OA
HETATM   22  C8  UNL     1      30.964  11.577  48.703  1.00  0.00     0.198 C 
HETATM   23  C9  UNL     1      30.075  10.352  48.808  1.00  0.00     0.298 C 
ENDBRANCH  17  18
ENDBRANCH  16  17
ENDBRANCH  15  16
ENDBRANCH   2  14
BRANCH  10  24
HETATM   24  N5  UNL     1      23.059   0.591  53.154  1.00  0.00    -0.351 N 
HETATM   25  H17 UNL     1      23.179   0.543  54.204  1.00  0.00     0.166 HD
BRANCH  24  26
HETATM   26  C15 UNL     1      21.965   0.153  52.322  1.00  0.00     0.090 C 
HETATM   27  C16 UNL     1      20.799   0.728  52.523  1.00  0.00     0.020 C 
BRANCH  27  28
HETATM   28  C17 UNL     1      19.620   0.347  51.719  1.00  0.00     0.041 C 
HETATM   29  C18 UNL     1      19.369   0.698  50.476  1.00  0.00     0.122 C 
HETATM   30  F1  UNL     1      18.277   0.326  49.779  1.00  0.00    -0.208 F 
BRANCH  29  31
HETATM   31  C19 UNL     1      20.211   1.545  49.624  1.00  0.00     0.292 C 
HETATM   32  F2  UNL     1      21.230   0.748  49.110  1.00  0.00    -0.248 F 
ENDBRANCH  29  31
ENDBRANCH  27  28
ENDBRANCH  24  26
ENDBRANCH  10  24
TORSDOF 8
ENDMDL
MODEL 7
REMARK VINA RESULT:      -7.3      5.067     10.832
REMARK  8 active torsions:
REMARK  status: ('A' for Active; 'I' for Inactive)
REMARK    1  A    between atoms: C1_2  and  C2_3 
REMARK       I    between atoms: C1_2  and  N2_13 
REMARK    2  A    between atoms: C3_4  and  C4_5 
REMARK    3  A    between atoms: C4_5  and  C5_6 
REMARK    4  A    between atoms: C5_6  and  N1_7 
REMARK    5  A    between atoms: C14_20  and  N5_21 
REMARK    6  A    between atoms: N5_21  and  C15_22 
REMARK    7  A    between atoms: C16_23  and  C17_24 
REMARK    8  A    between atoms: C18_25  and  C19_27 
ROOT
HETATM    1  O1  UNL     1      27.162   2.974  49.342  1.00  0.00    -0.258 OA
HETATM    2  C1  UNL     1      26.215   3.592  49.897  1.00  0.00     0.299 C 
HETATM    3  N2  UNL     1      25.742   4.891  49.489  1.00  0.00    -0.334 N 
HETATM    4  C10 UNL     1      24.668   5.714  50.034  1.00  0.00     0.156 C 
HETATM    5  C11 UNL     1      25.225   7.016  50.547  1.00  0.00     0.025 C 
HETATM    6  C12 UNL     1      26.296   7.506  49.936  1.00  0.00     0.064 A 
HETATM    7  N3  UNL     1      26.667   8.736  50.566  1.00  0.00    -0.242 NA
HETATM    8  C13 UNL     1      27.648   9.529  50.275  1.00  0.00     0.235 A 
HETATM    9  N4  UNL     1      28.623   9.393  49.249  1.00  0.00    -0.225 NA
HETATM   10  C14 UNL     1      28.809   8.483  48.352  1.00  0.00     0.129 A 
HETATM   11  C20 UNL     1      28.032   7.269  48.121  1.00  0.00     0.061 A 
HETATM   12  C21 UNL     1      26.969   6.874  48.806  1.00  0.00    -0.008 A 
HETATM   13  C22 UNL     1      26.361   5.592  48.363  1.00  0.00     0.168 C 
ENDROOT
BRANCH   2  14
HETATM   14  C2  UNL     1      25.494   3.033  51.031  1.00  0.00    -0.005 C 
HETATM   15  C3  UNL     1      24.873   2.577  51.976  1.00  0.00    -0.095 C 
BRANCH  15  16
HETATM   16  C4  UNL     1      24.115   2.049  53.096  1.00  0.00     0.124 C 
BRANCH  16  17
HETATM   17  C5  UNL     1      24.515   0.634  53.441  1.00  0.00     0.284 C 
BRANCH  17  18
HETATM   18  N1  UNL     1      25.954   0.465  53.404  1.00  0.00     0.093 N 
HETATM   19  C6  UNL     1      26.405   0.385  54.782  1.00  0.00     0.298 C 
HETATM   20  C7  UNL     1      27.918   0.277  54.762  1.00  0.00     0.198 C 
HETATM   21  O2  UNL     1      28.189  -0.999  54.229  1.00  0.00    -0.388 OA
HETATM   22  C8  UNL     1      27.747  -1.038  52.930  1.00  0.00     0.198 C 
HETATM   23  C9  UNL     1      26.255  -0.809  52.777  1.00  0.00     0.298 C 
ENDBRANCH  17  18
ENDBRANCH  16  17
ENDBRANCH  15  16
ENDBRANCH   2  14
BRANCH  10  24
HETATM   24  N5  UNL     1      29.921   8.665  47.451  1.00  0.00    -0.351 N 
HETATM   25  H17 UNL     1      30.119   9.657  47.143  1.00  0.00     0.166 HD
BRANCH  24  26
HETATM   26  C15 UNL     1      30.593   7.434  47.113  1.00  0.00     0.090 C 
HETATM   27  C16 UNL     1      31.907   7.462  47.093  1.00  0.00     0.020 C 
BRANCH  27  28
HETATM   28  C17 UNL     1      32.684   6.250  46.759  1.00  0.00     0.041 C 
HETATM   29  C18 UNL     1      33.744   5.795  47.394  1.00  0.00     0.122 C 
HETATM   30  F1  UNL     1      34.422   4.682  47.053  1.00  0.00    -0.208 F 
BRANCH  29  31
HETATM   31  C19 UNL     1      34.379   6.399  48.570  1.00  0.00     0.292 C 
HETATM   32  F2  UNL     1      35.719   6.619  48.260  1.00  0.00    -0.248 F 
ENDBRANCH  29  31
ENDBRANCH  27  28
ENDBRANCH  24  26
ENDBRANCH  10  24
TORSDOF 8
ENDMDL
MODEL 8
REMARK VINA RESULT:      -7.3      3.070      4.773
REMARK  8 active torsions:
REMARK  status: ('A' for Active; 'I' for Inactive)
REMARK    1  A    between atoms: C1_2  and  C2_3 
REMARK       I    between atoms: C1_2  and  N2_13 
REMARK    2  A    between atoms: C3_4  and  C4_5 
REMARK    3  A    between atoms: C4_5  and  C5_6 
REMARK    4  A    between atoms: C5_6  and  N1_7 
REMARK    5  A    between atoms: C14_20  and  N5_21 
REMARK    6  A    between atoms: N5_21  and  C15_22 
REMARK    7  A    between atoms: C16_23  and  C17_24 
REMARK    8  A    between atoms: C18_25  and  C19_27 
ROOT
HETATM    1  O1  UNL     1      25.686   2.705  50.705  1.00  0.00    -0.258 OA
HETATM    2  C1  UNL     1      25.356   3.915  50.594  1.00  0.00     0.299 C 
HETATM    3  N2  UNL     1      24.276   4.533  51.322  1.00  0.00    -0.334 N 
HETATM    4  C10 UNL     1      23.788   5.908  51.292  1.00  0.00     0.156 C 
HETATM    5  C11 UNL     1      22.358   5.938  50.820  1.00  0.00     0.025 C 
HETATM    6  C12 UNL     1      21.598   4.888  51.105  1.00  0.00     0.064 A 
HETATM    7  N3  UNL     1      20.287   5.109  50.575  1.00  0.00    -0.242 NA
HETATM    8  C13 UNL     1      19.251   4.335  50.637  1.00  0.00     0.235 A 
HETATM    9  N4  UNL     1      19.134   3.056  51.248  1.00  0.00    -0.225 NA
HETATM   10  C14 UNL     1      19.985   2.327  51.888  1.00  0.00     0.129 A 
HETATM   11  C20 UNL     1      21.385   2.617  52.184  1.00  0.00     0.061 A 
HETATM   12  C21 UNL     1      22.049   3.712  51.841  1.00  0.00    -0.008 A 
HETATM   13  C22 UNL     1      23.472   3.758  52.268  1.00  0.00     0.168 C 
ENDROOT
BRANCH   2  14
HETATM   14  C2  UNL     1      26.054   4.821  49.695  1.00  0.00    -0.005 C 
HETATM   15  C3  UNL     1      26.652   5.587  48.959  1.00  0.00    -0.095 C 
BRANCH  15  16
HETATM   16  C4  UNL     1      27.378   6.507  48.102  1.00  0.00     0.124 C 
BRANCH  16  17
HETATM   17  C5  UNL     1      28.841   6.148  47.986  1.00  0.00     0.284 C 
BRANCH  17  18
HETATM   18  N1  UNL     1      29.689   7.199  48.512  1.00  0.00     0.093 N 
HETATM   19  C6  UNL     1      30.612   7.566  47.453  1.00  0.00     0.298 C 
HETATM   20  C7  UNL     1      31.553   8.618  48.011  1.00  0.00     0.198 C 
HETATM   21  O2  UNL     1      30.756   9.764  48.195  1.00  0.00    -0.388 OA
HETATM   22  C8  UNL     1      29.810   9.495  49.153  1.00  0.00     0.198 C 
HETATM   23  C9  UNL     1      28.868   8.362  48.792  1.00  0.00     0.298 C 
ENDBRANCH  17  18
ENDBRANCH  16  17
ENDBRANCH  15  16
ENDBRANCH   2  14
BRANCH  10  24
HETATM   24  N5  UNL     1      19.519   1.054  52.385  1.00  0.00    -0.351 N 
HETATM   25  H17 UNL     1      18.693   0.627  51.881  1.00  0.00     0.166 HD
BRANCH  24  26
HETATM   26  C15 UNL     1      20.275   0.567  53.512  1.00  0.00     0.090 C 
HETATM   27  C16 UNL     1      20.753  -0.655  53.422  1.00  0.00     0.020 C 
BRANCH  27  28
HETATM   28  C17 UNL     1      21.542  -1.241  54.526  1.00  0.00     0.041 C 
HETATM   29  C18 UNL     1      22.830  -1.080  54.743  1.00  0.00     0.122 C 
HETATM   30  F1  UNL     1      23.510  -1.636  55.766  1.00  0.00    -0.208 F 
BRANCH  29  31
HETATM   31  C19 UNL     1      23.756  -0.282  53.933  1.00  0.00     0.292 C 
HETATM   32  F2  UNL     1      24.575  -1.166  53.235  1.00  0.00    -0.248 F 
ENDBRANCH  29  31
ENDBRANCH  27  28
ENDBRANCH  24  26
ENDBRANCH  10  24
TORSDOF 8
ENDMDL
MODEL 9
REMARK VINA RESULT:      -7.2      4.943     11.061
REMARK  8 active torsions:
REMARK  status: ('A' for Active; 'I' for Inactive)
REMARK    1  A    between atoms: C1_2  and  C2_3 
REMARK       I    between atoms: C1_2  and  N2_13 
REMARK    2  A    between atoms: C3_4  and  C4_5 
REMARK    3  A    between atoms: C4_5  and  C5_6 
REMARK    4  A    between atoms: C5_6  and  N1_7 
REMARK    5  A    between atoms: C14_20  and  N5_21 
REMARK    6  A    between atoms: N5_21  and  C15_22 
REMARK    7  A    between atoms: C16_23  and  C17_24 
REMARK    8  A    between atoms: C18_25  and  C19_27 
ROOT
HETATM    1  O1  UNL     1      27.155   2.889  49.772  1.00  0.00    -0.258 OA
HETATM    2  C1  UNL     1      26.133   3.583  50.018  1.00  0.00     0.299 C 
HETATM    3  N2  UNL     1      25.833   4.843  49.383  1.00  0.00    -0.334 N 
HETATM    4  C10 UNL     1      24.699   5.742  49.571  1.00  0.00     0.156 C 
HETATM    5  C11 UNL     1      25.179   7.078  50.075  1.00  0.00     0.025 C 
HETATM    6  C12 UNL     1      26.387   7.477  49.696  1.00  0.00     0.064 A 
HETATM    7  N3  UNL     1      26.654   8.758  50.275  1.00  0.00    -0.242 NA
HETATM    8  C13 UNL     1      27.712   9.493  50.154  1.00  0.00     0.235 A 
HETATM    9  N4  UNL     1      28.896   9.229  49.412  1.00  0.00    -0.225 NA
HETATM   10  C14 UNL     1      29.247   8.225  48.680  1.00  0.00     0.129 A 
HETATM   11  C20 UNL     1      28.492   7.011  48.386  1.00  0.00     0.061 A 
HETATM   12  C21 UNL     1      27.279   6.714  48.829  1.00  0.00    -0.008 A 
HETATM   13  C22 UNL     1      26.734   5.407  48.378  1.00  0.00     0.168 C 
ENDROOT
BRANCH   2  14
HETATM   14  C2  UNL     1      25.137   3.163  50.993  1.00  0.00    -0.005 C 
HETATM   15  C3  UNL     1      24.298   2.832  51.812  1.00  0.00    -0.095 C 
BRANCH  15  16
HETATM   16  C4  UNL     1      23.292   2.461  52.792  1.00  0.00     0.124 C 
BRANCH  16  17
HETATM   17  C5  UNL     1      22.583   1.178  52.426  1.00  0.00     0.284 C 
BRANCH  17  18
HETATM   18  N1  UNL     1      22.215   0.420  53.605  1.00  0.00     0.093 N 
HETATM   19  C6  UNL     1      21.188  -0.522  53.197  1.00  0.00     0.298 C 
HETATM   20  C7  UNL     1      20.743  -1.278  54.435  1.00  0.00     0.198 C 
HETATM   21  O2  UNL     1      21.841  -2.085  54.789  1.00  0.00    -0.388 OA
HETATM   22  C8  UNL     1      22.889  -1.274  55.145  1.00  0.00     0.198 C 
HETATM   23  C9  UNL     1      23.364  -0.354  54.036  1.00  0.00     0.298 C 
ENDBRANCH  17  18
ENDBRANCH  16  17
ENDBRANCH  15  16
ENDBRANCH   2  14
BRANCH  10  24
HETATM   24  N5  UNL     1      30.550   8.286  48.061  1.00  0.00    -0.351 N 
HETATM   25  H17 UNL     1      30.634   8.898  47.202  1.00  0.00     0.166 HD
BRANCH  24  26
HETATM   26  C15 UNL     1      31.543   7.485  48.733  1.00  0.00     0.090 C 
HETATM   27  C16 UNL     1      32.653   7.239  48.073  1.00  0.00     0.020 C 
BRANCH  27  28
HETATM   28  C17 UNL     1      33.729   6.428  48.680  1.00  0.00     0.041 C 
HETATM   29  C18 UNL     1      34.378   5.433  48.113  1.00  0.00     0.122 C 
HETATM   30  F1  UNL     1      35.355   4.719  48.706  1.00  0.00    -0.208 F 
BRANCH  29  31
HETATM   31  C19 UNL     1      34.170   4.919  46.755  1.00  0.00     0.292 C 
HETATM   32  F2  UNL     1      33.334   3.809  46.848  1.00  0.00    -0.248 F 
ENDBRANCH  29  31
ENDBRANCH  27  28
ENDBRANCH  24  26
ENDBRANCH  10  24
TORSDOF 8
ENDMDL
