MODEL 1
REMARK VINA RESULT:      -8.3      0.000      0.000
REMARK  5 active torsions:
REMARK  status: ('A' for Active; 'I' for Inactive)
REMARK    1  A    between atoms: C3_3  and  C4_4 
REMARK    2  A    between atoms: C7_7  and  C8_8 
REMARK    3  A    between atoms: C13_14  and  O1_15 
REMARK    4  A    between atoms: N1_16  and  C14_17 
REMARK    5  A    between atoms: C14_17  and  C15_18 
ROOT
HETATM    1  C4  UNL     1      24.970   4.195  49.248  1.00  0.00     0.025 C 
HETATM    2  C5  UNL     1      24.359   3.786  50.350  1.00  0.00     0.016 C 
HETATM    3  C6  UNL     1      23.905   2.403  50.559  1.00  0.00     0.087 C 
HETATM    4  C7  UNL     1      24.004   1.899  51.956  1.00  0.00     0.131 C 
HETATM    5  N1  UNL     1      24.387   2.869  52.942  1.00  0.00    -0.320 N 
HETATM    6  C21 UNL     1      24.142   4.256  52.750  1.00  0.00     0.323 C 
HETATM    7  O2  UNL     1      23.954   4.996  53.727  1.00  0.00    -0.247 OA
HETATM    8  N2  UNL     1      24.129   4.733  51.387  1.00  0.00    -0.312 N 
HETATM    9  H20 UNL     1      23.953   5.744  51.193  1.00  0.00     0.170 HD
ENDROOT
BRANCH   4  10
HETATM   10  C8  UNL     1      22.675   1.278  52.285  1.00  0.00    -0.000 A 
HETATM   11  C9  UNL     1      21.558   1.944  51.812  1.00  0.00     0.012 A 
HETATM   12  C10 UNL     1      20.264   1.508  52.025  1.00  0.00     0.002 A 
HETATM   13  C11 UNL     1      20.065   0.334  52.757  1.00  0.00     0.022 A 
HETATM   14  C12 UNL     1      21.183  -0.301  53.212  1.00  0.00     0.044 A 
HETATM   15 BR1  UNL     1      20.932  -1.916  54.218  1.00  0.00    -0.048 Br
HETATM   16  C13 UNL     1      22.468   0.111  53.012  1.00  0.00     0.091 A 
BRANCH  16  17
HETATM   17  O1  UNL     1      23.613  -0.519  53.464  1.00  0.00    -0.359 OA
HETATM   18  H13 UNL     1      24.334  -0.013  53.946  1.00  0.00     0.217 HD
ENDBRANCH  16  17
ENDBRANCH   4  10
BRANCH   5  19
HETATM   19  C14 UNL     1      25.025   2.378  54.130  1.00  0.00     0.167 C 
BRANCH  19  20
HETATM   20  C15 UNL     1      26.372   1.834  53.944  1.00  0.00    -0.040 A 
HETATM   21  C16 UNL     1      26.636   0.587  54.487  1.00  0.00     0.012 A 
HETATM   22  C17 UNL     1      27.880  -0.033  54.372  1.00  0.00     0.043 A 
HETATM   23  C18 UNL     1      28.909   0.604  53.692  1.00  0.00     0.116 A 
HETATM   24  F1  UNL     1      30.128   0.029  53.562  1.00  0.00    -0.206 F 
HETATM   25  C19 UNL     1      28.638   1.826  53.164  1.00  0.00     0.043 A 
HETATM   26  C20 UNL     1      27.409   2.445  53.274  1.00  0.00     0.012 A 
ENDBRANCH  19  20
ENDBRANCH   5  19
BRANCH   1  27
HETATM   27  C3  UNL     1      25.462   5.528  48.927  1.00  0.00    -0.002 C 
HETATM   28  C2  UNL     1      26.697   5.845  48.647  1.00  0.00    -0.031 C 
HETATM   29  C1  UNL     1      27.815   4.877  48.609  1.00  0.00     0.036 C 
ENDBRANCH   1  27
TORSDOF 5
ENDMDL
MODEL 2
REMARK VINA RESULT:      -8.3      1.574      1.940
REMARK  5 active torsions:
REMARK  status: ('A' for Active; 'I' for Inactive)
REMARK    1  A    between atoms: C3_3  and  C4_4 
REMARK    2  A    between atoms: C7_7  and  C8_8 
REMARK    3  A    between atoms: C13_14  and  O1_15 
REMARK    4  A    between atoms: N1_16  and  C14_17 
REMARK    5  A    between atoms: C14_17  and  C15_18 
ROOT
HETATM    1  C4  UNL     1      25.421   3.763  49.183  1.00  0.00     0.025 C 
HETATM    2  C5  UNL     1      24.583   3.450  50.162  1.00  0.00     0.016 C 
HETATM    3  C6  UNL     1      23.444   2.536  49.991  1.00  0.00     0.087 C 
HETATM    4  C7  UNL     1      23.124   1.682  51.168  1.00  0.00     0.131 C 
HETATM    5  N1  UNL     1      23.869   1.965  52.362  1.00  0.00    -0.320 N 
HETATM    6  C21 UNL     1      24.421   3.252  52.603  1.00  0.00     0.323 C 
HETATM    7  O2  UNL     1      24.563   3.662  53.765  1.00  0.00    -0.247 OA
HETATM    8  N2  UNL     1      24.795   4.029  51.444  1.00  0.00    -0.312 N 
HETATM    9  H20 UNL     1      25.205   4.981  51.568  1.00  0.00     0.170 HD
ENDROOT
BRANCH   4  10
HETATM   10  C8  UNL     1      21.645   1.808  51.402  1.00  0.00    -0.000 A 
HETATM   11  C9  UNL     1      21.127   3.090  51.354  1.00  0.00     0.012 A 
HETATM   12  C10 UNL     1      19.790   3.380  51.546  1.00  0.00     0.002 A 
HETATM   13  C11 UNL     1      18.906   2.327  51.803  1.00  0.00     0.022 A 
HETATM   14  C12 UNL     1      19.444   1.074  51.846  1.00  0.00     0.044 A 
HETATM   15 BR1  UNL     1      18.249  -0.385  52.197  1.00  0.00    -0.048 Br
HETATM   16  C13 UNL     1      20.760   0.767  51.658  1.00  0.00     0.091 A 
BRANCH  16  17
HETATM   17  O1  UNL     1      21.322  -0.496  51.697  1.00  0.00    -0.359 OA
HETATM   18  H13 UNL     1      22.275  -0.654  51.422  1.00  0.00     0.217 HD
ENDBRANCH  16  17
ENDBRANCH   4  10
BRANCH   5  19
HETATM   19  C14 UNL     1      24.030   0.893  53.303  1.00  0.00     0.167 C 
BRANCH  19  20
HETATM   20  C15 UNL     1      25.395   0.387  53.455  1.00  0.00    -0.040 A 
HETATM   21  C16 UNL     1      25.865  -0.480  52.483  1.00  0.00     0.012 A 
HETATM   22  C17 UNL     1      27.150  -1.024  52.520  1.00  0.00     0.043 A 
HETATM   23  C18 UNL     1      28.007  -0.700  53.561  1.00  0.00     0.116 A 
HETATM   24  F1  UNL     1      29.259  -1.211  53.627  1.00  0.00    -0.206 F 
HETATM   25  C19 UNL     1      27.535   0.151  54.509  1.00  0.00     0.043 A 
HETATM   26  C20 UNL     1      26.266   0.693  54.478  1.00  0.00     0.012 A 
ENDBRANCH  19  20
ENDBRANCH   5  19
BRANCH   1  27
HETATM   27  C3  UNL     1      26.576   4.649  49.230  1.00  0.00    -0.002 C 
HETATM   28  C2  UNL     1      26.598   5.902  48.865  1.00  0.00    -0.031 C 
HETATM   29  C1  UNL     1      25.425   6.635  48.336  1.00  0.00     0.036 C 
ENDBRANCH   1  27
TORSDOF 5
ENDMDL
MODEL 3
REMARK VINA RESULT:      -8.1      3.159      6.116
REMARK  5 active torsions:
REMARK  status: ('A' for Active; 'I' for Inactive)
REMARK    1  A    between atoms: C3_3  and  C4_4 
REMARK    2  A    between atoms: C7_7  and  C8_8 
REMARK    3  A    between atoms: C13_14  and  O1_15 
REMARK    4  A    between atoms: N1_16  and  C14_17 
REMARK    5  A    between atoms: C14_17  and  C15_18 
ROOT
HETATM    1  C4  UNL     1      27.644   1.176  52.657  1.00  0.00     0.025 C 
HETATM    2  C5  UNL     1      26.693   2.042  52.337  1.00  0.00     0.016 C 
HETATM    3  C6  UNL     1      26.220   2.255  50.961  1.00  0.00     0.087 C 
HETATM    4  C7  UNL     1      24.769   2.556  50.820  1.00  0.00     0.131 C 
HETATM    5  N1  UNL     1      24.051   2.748  52.048  1.00  0.00    -0.320 N 
HETATM    6  C21 UNL     1      24.710   3.182  53.230  1.00  0.00     0.323 C 
HETATM    7  O2  UNL     1      24.096   3.847  54.078  1.00  0.00    -0.247 OA
HETATM    8  N2  UNL     1      26.098   2.808  53.378  1.00  0.00    -0.312 N 
HETATM    9  H20 UNL     1      26.626   3.102  54.229  1.00  0.00     0.170 HD
ENDROOT
BRANCH   4  10
HETATM   10  C8  UNL     1      24.665   3.763  49.930  1.00  0.00    -0.000 A 
HETATM   11  C9  UNL     1      25.674   4.701  50.055  1.00  0.00     0.012 A 
HETATM   12  C10 UNL     1      25.729   5.865  49.311  1.00  0.00     0.002 A 
HETATM   13  C11 UNL     1      24.715   6.115  48.383  1.00  0.00     0.022 A 
HETATM   14  C12 UNL     1      23.732   5.174  48.281  1.00  0.00     0.044 A 
HETATM   15 BR1  UNL     1      22.330   5.498  47.012  1.00  0.00    -0.048 Br
HETATM   16  C13 UNL     1      23.660   4.019  49.004  1.00  0.00     0.091 A 
BRANCH  16  17
HETATM   17  O1  UNL     1      22.674   3.055  48.914  1.00  0.00    -0.359 OA
HETATM   18  H13 UNL     1      22.881   2.080  49.036  1.00  0.00     0.217 HD
ENDBRANCH  16  17
ENDBRANCH   4  10
BRANCH   5  19
HETATM   19  C14 UNL     1      22.640   2.486  52.030  1.00  0.00     0.167 C 
BRANCH  19  20
HETATM   20  C15 UNL     1      22.217   1.266  52.719  1.00  0.00    -0.040 A 
HETATM   21  C16 UNL     1      20.899   1.195  53.140  1.00  0.00     0.012 A 
HETATM   22  C17 UNL     1      20.382   0.083  53.803  1.00  0.00     0.043 A 
HETATM   23  C18 UNL     1      21.199  -1.007  54.065  1.00  0.00     0.116 A 
HETATM   24  F1  UNL     1      20.728  -2.101  54.708  1.00  0.00    -0.206 F 
HETATM   25  C19 UNL     1      22.490  -0.927  53.648  1.00  0.00     0.043 A 
HETATM   26  C20 UNL     1      23.008   0.170  52.991  1.00  0.00     0.012 A 
ENDBRANCH  19  20
ENDBRANCH   5  19
BRANCH   1  27
HETATM   27  C3  UNL     1      28.193   0.880  53.973  1.00  0.00    -0.002 C 
HETATM   28  C2  UNL     1      28.950  -0.138  54.279  1.00  0.00    -0.031 C 
HETATM   29  C1  UNL     1      29.381  -1.173  53.313  1.00  0.00     0.036 C 
ENDBRANCH   1  27
TORSDOF 5
ENDMDL
MODEL 4
REMARK VINA RESULT:      -7.9      3.247      5.592
REMARK  5 active torsions:
REMARK  status: ('A' for Active; 'I' for Inactive)
REMARK    1  A    between atoms: C3_3  and  C4_4 
REMARK    2  A    between atoms: C7_7  and  C8_8 
REMARK    3  A    between atoms: C13_14  and  O1_15 
REMARK    4  A    between atoms: N1_16  and  C14_17 
REMARK    5  A    between atoms: C14_17  and  C15_18 
ROOT
HETATM    1  C4  UNL     1      26.736  -1.007  53.209  1.00  0.00     0.025 C 
HETATM    2  C5  UNL     1      25.879  -0.156  52.663  1.00  0.00     0.016 C 
HETATM    3  C6  UNL     1      24.427  -0.208  52.894  1.00  0.00     0.087 C 
HETATM    4  C7  UNL     1      23.738   1.111  52.944  1.00  0.00     0.131 C 
HETATM    5  N1  UNL     1      24.547   2.249  52.613  1.00  0.00    -0.320 N 
HETATM    6  C21 UNL     1      25.691   2.127  51.778  1.00  0.00     0.323 C 
HETATM    7  O2  UNL     1      26.050   3.078  51.070  1.00  0.00    -0.247 OA
HETATM    8  N2  UNL     1      26.388   0.861  51.808  1.00  0.00    -0.312 N 
HETATM    9  H20 UNL     1      27.234   0.721  51.213  1.00  0.00     0.170 HD
ENDROOT
BRANCH   4  10
HETATM   10  C8  UNL     1      22.543   1.005  52.037  1.00  0.00    -0.000 A 
HETATM   11  C9  UNL     1      22.763   1.291  50.702  1.00  0.00     0.012 A 
HETATM   12  C10 UNL     1      21.774   1.241  49.739  1.00  0.00     0.002 A 
HETATM   13  C11 UNL     1      20.479   0.883  50.126  1.00  0.00     0.022 A 
HETATM   14  C12 UNL     1      20.290   0.608  51.449  1.00  0.00     0.044 A 
HETATM   15 BR1  UNL     1      18.520   0.114  52.002  1.00  0.00    -0.048 Br
HETATM   16  C13 UNL     1      21.253   0.651  52.415  1.00  0.00     0.091 A 
BRANCH  16  17
HETATM   17  O1  UNL     1      21.080   0.374  53.759  1.00  0.00    -0.359 OA
HETATM   18  H13 UNL     1      20.440   0.902  54.324  1.00  0.00     0.217 HD
ENDBRANCH  16  17
ENDBRANCH   4  10
BRANCH   5  19
HETATM   19  C14 UNL     1      24.150   3.516  53.158  1.00  0.00     0.167 C 
BRANCH  19  20
HETATM   20  C15 UNL     1      23.267   4.319  52.311  1.00  0.00    -0.040 A 
HETATM   21  C16 UNL     1      23.860   5.248  51.472  1.00  0.00     0.012 A 
HETATM   22  C17 UNL     1      23.121   6.067  50.618  1.00  0.00     0.043 A 
HETATM   23  C18 UNL     1      21.738   5.968  50.590  1.00  0.00     0.116 A 
HETATM   24  F1  UNL     1      20.992   6.748  49.774  1.00  0.00    -0.206 F 
HETATM   25  C19 UNL     1      21.168   5.053  51.418  1.00  0.00     0.043 A 
HETATM   26  C20 UNL     1      21.892   4.239  52.264  1.00  0.00     0.012 A 
ENDBRANCH  19  20
ENDBRANCH   5  19
BRANCH   1  27
HETATM   27  C3  UNL     1      28.183  -1.057  53.056  1.00  0.00    -0.002 C 
HETATM   28  C2  UNL     1      29.056  -0.425  53.793  1.00  0.00    -0.031 C 
HETATM   29  C1  UNL     1      28.703   0.459  54.926  1.00  0.00     0.036 C 
ENDBRANCH   1  27
TORSDOF 5
ENDMDL
MODEL 5
REMARK VINA RESULT:      -7.8      2.955      4.355
REMARK  5 active torsions:
REMARK  status: ('A' for Active; 'I' for Inactive)
REMARK    1  A    between atoms: C3_3  and  C4_4 
REMARK    2  A    between atoms: C7_7  and  C8_8 
REMARK    3  A    between atoms: C13_14  and  O1_15 
REMARK    4  A    between atoms: N1_16  and  C14_17 
REMARK    5  A    between atoms: C14_17  and  C15_18 
ROOT
HETATM    1  C4  UNL     1      20.658   2.285  47.932  1.00  0.00     0.025 C 
HETATM    2  C5  UNL     1      20.965   2.342  49.220  1.00  0.00     0.016 C 
HETATM    3  C6  UNL     1      21.612   1.239  49.948  1.00  0.00     0.087 C 
HETATM    4  C7  UNL     1      22.573   1.647  51.010  1.00  0.00     0.131 C 
HETATM    5  N1  UNL     1      22.633   3.054  51.288  1.00  0.00    -0.320 N 
HETATM    6  C21 UNL     1      21.527   3.908  51.026  1.00  0.00     0.323 C 
HETATM    7  O2  UNL     1      21.347   4.923  51.714  1.00  0.00    -0.247 OA
HETATM    8  N2  UNL     1      20.654   3.530  49.938  1.00  0.00    -0.312 N 
HETATM    9  H20 UNL     1      19.828   4.124  49.706  1.00  0.00     0.170 HD
ENDROOT
BRANCH   4  10
HETATM   10  C8  UNL     1      22.214   0.860  52.239  1.00  0.00    -0.000 A 
HETATM   11  C9  UNL     1      20.865   0.758  52.526  1.00  0.00     0.012 A 
HETATM   12  C10 UNL     1      20.367   0.070  53.616  1.00  0.00     0.002 A 
HETATM   13  C11 UNL     1      21.268  -0.558  54.480  1.00  0.00     0.022 A 
HETATM   14  C12 UNL     1      22.592  -0.440  54.174  1.00  0.00     0.044 A 
HETATM   15 BR1  UNL     1      23.847  -1.295  55.348  1.00  0.00    -0.048 Br
HETATM   16  C13 UNL     1      23.104   0.232  53.103  1.00  0.00     0.091 A 
BRANCH  16  17
HETATM   17  O1  UNL     1      24.442   0.361  52.777  1.00  0.00    -0.359 OA
HETATM   18  H13 UNL     1      24.871   1.263  52.673  1.00  0.00     0.217 HD
ENDBRANCH  16  17
ENDBRANCH   4  10
BRANCH   5  19
HETATM   19  C14 UNL     1      23.855   3.560  51.843  1.00  0.00     0.167 C 
BRANCH  19  20
HETATM   20  C15 UNL     1      24.894   3.906  50.871  1.00  0.00    -0.040 A 
HETATM   21  C16 UNL     1      24.903   5.202  50.381  1.00  0.00     0.012 A 
HETATM   22  C17 UNL     1      25.845   5.647  49.454  1.00  0.00     0.043 A 
HETATM   23  C18 UNL     1      26.819   4.777  48.987  1.00  0.00     0.116 A 
HETATM   24  F1  UNL     1      27.747   5.178  48.087  1.00  0.00    -0.206 F 
HETATM   25  C19 UNL     1      26.800   3.509  49.474  1.00  0.00     0.043 A 
HETATM   26  C20 UNL     1      25.872   3.062  50.392  1.00  0.00     0.012 A 
ENDBRANCH  19  20
ENDBRANCH   5  19
BRANCH   1  27
HETATM   27  C3  UNL     1      20.020   3.304  47.109  1.00  0.00    -0.002 C 
HETATM   28  C2  UNL     1      20.565   3.929  46.100  1.00  0.00    -0.031 C 
HETATM   29  C1  UNL     1      21.947   3.692  45.625  1.00  0.00     0.036 C 
ENDBRANCH   1  27
TORSDOF 5
ENDMDL
MODEL 6
REMARK VINA RESULT:      -7.5      2.515      5.589
REMARK  5 active torsions:
REMARK  status: ('A' for Active; 'I' for Inactive)
REMARK    1  A    between atoms: C3_3  and  C4_4 
REMARK    2  A    between atoms: C7_7  and  C8_8 
REMARK    3  A    between atoms: C13_14  and  O1_15 
REMARK    4  A    between atoms: N1_16  and  C14_17 
REMARK    5  A    between atoms: C14_17  and  C15_18 
ROOT
HETATM    1  C4  UNL     1      20.208   1.283  52.164  1.00  0.00     0.025 C 
HETATM    2  C5  UNL     1      21.499   1.548  52.020  1.00  0.00     0.016 C 
HETATM    3  C6  UNL     1      22.029   2.902  51.803  1.00  0.00     0.087 C 
HETATM    4  C7  UNL     1      23.348   3.184  52.434  1.00  0.00     0.131 C 
HETATM    5  N1  UNL     1      24.000   2.060  53.042  1.00  0.00    -0.320 N 
HETATM    6  C21 UNL     1      23.737   0.730  52.613  1.00  0.00     0.323 C 
HETATM    7  O2  UNL     1      24.615  -0.140  52.708  1.00  0.00    -0.247 OA
HETATM    8  N2  UNL     1      22.422   0.466  52.077  1.00  0.00    -0.312 N 
HETATM    9  H20 UNL     1      22.180  -0.495  51.748  1.00  0.00     0.170 HD
ENDROOT
BRANCH   4  10
HETATM   10  C8  UNL     1      24.208   3.807  51.370  1.00  0.00    -0.000 A 
HETATM   11  C9  UNL     1      24.725   2.944  50.421  1.00  0.00     0.012 A 
HETATM   12  C10 UNL     1      25.533   3.354  49.378  1.00  0.00     0.002 A 
HETATM   13  C11 UNL     1      25.849   4.712  49.269  1.00  0.00     0.022 A 
HETATM   14  C12 UNL     1      25.327   5.540  50.219  1.00  0.00     0.044 A 
HETATM   15 BR1  UNL     1      25.749   7.407  50.088  1.00  0.00    -0.048 Br
HETATM   16  C13 UNL     1      24.527   5.156  51.256  1.00  0.00     0.091 A 
BRANCH  16  17
HETATM   17  O1  UNL     1      23.989   5.980  52.226  1.00  0.00    -0.359 OA
HETATM   18  H13 UNL     1      24.235   6.952  52.284  1.00  0.00     0.217 HD
ENDBRANCH  16  17
ENDBRANCH   4  10
BRANCH   5  19
HETATM   19  C14 UNL     1      24.929   2.335  54.101  1.00  0.00     0.167 C 
BRANCH  19  20
HETATM   20  C15 UNL     1      26.281   1.809  53.905  1.00  0.00    -0.040 A 
HETATM   21  C16 UNL     1      26.700   0.794  54.749  1.00  0.00     0.012 A 
HETATM   22  C17 UNL     1      27.965   0.214  54.656  1.00  0.00     0.043 A 
HETATM   23  C18 UNL     1      28.857   0.654  53.690  1.00  0.00     0.116 A 
HETATM   24  F1  UNL     1      30.092   0.113  53.573  1.00  0.00    -0.206 F 
HETATM   25  C19 UNL     1      28.436   1.651  52.867  1.00  0.00     0.043 A 
HETATM   26  C20 UNL     1      27.186   2.229  52.954  1.00  0.00     0.012 A 
ENDBRANCH  19  20
ENDBRANCH   5  19
BRANCH   1  27
HETATM   27  C3  UNL     1      19.568  -0.008  52.381  1.00  0.00    -0.002 C 
HETATM   28  C2  UNL     1      18.400  -0.373  51.926  1.00  0.00    -0.031 C 
HETATM   29  C1  UNL     1      17.525   0.488  51.098  1.00  0.00     0.036 C 
ENDBRANCH   1  27
TORSDOF 5
ENDMDL
MODEL 7
REMARK VINA RESULT:      -7.5      2.300      2.560
REMARK  5 active torsions:
REMARK  status: ('A' for Active; 'I' for Inactive)
REMARK    1  A    between atoms: C3_3  and  C4_4 
REMARK    2  A    between atoms: C7_7  and  C8_8 
REMARK    3  A    between atoms: C13_14  and  O1_15 
REMARK    4  A    between atoms: N1_16  and  C14_17 
REMARK    5  A    between atoms: C14_17  and  C15_18 
ROOT
HETATM    1  C4  UNL     1      25.553   5.091  48.939  1.00  0.00     0.025 C 
HETATM    2  C5  UNL     1      24.672   4.646  49.823  1.00  0.00     0.016 C 
HETATM    3  C6  UNL     1      23.982   3.353  49.700  1.00  0.00     0.087 C 
HETATM    4  C7  UNL     1      23.713   2.644  50.981  1.00  0.00     0.131 C 
HETATM    5  N1  UNL     1      24.024   3.378  52.175  1.00  0.00    -0.320 N 
HETATM    6  C21 UNL     1      24.035   4.799  52.189  1.00  0.00     0.323 C 
HETATM    7  O2  UNL     1      23.761   5.414  53.230  1.00  0.00    -0.247 OA
HETATM    8  N2  UNL     1      24.376   5.461  50.951  1.00  0.00    -0.312 N 
HETATM    9  H20 UNL     1      24.398   6.504  50.910  1.00  0.00     0.170 HD
ENDROOT
BRANCH   4  10
HETATM   10  C8  UNL     1      22.267   2.235  50.950  1.00  0.00    -0.000 A 
HETATM   11  C9  UNL     1      22.019   0.878  50.848  1.00  0.00     0.012 A 
HETATM   12  C10 UNL     1      20.748   0.337  50.808  1.00  0.00     0.002 A 
HETATM   13  C11 UNL     1      19.650   1.199  50.872  1.00  0.00     0.022 A 
HETATM   14  C12 UNL     1      19.923   2.532  50.971  1.00  0.00     0.044 A 
HETATM   15 BR1  UNL     1      18.430   3.733  51.060  1.00  0.00    -0.048 Br
HETATM   16  C13 UNL     1      21.169   3.087  51.013  1.00  0.00     0.091 A 
BRANCH  16  17
HETATM   17  O1  UNL     1      21.465   4.433  51.114  1.00  0.00    -0.359 OA
HETATM   18  H13 UNL     1      20.912   5.128  50.645  1.00  0.00     0.217 HD
ENDBRANCH  16  17
ENDBRANCH   4  10
BRANCH   5  19
HETATM   19  C14 UNL     1      24.321   2.615  53.354  1.00  0.00     0.167 C 
BRANCH  19  20
HETATM   20  C15 UNL     1      25.225   1.480  53.159  1.00  0.00    -0.040 A 
HETATM   21  C16 UNL     1      24.710   0.211  53.367  1.00  0.00     0.012 A 
HETATM   22  C17 UNL     1      25.476  -0.944  53.210  1.00  0.00     0.043 A 
HETATM   23  C18 UNL     1      26.807  -0.845  52.833  1.00  0.00     0.116 A 
HETATM   24  F1  UNL     1      27.577  -1.946  52.672  1.00  0.00    -0.206 F 
HETATM   25  C19 UNL     1      27.301   0.405  52.631  1.00  0.00     0.043 A 
HETATM   26  C20 UNL     1      26.550   1.552  52.785  1.00  0.00     0.012 A 
ENDBRANCH  19  20
ENDBRANCH   5  19
BRANCH   1  27
HETATM   27  C3  UNL     1      26.295   6.345  48.952  1.00  0.00    -0.002 C 
HETATM   28  C2  UNL     1      27.561   6.492  48.673  1.00  0.00    -0.031 C 
HETATM   29  C1  UNL     1      28.462   5.381  48.290  1.00  0.00     0.036 C 
ENDBRANCH   1  27
TORSDOF 5
ENDMDL
MODEL 8
REMARK VINA RESULT:      -7.5      3.502      5.130
REMARK  5 active torsions:
REMARK  status: ('A' for Active; 'I' for Inactive)
REMARK    1  A    between atoms: C3_3  and  C4_4 
REMARK    2  A    between atoms: C7_7  and  C8_8 
REMARK    3  A    between atoms: C13_14  and  O1_15 
REMARK    4  A    between atoms: N1_16  and  C14_17 
REMARK    5  A    between atoms: C14_17  and  C15_18 
ROOT
HETATM    1  C4  UNL     1      21.898   3.553  46.057  1.00  0.00     0.025 C 
HETATM    2  C5  UNL     1      21.985   3.524  47.379  1.00  0.00     0.016 C 
HETATM    3  C6  UNL     1      22.569   2.401  48.128  1.00  0.00     0.087 C 
HETATM    4  C7  UNL     1      23.315   2.771  49.362  1.00  0.00     0.131 C 
HETATM    5  N1  UNL     1      23.243   4.154  49.742  1.00  0.00    -0.320 N 
HETATM    6  C21 UNL     1      22.146   4.971  49.356  1.00  0.00     0.323 C 
HETATM    7  O2  UNL     1      21.794   5.920  50.072  1.00  0.00    -0.247 OA
HETATM    8  N2  UNL     1      21.488   4.637  48.114  1.00  0.00    -0.312 N 
HETATM    9  H20 UNL     1      20.678   5.207  47.787  1.00  0.00     0.170 HD
ENDROOT
BRANCH   4  10
HETATM   10  C8  UNL     1      22.806   1.875  50.457  1.00  0.00    -0.000 A 
HETATM   11  C9  UNL     1      21.451   1.600  50.440  1.00  0.00     0.012 A 
HETATM   12  C10 UNL     1      20.825   0.795  51.372  1.00  0.00     0.002 A 
HETATM   13  C11 UNL     1      21.595   0.224  52.390  1.00  0.00     0.022 A 
HETATM   14  C12 UNL     1      22.928   0.513  52.383  1.00  0.00     0.044 A 
HETATM   15 BR1  UNL     1      24.004  -0.260  53.771  1.00  0.00    -0.048 Br
HETATM   16  C13 UNL     1      23.566   1.304  51.472  1.00  0.00     0.091 A 
BRANCH  16  17
HETATM   17  O1  UNL     1      24.915   1.607  51.449  1.00  0.00    -0.359 OA
HETATM   18  H13 UNL     1      25.609   0.895  51.309  1.00  0.00     0.217 HD
ENDBRANCH  16  17
ENDBRANCH   4  10
BRANCH   5  19
HETATM   19  C14 UNL     1      24.324   4.674  50.529  1.00  0.00     0.167 C 
BRANCH  19  20
HETATM   20  C15 UNL     1      25.529   5.040  49.782  1.00  0.00    -0.040 A 
HETATM   21  C16 UNL     1      25.671   6.367  49.412  1.00  0.00     0.012 A 
HETATM   22  C17 UNL     1      26.777   6.834  48.700  1.00  0.00     0.043 A 
HETATM   23  C18 UNL     1      27.785   5.954  48.336  1.00  0.00     0.116 A 
HETATM   24  F1  UNL     1      28.870   6.374  47.645  1.00  0.00    -0.206 F 
HETATM   25  C19 UNL     1      27.634   4.654  48.704  1.00  0.00     0.043 A 
HETATM   26  C20 UNL     1      26.544   4.186  49.408  1.00  0.00     0.012 A 
ENDBRANCH  19  20
ENDBRANCH   5  19
BRANCH   1  27
HETATM   27  C3  UNL     1      21.345   4.601  45.209  1.00  0.00    -0.002 C 
HETATM   28  C2  UNL     1      20.131   4.642  44.731  1.00  0.00    -0.031 C 
HETATM   29  C1  UNL     1      19.103   3.607  44.984  1.00  0.00     0.036 C 
ENDBRANCH   1  27
TORSDOF 5
ENDMDL
MODEL 9
REMARK VINA RESULT:      -7.4      3.702      6.205
REMARK  5 active torsions:
REMARK  status: ('A' for Active; 'I' for Inactive)
REMARK    1  A    between atoms: C3_3  and  C4_4 
REMARK    2  A    between atoms: C7_7  and  C8_8 
REMARK    3  A    between atoms: C13_14  and  O1_15 
REMARK    4  A    between atoms: N1_16  and  C14_17 
REMARK    5  A    between atoms: C14_17  and  C15_18 
ROOT
HETATM    1  C4  UNL     1      25.678   0.444  53.893  1.00  0.00     0.025 C 
HETATM    2  C5  UNL     1      24.985   1.052  52.941  1.00  0.00     0.016 C 
HETATM    3  C6  UNL     1      23.528   1.242  52.995  1.00  0.00     0.087 C 
HETATM    4  C7  UNL     1      23.024   2.511  52.401  1.00  0.00     0.131 C 
HETATM    5  N1  UNL     1      24.002   3.313  51.723  1.00  0.00    -0.320 N 
HETATM    6  C21 UNL     1      25.173   2.734  51.162  1.00  0.00     0.323 C 
HETATM    7  O2  UNL     1      25.708   3.248  50.169  1.00  0.00    -0.247 OA
HETATM    8  N2  UNL     1      25.687   1.546  51.806  1.00  0.00    -0.312 N 
HETATM    9  H20 UNL     1      26.544   1.084  51.432  1.00  0.00     0.170 HD
ENDROOT
BRANCH   4  10
HETATM   10  C8  UNL     1      21.891   2.137  51.486  1.00  0.00    -0.000 A 
HETATM   11  C9  UNL     1      22.231   1.408  50.361  1.00  0.00     0.012 A 
HETATM   12  C10 UNL     1      21.312   0.985  49.421  1.00  0.00     0.002 A 
HETATM   13  C11 UNL     1      19.964   1.307  49.609  1.00  0.00     0.022 A 
HETATM   14  C12 UNL     1      19.658   2.028  50.725  1.00  0.00     0.044 A 
HETATM   15 BR1  UNL     1      17.814   2.480  51.003  1.00  0.00    -0.048 Br
HETATM   16  C13 UNL     1      20.549   2.454  51.666  1.00  0.00     0.091 A 
BRANCH  16  17
HETATM   17  O1  UNL     1      20.257   3.183  52.804  1.00  0.00    -0.359 OA
HETATM   18  H13 UNL     1      19.829   4.090  52.749  1.00  0.00     0.217 HD
ENDBRANCH  16  17
ENDBRANCH   4  10
BRANCH   5  19
HETATM   19  C14 UNL     1      23.746   4.722  51.633  1.00  0.00     0.167 C 
BRANCH  19  20
HETATM   20  C15 UNL     1      22.802   5.126  50.589  1.00  0.00    -0.040 A 
HETATM   21  C16 UNL     1      21.699   5.868  50.980  1.00  0.00     0.012 A 
HETATM   22  C17 UNL     1      20.734   6.310  50.075  1.00  0.00     0.043 A 
HETATM   23  C18 UNL     1      20.860   6.008  48.727  1.00  0.00     0.116 A 
HETATM   24  F1  UNL     1      19.941   6.422  47.824  1.00  0.00    -0.206 F 
HETATM   25  C19 UNL     1      21.946   5.279  48.356  1.00  0.00     0.043 A 
HETATM   26  C20 UNL     1      22.904   4.838  49.245  1.00  0.00     0.012 A 
ENDBRANCH  19  20
ENDBRANCH   5  19
BRANCH   1  27
HETATM   27  C3  UNL     1      27.112   0.197  53.952  1.00  0.00    -0.002 C 
HETATM   28  C2  UNL     1      27.743  -0.803  53.397  1.00  0.00    -0.031 C 
HETATM   29  C1  UNL     1      27.084  -1.864  52.604  1.00  0.00     0.036 C 
ENDBRANCH   1  27
TORSDOF 5
ENDMDL
