MODEL 1
REMARK VINA RESULT:      -8.1      0.000      0.000
REMARK  3 active torsions:
REMARK  status: ('A' for Active; 'I' for Inactive)
REMARK    1  A    between atoms: C5_5  and  N1_6 
REMARK    2  A    between atoms: N1_6  and  C6_7 
REMARK    3  A    between atoms: C11_14  and  N4_15 
REMARK       I    between atoms: N4_15  and  C12_16 
REMARK       I    between atoms: C12_16  and  N5_17 
ROOT
HETATM    1  C6  UNL     1      26.227   2.474  51.995  1.00  0.00     0.141 A 
HETATM    2  N2  UNL     1      27.001   3.034  51.062  1.00  0.00    -0.224 NA
HETATM    3  C7  UNL     1      26.530   3.391  49.844  1.00  0.00     0.236 A 
HETATM    4  N3  UNL     1      25.212   3.162  49.574  1.00  0.00    -0.241 NA
HETATM    5  C8  UNL     1      24.405   2.600  50.491  1.00  0.00     0.072 A 
HETATM    6  C9  UNL     1      23.069   2.350  50.269  1.00  0.00     0.035 A 
HETATM    7  C10 UNL     1      22.269   1.773  51.223  1.00  0.00     0.032 A 
HETATM    8  C11 UNL     1      22.745   1.412  52.457  1.00  0.00     0.037 A 
HETATM    9  C13 UNL     1      24.077   1.672  52.657  1.00  0.00     0.047 A 
HETATM   10  C14 UNL     1      24.899   2.244  51.726  1.00  0.00     0.041 A 
ENDROOT
BRANCH   1  11
HETATM   11  N1  UNL     1      26.836   2.144  53.233  1.00  0.00    -0.343 N 
HETATM   12  H6  UNL     1      26.789   2.578  54.164  1.00  0.00     0.167 HD
BRANCH  11  13
HETATM   13  C5  UNL     1      27.696   1.015  53.298  1.00  0.00     0.014 A 
HETATM   14  C4  UNL     1      28.991   1.175  53.590  1.00  0.00     0.025 A 
HETATM   15  C3  UNL     1      29.678  -0.120  53.601  1.00  0.00     0.005 A 
HETATM   16  C2  UNL     1      28.759  -1.030  53.310  1.00  0.00    -0.078 A 
HETATM   17  C1  UNL     1      29.074  -2.490  53.224  1.00  0.00     0.044 C 
HETATM   18  C15 UNL     1      27.412  -0.444  53.085  1.00  0.00     0.090 A 
ENDBRANCH  11  13
ENDBRANCH   1  11
BRANCH   8  19
HETATM   19  N4  UNL     1      21.843   0.826  53.376  1.00  0.00    -0.309 N 
HETATM   20  C12 UNL     1      21.706  -0.527  53.764  1.00  0.00     0.318 C 
HETATM   21  N5  UNL     1      20.770  -1.017  54.694  1.00  0.00    -0.352 N 
HETATM   22  O1  UNL     1      22.455  -1.386  53.264  1.00  0.00    -0.247 OA
HETATM   23  H11 UNL     1      19.968  -1.605  54.385  1.00  0.00     0.160 HD
HETATM   24  H12 UNL     1      20.510  -1.039  55.711  1.00  0.00     0.160 HD
HETATM   25  H10 UNL     1      21.151   1.424  53.876  1.00  0.00     0.170 HD
ENDBRANCH   8  19
TORSDOF 3
ENDMDL
MODEL 2
REMARK VINA RESULT:      -8.0      2.024      2.596
REMARK  3 active torsions:
REMARK  status: ('A' for Active; 'I' for Inactive)
REMARK    1  A    between atoms: C5_5  and  N1_6 
REMARK    2  A    between atoms: N1_6  and  C6_7 
REMARK    3  A    between atoms: C11_14  and  N4_15 
REMARK       I    between atoms: N4_15  and  C12_16 
REMARK       I    between atoms: C12_16  and  N5_17 
ROOT
HETATM    1  C6  UNL     1      24.347   0.911  52.875  1.00  0.00     0.141 A 
HETATM    2  N2  UNL     1      25.182   1.810  52.347  1.00  0.00    -0.224 NA
HETATM    3  C7  UNL     1      24.749   2.968  51.793  1.00  0.00     0.236 A 
HETATM    4  N3  UNL     1      23.407   3.210  51.782  1.00  0.00    -0.241 NA
HETATM    5  C8  UNL     1      22.539   2.326  52.305  1.00  0.00     0.072 A 
HETATM    6  C9  UNL     1      21.176   2.523  52.319  1.00  0.00     0.035 A 
HETATM    7  C10 UNL     1      20.313   1.602  52.860  1.00  0.00     0.032 A 
HETATM    8  C11 UNL     1      20.751   0.430  53.421  1.00  0.00     0.037 A 
HETATM    9  C13 UNL     1      22.112   0.255  53.396  1.00  0.00     0.047 A 
HETATM   10  C14 UNL     1      22.995   1.153  52.865  1.00  0.00     0.041 A 
ENDROOT
BRANCH   1  11
HETATM   11  N1  UNL     1      24.922  -0.264  53.425  1.00  0.00    -0.343 N 
HETATM   12  H6  UNL     1      24.520  -1.174  53.685  1.00  0.00     0.167 HD
BRANCH  11  13
HETATM   13  C5  UNL     1      26.315  -0.283  53.706  1.00  0.00     0.014 A 
HETATM   14  C4  UNL     1      26.776   0.259  54.838  1.00  0.00     0.025 A 
HETATM   15  C3  UNL     1      28.235   0.123  54.913  1.00  0.00     0.005 A 
HETATM   16  C2  UNL     1      28.606  -0.504  53.806  1.00  0.00    -0.078 A 
HETATM   17  C1  UNL     1      30.036  -0.832  53.510  1.00  0.00     0.044 C 
HETATM   18  C15 UNL     1      27.464  -0.837  52.915  1.00  0.00     0.090 A 
ENDBRANCH  11  13
ENDBRANCH   1  11
BRANCH   8  19
HETATM   19  N4  UNL     1      19.786  -0.457  53.954  1.00  0.00    -0.309 N 
HETATM   20  C12 UNL     1      18.653  -1.032  53.335  1.00  0.00     0.318 C 
HETATM   21  N5  UNL     1      17.745  -1.911  53.954  1.00  0.00    -0.352 N 
HETATM   22  O1  UNL     1      18.402  -0.763  52.146  1.00  0.00    -0.247 OA
HETATM   23  H11 UNL     1      16.774  -1.606  54.178  1.00  0.00     0.160 HD
HETATM   24  H12 UNL     1      17.622  -2.881  54.336  1.00  0.00     0.160 HD
HETATM   25  H10 UNL     1      19.865  -0.773  54.945  1.00  0.00     0.170 HD
ENDBRANCH   8  19
TORSDOF 3
ENDMDL
MODEL 3
REMARK VINA RESULT:      -7.9      2.068      4.844
REMARK  3 active torsions:
REMARK  status: ('A' for Active; 'I' for Inactive)
REMARK    1  A    between atoms: C5_5  and  N1_6 
REMARK    2  A    between atoms: N1_6  and  C6_7 
REMARK    3  A    between atoms: C11_14  and  N4_15 
REMARK       I    between atoms: N4_15  and  C12_16 
REMARK       I    between atoms: C12_16  and  N5_17 
ROOT
HETATM    1  C6  UNL     1      26.327   1.799  52.102  1.00  0.00     0.141 A 
HETATM    2  N2  UNL     1      27.522   2.366  52.283  1.00  0.00    -0.224 NA
HETATM    3  C7  UNL     1      28.281   2.131  53.379  1.00  0.00     0.236 A 
HETATM    4  N3  UNL     1      27.792   1.280  54.327  1.00  0.00    -0.241 NA
HETATM    5  C8  UNL     1      26.592   0.692  54.176  1.00  0.00     0.072 A 
HETATM    6  C9  UNL     1      26.054  -0.175  55.102  1.00  0.00     0.035 A 
HETATM    7  C10 UNL     1      24.826  -0.760  54.922  1.00  0.00     0.032 A 
HETATM    8  C11 UNL     1      24.057  -0.523  53.812  1.00  0.00     0.037 A 
HETATM    9  C13 UNL     1      24.613   0.342  52.903  1.00  0.00     0.047 A 
HETATM   10  C14 UNL     1      25.832   0.941  53.055  1.00  0.00     0.041 A 
ENDROOT
BRANCH   1  11
HETATM   11  N1  UNL     1      25.626   2.125  50.913  1.00  0.00    -0.343 N 
HETATM   12  H6  UNL     1      24.964   1.594  50.332  1.00  0.00     0.167 HD
BRANCH  11  13
HETATM   13  C5  UNL     1      25.812   3.409  50.334  1.00  0.00     0.014 A 
HETATM   14  C4  UNL     1      24.982   4.410  50.647  1.00  0.00     0.025 A 
HETATM   15  C3  UNL     1      25.364   5.634  49.934  1.00  0.00     0.005 A 
HETATM   16  C2  UNL     1      26.426   5.322  49.204  1.00  0.00    -0.078 A 
HETATM   17  C1  UNL     1      27.116   6.316  48.326  1.00  0.00     0.044 C 
HETATM   18  C15 UNL     1      26.840   3.903  49.359  1.00  0.00     0.090 A 
ENDBRANCH  11  13
ENDBRANCH   1  11
BRANCH   8  19
HETATM   19  N4  UNL     1      22.804  -1.173  53.715  1.00  0.00    -0.309 N 
HETATM   20  C12 UNL     1      21.573  -0.853  54.332  1.00  0.00     0.318 C 
HETATM   21  N5  UNL     1      20.371  -1.567  54.171  1.00  0.00    -0.352 N 
HETATM   22  O1  UNL     1      21.506   0.134  55.087  1.00  0.00    -0.247 OA
HETATM   23  H11 UNL     1      19.978  -2.133  54.953  1.00  0.00     0.160 HD
HETATM   24  H12 UNL     1      19.600  -1.799  53.498  1.00  0.00     0.160 HD
HETATM   25  H10 UNL     1      22.706  -2.021  53.115  1.00  0.00     0.170 HD
ENDBRANCH   8  19
TORSDOF 3
ENDMDL
MODEL 4
REMARK VINA RESULT:      -7.8      2.634      4.467
REMARK  3 active torsions:
REMARK  status: ('A' for Active; 'I' for Inactive)
REMARK    1  A    between atoms: C5_5  and  N1_6 
REMARK    2  A    between atoms: N1_6  and  C6_7 
REMARK    3  A    between atoms: C11_14  and  N4_15 
REMARK       I    between atoms: N4_15  and  C12_16 
REMARK       I    between atoms: C12_16  and  N5_17 
ROOT
HETATM    1  C6  UNL     1      23.625  -0.172  53.524  1.00  0.00     0.141 A 
HETATM    2  N2  UNL     1      23.962  -0.876  54.607  1.00  0.00    -0.224 NA
HETATM    3  C7  UNL     1      23.046  -1.516  55.373  1.00  0.00     0.236 A 
HETATM    4  N3  UNL     1      21.734  -1.427  55.011  1.00  0.00    -0.241 NA
HETATM    5  C8  UNL     1      21.361  -0.725  53.926  1.00  0.00     0.072 A 
HETATM    6  C9  UNL     1      20.051  -0.605  53.518  1.00  0.00     0.035 A 
HETATM    7  C10 UNL     1      19.698   0.118  52.406  1.00  0.00     0.032 A 
HETATM    8  C11 UNL     1      20.625   0.765  51.630  1.00  0.00     0.037 A 
HETATM    9  C13 UNL     1      21.923   0.631  52.055  1.00  0.00     0.047 A 
HETATM   10  C14 UNL     1      22.304  -0.081  53.157  1.00  0.00     0.041 A 
ENDROOT
BRANCH   1  11
HETATM   11  N1  UNL     1      24.675   0.453  52.803  1.00  0.00    -0.343 N 
HETATM   12  H6  UNL     1      24.676   1.125  52.025  1.00  0.00     0.167 HD
BRANCH  11  13
HETATM   13  C5  UNL     1      26.021   0.155  53.150  1.00  0.00     0.014 A 
HETATM   14  C4  UNL     1      26.680   0.941  54.008  1.00  0.00     0.025 A 
HETATM   15  C3  UNL     1      28.045   0.442  54.214  1.00  0.00     0.005 A 
HETATM   16  C2  UNL     1      28.161  -0.641  53.460  1.00  0.00    -0.078 A 
HETATM   17  C1  UNL     1      29.422  -1.444  53.397  1.00  0.00     0.044 C 
HETATM   18  C15 UNL     1      26.921  -0.960  52.704  1.00  0.00     0.090 A 
ENDBRANCH  11  13
ENDBRANCH   1  11
BRANCH   8  19
HETATM   19  N4  UNL     1      20.166   1.485  50.502  1.00  0.00    -0.309 N 
HETATM   20  C12 UNL     1      20.598   1.423  49.157  1.00  0.00     0.318 C 
HETATM   21  N5  UNL     1      20.075   2.186  48.097  1.00  0.00    -0.352 N 
HETATM   22  O1  UNL     1      21.515   0.640  48.845  1.00  0.00    -0.247 OA
HETATM   23  H11 UNL     1      20.638   2.945  47.658  1.00  0.00     0.160 HD
HETATM   24  H12 UNL     1      19.238   2.328  47.480  1.00  0.00     0.160 HD
HETATM   25  H10 UNL     1      19.397   2.182  50.610  1.00  0.00     0.170 HD
ENDBRANCH   8  19
TORSDOF 3
ENDMDL
MODEL 5
REMARK VINA RESULT:      -7.6      2.726      6.540
REMARK  3 active torsions:
REMARK  status: ('A' for Active; 'I' for Inactive)
REMARK    1  A    between atoms: C5_5  and  N1_6 
REMARK    2  A    between atoms: N1_6  and  C6_7 
REMARK    3  A    between atoms: C11_14  and  N4_15 
REMARK       I    between atoms: N4_15  and  C12_16 
REMARK       I    between atoms: C12_16  and  N5_17 
ROOT
HETATM    1  C6  UNL     1      22.119   0.585  52.382  1.00  0.00     0.141 A 
HETATM    2  N2  UNL     1      20.791   0.490  52.282  1.00  0.00    -0.224 NA
HETATM    3  C7  UNL     1      20.045  -0.238  53.146  1.00  0.00     0.236 A 
HETATM    4  N3  UNL     1      20.692  -0.894  54.153  1.00  0.00    -0.241 NA
HETATM    5  C8  UNL     1      22.028  -0.819  54.283  1.00  0.00     0.072 A 
HETATM    6  C9  UNL     1      22.727  -1.462  55.281  1.00  0.00     0.035 A 
HETATM    7  C10 UNL     1      24.092  -1.368  55.388  1.00  0.00     0.032 A 
HETATM    8  C11 UNL     1      24.847  -0.631  54.514  1.00  0.00     0.037 A 
HETATM    9  C13 UNL     1      24.130   0.001  53.529  1.00  0.00     0.047 A 
HETATM   10  C14 UNL     1      22.772  -0.074  53.395  1.00  0.00     0.041 A 
ENDROOT
BRANCH   1  11
HETATM   11  N1  UNL     1      22.788   1.379  51.415  1.00  0.00    -0.343 N 
HETATM   12  H6  UNL     1      23.360   1.135  50.596  1.00  0.00     0.167 HD
BRANCH  11  13
HETATM   13  C5  UNL     1      22.712   2.795  51.513  1.00  0.00     0.014 A 
HETATM   14  C4  UNL     1      23.537   3.454  52.332  1.00  0.00     0.025 A 
HETATM   15  C3  UNL     1      23.278   4.896  52.269  1.00  0.00     0.005 A 
HETATM   16  C2  UNL     1      22.289   5.057  51.401  1.00  0.00    -0.078 A 
HETATM   17  C1  UNL     1      21.732   6.403  51.060  1.00  0.00     0.044 C 
HETATM   18  C15 UNL     1      21.811   3.775  50.820  1.00  0.00     0.090 A 
ENDBRANCH  11  13
ENDBRANCH   1  11
BRANCH   8  19
HETATM   19  N4  UNL     1      26.248  -0.593  54.706  1.00  0.00    -0.309 N 
HETATM   20  C12 UNL     1      27.116   0.519  54.792  1.00  0.00     0.318 C 
HETATM   21  N5  UNL     1      28.508   0.454  54.986  1.00  0.00    -0.352 N 
HETATM   22  O1  UNL     1      26.648   1.669  54.691  1.00  0.00    -0.247 OA
HETATM   23  H11 UNL     1      29.166   0.707  54.218  1.00  0.00     0.160 HD
HETATM   24  H12 UNL     1      29.263   0.226  55.678  1.00  0.00     0.160 HD
HETATM   25  H10 UNL     1      26.781  -1.484  54.807  1.00  0.00     0.170 HD
ENDBRANCH   8  19
TORSDOF 3
ENDMDL
MODEL 6
REMARK VINA RESULT:      -7.5      2.379      4.723
REMARK  3 active torsions:
REMARK  status: ('A' for Active; 'I' for Inactive)
REMARK    1  A    between atoms: C5_5  and  N1_6 
REMARK    2  A    between atoms: N1_6  and  C6_7 
REMARK    3  A    between atoms: C11_14  and  N4_15 
REMARK       I    between atoms: N4_15  and  C12_16 
REMARK       I    between atoms: C12_16  and  N5_17 
ROOT
HETATM    1  C6  UNL     1      23.988   1.003  52.751  1.00  0.00     0.141 A 
HETATM    2  N2  UNL     1      22.999   0.182  53.112  1.00  0.00    -0.224 NA
HETATM    3  C7  UNL     1      21.892  -0.001  52.354  1.00  0.00     0.236 A 
HETATM    4  N3  UNL     1      21.799   0.688  51.180  1.00  0.00    -0.241 NA
HETATM    5  C8  UNL     1      22.777   1.523  50.787  1.00  0.00     0.072 A 
HETATM    6  C9  UNL     1      22.731   2.240  49.612  1.00  0.00     0.035 A 
HETATM    7  C10 UNL     1      23.745   3.086  49.237  1.00  0.00     0.032 A 
HETATM    8  C11 UNL     1      24.866   3.271  50.004  1.00  0.00     0.037 A 
HETATM    9  C13 UNL     1      24.890   2.546  51.169  1.00  0.00     0.047 A 
HETATM   10  C14 UNL     1      23.897   1.697  51.569  1.00  0.00     0.041 A 
ENDROOT
BRANCH   1  11
HETATM   11  N1  UNL     1      25.096   1.110  53.631  1.00  0.00    -0.343 N 
HETATM   12  H6  UNL     1      25.280   1.715  54.442  1.00  0.00     0.167 HD
BRANCH  11  13
HETATM   13  C5  UNL     1      26.217   0.259  53.433  1.00  0.00     0.014 A 
HETATM   14  C4  UNL     1      26.075  -0.893  52.769  1.00  0.00     0.025 A 
HETATM   15  C3  UNL     1      27.357  -1.600  52.689  1.00  0.00     0.005 A 
HETATM   16  C2  UNL     1      28.241  -0.837  53.317  1.00  0.00    -0.078 A 
HETATM   17  C1  UNL     1      29.681  -1.221  53.451  1.00  0.00     0.044 C 
HETATM   18  C15 UNL     1      27.648   0.414  53.859  1.00  0.00     0.090 A 
ENDBRANCH  11  13
ENDBRANCH   1  11
BRANCH   8  19
HETATM   19  N4  UNL     1      25.858   4.164  49.534  1.00  0.00    -0.309 N 
HETATM   20  C12 UNL     1      25.994   5.554  49.750  1.00  0.00     0.318 C 
HETATM   21  N5  UNL     1      27.024   6.362  49.235  1.00  0.00    -0.352 N 
HETATM   22  O1  UNL     1      25.152   6.150  50.448  1.00  0.00    -0.247 OA
HETATM   23  H11 UNL     1      26.831   7.063  48.488  1.00  0.00     0.160 HD
HETATM   24  H12 UNL     1      28.048   6.583  49.301  1.00  0.00     0.160 HD
HETATM   25  H10 UNL     1      26.633   3.807  48.934  1.00  0.00     0.170 HD
ENDBRANCH   8  19
TORSDOF 3
ENDMDL
MODEL 7
REMARK VINA RESULT:      -7.3      2.571      4.347
REMARK  3 active torsions:
REMARK  status: ('A' for Active; 'I' for Inactive)
REMARK    1  A    between atoms: C5_5  and  N1_6 
REMARK    2  A    between atoms: N1_6  and  C6_7 
REMARK    3  A    between atoms: C11_14  and  N4_15 
REMARK       I    between atoms: N4_15  and  C12_16 
REMARK       I    between atoms: C12_16  and  N5_17 
ROOT
HETATM    1  C6  UNL     1      24.041   0.081  53.340  1.00  0.00     0.141 A 
HETATM    2  N2  UNL     1      24.278  -0.858  54.259  1.00  0.00    -0.224 NA
HETATM    3  C7  UNL     1      23.317  -1.317  55.096  1.00  0.00     0.236 A 
HETATM    4  N3  UNL     1      22.064  -0.790  54.983  1.00  0.00    -0.241 NA
HETATM    5  C8  UNL     1      21.791   0.157  54.067  1.00  0.00     0.072 A 
HETATM    6  C9  UNL     1      20.544   0.720  53.912  1.00  0.00     0.035 A 
HETATM    7  C10 UNL     1      20.294   1.686  52.970  1.00  0.00     0.032 A 
HETATM    8  C11 UNL     1      21.266   2.150  52.122  1.00  0.00     0.037 A 
HETATM    9  C13 UNL     1      22.500   1.575  52.294  1.00  0.00     0.047 A 
HETATM   10  C14 UNL     1      22.779   0.612  53.223  1.00  0.00     0.041 A 
ENDROOT
BRANCH   1  11
HETATM   11  N1  UNL     1      25.129   0.479  52.522  1.00  0.00    -0.343 N 
HETATM   12  H6  UNL     1      25.173   0.896  51.584  1.00  0.00     0.167 HD
BRANCH  11  13
HETATM   13  C5  UNL     1      26.454   0.307  53.007  1.00  0.00     0.014 A 
HETATM   14  C4  UNL     1      27.029   1.267  53.738  1.00  0.00     0.025 A 
HETATM   15  C3  UNL     1      28.388   0.871  54.125  1.00  0.00     0.005 A 
HETATM   16  C2  UNL     1      28.586  -0.331  53.604  1.00  0.00    -0.078 A 
HETATM   17  C1  UNL     1      29.870  -1.080  53.780  1.00  0.00     0.044 C 
HETATM   18  C15 UNL     1      27.413  -0.837  52.844  1.00  0.00     0.090 A 
ENDBRANCH  11  13
ENDBRANCH   1  11
BRANCH   8  19
HETATM   19  N4  UNL     1      20.913   3.147  51.182  1.00  0.00    -0.309 N 
HETATM   20  C12 UNL     1      21.211   4.529  51.180  1.00  0.00     0.318 C 
HETATM   21  N5  UNL     1      20.811   5.447  50.191  1.00  0.00    -0.352 N 
HETATM   22  O1  UNL     1      21.879   5.012  52.113  1.00  0.00    -0.247 OA
HETATM   23  H11 UNL     1      20.091   6.171  50.395  1.00  0.00     0.160 HD
HETATM   24  H12 UNL     1      20.959   5.747  49.196  1.00  0.00     0.160 HD
HETATM   25  H10 UNL     1      20.350   2.890  50.342  1.00  0.00     0.170 HD
ENDBRANCH   8  19
TORSDOF 3
ENDMDL
MODEL 8
REMARK VINA RESULT:      -7.2      2.668      6.436
REMARK  3 active torsions:
REMARK  status: ('A' for Active; 'I' for Inactive)
REMARK    1  A    between atoms: C5_5  and  N1_6 
REMARK    2  A    between atoms: N1_6  and  C6_7 
REMARK    3  A    between atoms: C11_14  and  N4_15 
REMARK       I    between atoms: N4_15  and  C12_16 
REMARK       I    between atoms: C12_16  and  N5_17 
ROOT
HETATM    1  C6  UNL     1      22.701   2.343  52.286  1.00  0.00     0.141 A 
HETATM    2  N2  UNL     1      21.517   1.860  51.900  1.00  0.00    -0.224 NA
HETATM    3  C7  UNL     1      21.173   0.561  52.063  1.00  0.00     0.236 A 
HETATM    4  N3  UNL     1      22.081  -0.274  52.644  1.00  0.00    -0.241 NA
HETATM    5  C8  UNL     1      23.282   0.179  53.044  1.00  0.00     0.072 A 
HETATM    6  C9  UNL     1      24.233  -0.623  53.637  1.00  0.00     0.035 A 
HETATM    7  C10 UNL     1      25.452  -0.133  54.034  1.00  0.00     0.032 A 
HETATM    8  C11 UNL     1      25.801   1.183  53.870  1.00  0.00     0.037 A 
HETATM    9  C13 UNL     1      24.839   1.962  53.279  1.00  0.00     0.047 A 
HETATM   10  C14 UNL     1      23.617   1.503  52.872  1.00  0.00     0.041 A 
ENDROOT
BRANCH   1  11
HETATM   11  N1  UNL     1      22.945   3.722  52.061  1.00  0.00    -0.343 N 
HETATM   12  H6  UNL     1      23.021   4.524  52.700  1.00  0.00     0.167 HD
BRANCH  11  13
HETATM   13  C5  UNL     1      23.130   4.181  50.729  1.00  0.00     0.014 A 
HETATM   14  C4  UNL     1      24.356   4.483  50.290  1.00  0.00     0.025 A 
HETATM   15  C3  UNL     1      24.305   4.932  48.894  1.00  0.00     0.005 A 
HETATM   16  C2  UNL     1      23.029   4.885  48.537  1.00  0.00    -0.078 A 
HETATM   17  C1  UNL     1      22.564   5.272  47.169  1.00  0.00     0.044 C 
HETATM   18  C15 UNL     1      22.137   4.413  49.628  1.00  0.00     0.090 A 
ENDBRANCH  11  13
ENDBRANCH   1  11
BRANCH   8  19
HETATM   19  N4  UNL     1      27.080   1.596  54.313  1.00  0.00    -0.309 N 
HETATM   20  C12 UNL     1      28.178   2.080  53.566  1.00  0.00     0.318 C 
HETATM   21  N5  UNL     1      29.420   2.468  54.102  1.00  0.00    -0.352 N 
HETATM   22  O1  UNL     1      28.078   2.185  52.329  1.00  0.00    -0.247 OA
HETATM   23  H11 UNL     1      30.275   1.897  53.936  1.00  0.00     0.160 HD
HETATM   24  H12 UNL     1      29.910   3.196  54.678  1.00  0.00     0.160 HD
HETATM   25  H10 UNL     1      27.311   1.563  55.329  1.00  0.00     0.170 HD
ENDBRANCH   8  19
TORSDOF 3
ENDMDL
MODEL 9
REMARK VINA RESULT:      -7.2      2.341      4.945
REMARK  3 active torsions:
REMARK  status: ('A' for Active; 'I' for Inactive)
REMARK    1  A    between atoms: C5_5  and  N1_6 
REMARK    2  A    between atoms: N1_6  and  C6_7 
REMARK    3  A    between atoms: C11_14  and  N4_15 
REMARK       I    between atoms: N4_15  and  C12_16 
REMARK       I    between atoms: C12_16  and  N5_17 
ROOT
HETATM    1  C6  UNL     1      25.596   2.681  50.899  1.00  0.00     0.141 A 
HETATM    2  N2  UNL     1      26.880   2.726  51.261  1.00  0.00    -0.224 NA
HETATM    3  C7  UNL     1      27.362   2.041  52.325  1.00  0.00     0.236 A 
HETATM    4  N3  UNL     1      26.488   1.280  53.045  1.00  0.00    -0.241 NA
HETATM    5  C8  UNL     1      25.188   1.212  52.708  1.00  0.00     0.072 A 
HETATM    6  C9  UNL     1      24.267   0.458  53.401  1.00  0.00     0.035 A 
HETATM    7  C10 UNL     1      22.945   0.408  53.035  1.00  0.00     0.032 A 
HETATM    8  C11 UNL     1      22.457   1.101  51.957  1.00  0.00     0.037 A 
HETATM    9  C13 UNL     1      23.393   1.844  51.281  1.00  0.00     0.047 A 
HETATM   10  C14 UNL     1      24.714   1.914  51.623  1.00  0.00     0.041 A 
ENDROOT
BRANCH   1  11
HETATM   11  N1  UNL     1      25.213   3.443  49.766  1.00  0.00    -0.343 N 
HETATM   12  H6  UNL     1      24.396   3.395  49.144  1.00  0.00     0.167 HD
BRANCH  11  13
HETATM   13  C5  UNL     1      26.058   4.499  49.328  1.00  0.00     0.014 A 
HETATM   14  C4  UNL     1      25.646   5.767  49.422  1.00  0.00     0.025 A 
HETATM   15  C3  UNL     1      26.677   6.679  48.913  1.00  0.00     0.005 A 
HETATM   16  C2  UNL     1      27.687   5.915  48.523  1.00  0.00    -0.078 A 
HETATM   17  C1  UNL     1      28.943   6.481  47.939  1.00  0.00     0.044 C 
HETATM   18  C15 UNL     1      27.434   4.465  48.731  1.00  0.00     0.090 A 
ENDBRANCH  11  13
ENDBRANCH   1  11
BRANCH   8  19
HETATM   19  N4  UNL     1      21.080   0.987  51.656  1.00  0.00    -0.309 N 
HETATM   20  C12 UNL     1      19.997   1.796  52.070  1.00  0.00     0.318 C 
HETATM   21  N5  UNL     1      18.650   1.599  51.714  1.00  0.00    -0.352 N 
HETATM   22  O1  UNL     1      20.212   2.773  52.811  1.00  0.00    -0.247 OA
HETATM   23  H11 UNL     1      17.953   1.278  52.420  1.00  0.00     0.160 HD
HETATM   24  H12 UNL     1      17.960   1.649  50.925  1.00  0.00     0.160 HD
HETATM   25  H10 UNL     1      20.746   0.211  51.043  1.00  0.00     0.170 HD
ENDBRANCH   8  19
TORSDOF 3
ENDMDL
