MODEL 1
REMARK VINA RESULT:      -8.0      0.000      0.000
REMARK  1 active torsions:
REMARK  status: ('A' for Active; 'I' for Inactive)
REMARK    1  A    between atoms: O1_1  and  N1_2 
ROOT
HETATM    1  N1  UNL     1      26.260   2.544  50.726  1.00  0.00    -0.235 N 
HETATM    2  C1  UNL     1      26.241   3.002  49.398  1.00  0.00     0.135 C 
HETATM    3  C2  UNL     1      26.146   4.296  49.123  1.00  0.00    -0.006 C 
HETATM    4  C3  UNL     1      25.815   5.049  50.165  1.00  0.00     0.013 C 
HETATM    5  C4  UNL     1      24.594   4.726  50.835  1.00  0.00    -0.003 C 
HETATM    6  C5  UNL     1      23.490   4.833  51.556  1.00  0.00    -0.026 C 
HETATM    7  C6  UNL     1      22.285   4.137  52.116  1.00  0.00     0.000 C 
HETATM    8  C7  UNL     1      21.647   2.978  52.202  1.00  0.00     0.047 C 
HETATM    9  C8  UNL     1      21.440   1.497  51.939  1.00  0.00     0.116 C 
HETATM   10 BR1  UNL     1      21.689   1.097  50.084  1.00  0.00    -0.084 Br
HETATM   11  C9  UNL     1      22.311   0.652  52.752  1.00  0.00     0.063 A 
HETATM   12  N2  UNL     1      21.780  -0.169  53.696  1.00  0.00    -0.244 NA
HETATM   13  C10 UNL     1      22.583  -0.907  54.521  1.00  0.00     0.234 A 
HETATM   14  N3  UNL     1      23.949  -0.922  54.513  1.00  0.00    -0.241 NA
HETATM   15  C11 UNL     1      24.519  -0.108  53.573  1.00  0.00     0.070 A 
HETATM   16  C12 UNL     1      25.914   0.009  53.463  1.00  0.00     0.035 A 
HETATM   17  C13 UNL     1      26.532   0.856  52.532  1.00  0.00     0.034 A 
HETATM   18  C14 UNL     1      25.777   1.618  51.674  1.00  0.00     0.063 A 
HETATM   19  C15 UNL     1      24.492   1.317  51.988  1.00  0.00     0.048 A 
HETATM   20  C16 UNL     1      23.658   0.607  52.773  1.00  0.00     0.021 A 
ENDROOT
BRANCH   1  21
HETATM   21  O1  UNL     1      27.132   3.288  51.442  1.00  0.00    -0.283 OA
HETATM   22  H1  UNL     1      27.894   2.759  51.791  1.00  0.00     0.245 HD
ENDBRANCH   1  21
TORSDOF 1
ENDMDL
MODEL 2
REMARK VINA RESULT:      -7.7      2.370      3.598
REMARK  1 active torsions:
REMARK  status: ('A' for Active; 'I' for Inactive)
REMARK    1  A    between atoms: O1_1  and  N1_2 
ROOT
HETATM    1  N1  UNL     1      24.646  -0.073  53.227  1.00  0.00    -0.235 N 
HETATM    2  C1  UNL     1      25.777   0.090  52.410  1.00  0.00     0.135 C 
HETATM    3  C2  UNL     1      26.590   1.127  52.569  1.00  0.00    -0.006 C 
HETATM    4  C3  UNL     1      26.104   2.082  53.352  1.00  0.00     0.013 C 
HETATM    5  C4  UNL     1      24.850   2.654  52.973  1.00  0.00    -0.003 C 
HETATM    6  C5  UNL     1      23.846   3.505  52.840  1.00  0.00    -0.026 C 
HETATM    7  C6  UNL     1      22.481   3.757  52.273  1.00  0.00     0.000 C 
HETATM    8  C7  UNL     1      21.488   3.231  51.568  1.00  0.00     0.047 C 
HETATM    9  C8  UNL     1      20.787   2.141  50.777  1.00  0.00     0.116 C 
HETATM   10 BR1  UNL     1      21.967   1.386  49.473  1.00  0.00    -0.084 Br
HETATM   11  C9  UNL     1      20.244   1.086  51.628  1.00  0.00     0.063 A 
HETATM   12  N2  UNL     1      18.900   0.899  51.713  1.00  0.00    -0.244 NA
HETATM   13  C10 UNL     1      18.370  -0.029  52.565  1.00  0.00     0.234 A 
HETATM   14  N3  UNL     1      19.072  -0.851  53.401  1.00  0.00    -0.241 NA
HETATM   15  C11 UNL     1      20.430  -0.691  53.341  1.00  0.00     0.070 A 
HETATM   16  C12 UNL     1      21.286  -1.442  54.163  1.00  0.00     0.035 A 
HETATM   17  C13 UNL     1      22.679  -1.285  54.150  1.00  0.00     0.034 A 
HETATM   18  C14 UNL     1      23.269  -0.371  53.311  1.00  0.00     0.063 A 
HETATM   19  C15 UNL     1      22.236   0.201  52.644  1.00  0.00     0.048 A 
HETATM   20  C16 UNL     1      20.901   0.257  52.463  1.00  0.00     0.021 A 
ENDROOT
BRANCH   1  21
HETATM   21  O1  UNL     1      24.998   0.112  54.519  1.00  0.00    -0.283 OA
HETATM   22  H1  UNL     1      24.230   0.040  55.142  1.00  0.00     0.245 HD
ENDBRANCH   1  21
TORSDOF 1
ENDMDL
MODEL 3
REMARK VINA RESULT:      -7.6      2.276      5.171
REMARK  1 active torsions:
REMARK  status: ('A' for Active; 'I' for Inactive)
REMARK    1  A    between atoms: O1_1  and  N1_2 
ROOT
HETATM    1  N1  UNL     1      22.421   0.034  53.530  1.00  0.00    -0.235 N 
HETATM    2  C1  UNL     1      21.258   0.268  54.282  1.00  0.00     0.135 C 
HETATM    3  C2  UNL     1      20.080  -0.189  53.876  1.00  0.00    -0.006 C 
HETATM    4  C3  UNL     1      20.071  -0.628  52.623  1.00  0.00     0.013 C 
HETATM    5  C4  UNL     1      20.475   0.297  51.610  1.00  0.00    -0.003 C 
HETATM    6  C5  UNL     1      20.604   0.903  50.442  1.00  0.00    -0.026 C 
HETATM    7  C6  UNL     1      21.228   2.031  49.675  1.00  0.00     0.000 C 
HETATM    8  C7  UNL     1      22.036   3.080  49.759  1.00  0.00     0.047 C 
HETATM    9  C8  UNL     1      22.966   4.048  50.466  1.00  0.00     0.116 C 
HETATM   10 BR1  UNL     1      22.192   4.653  52.109  1.00  0.00    -0.084 Br
HETATM   11  C9  UNL     1      24.288   3.481  50.718  1.00  0.00     0.063 A 
HETATM   12  N2  UNL     1      25.383   3.996  50.097  1.00  0.00    -0.244 NA
HETATM   13  C10 UNL     1      26.616   3.428  50.256  1.00  0.00     0.234 A 
HETATM   14  N3  UNL     1      26.906   2.329  51.015  1.00  0.00    -0.241 NA
HETATM   15  C11 UNL     1      25.827   1.785  51.657  1.00  0.00     0.070 A 
HETATM   16  C12 UNL     1      25.959   0.634  52.450  1.00  0.00     0.035 A 
HETATM   17  C13 UNL     1      24.871   0.031  53.097  1.00  0.00     0.034 A 
HETATM   18  C14 UNL     1      23.609   0.560  52.978  1.00  0.00     0.063 A 
HETATM   19  C15 UNL     1      23.764   1.644  52.177  1.00  0.00     0.048 A 
HETATM   20  C16 UNL     1      24.614   2.403  51.458  1.00  0.00     0.021 A 
ENDROOT
BRANCH   1  21
HETATM   21  O1  UNL     1      22.469  -1.269  53.174  1.00  0.00    -0.283 OA
HETATM   22  H1  UNL     1      22.316  -1.409  52.205  1.00  0.00     0.245 HD
ENDBRANCH   1  21
TORSDOF 1
ENDMDL
MODEL 4
REMARK VINA RESULT:      -7.5      2.531      4.879
REMARK  1 active torsions:
REMARK  status: ('A' for Active; 'I' for Inactive)
REMARK    1  A    between atoms: O1_1  and  N1_2 
ROOT
HETATM    1  N1  UNL     1      21.239   0.815  52.604  1.00  0.00    -0.235 N 
HETATM    2  C1  UNL     1      20.076   1.602  52.644  1.00  0.00     0.135 C 
HETATM    3  C2  UNL     1      19.199   1.575  51.649  1.00  0.00    -0.006 C 
HETATM    4  C3  UNL     1      19.641   0.970  50.553  1.00  0.00     0.013 C 
HETATM    5  C4  UNL     1      20.842   1.483  49.970  1.00  0.00    -0.003 C 
HETATM    6  C5  UNL     1      21.781   1.786  49.089  1.00  0.00    -0.026 C 
HETATM    7  C6  UNL     1      23.108   2.439  48.845  1.00  0.00     0.000 C 
HETATM    8  C7  UNL     1      24.114   3.092  49.412  1.00  0.00     0.047 C 
HETATM    9  C8  UNL     1      24.865   3.730  50.567  1.00  0.00     0.116 C 
HETATM   10 BR1  UNL     1      23.702   4.853  51.592  1.00  0.00    -0.084 Br
HETATM   11  C9  UNL     1      25.503   2.746  51.438  1.00  0.00     0.063 A 
HETATM   12  N2  UNL     1      26.859   2.686  51.523  1.00  0.00    -0.244 NA
HETATM   13  C10 UNL     1      27.475   1.721  52.269  1.00  0.00     0.234 A 
HETATM   14  N3  UNL     1      26.856   0.740  52.991  1.00  0.00    -0.241 NA
HETATM   15  C11 UNL     1      25.489   0.772  52.929  1.00  0.00     0.070 A 
HETATM   16  C12 UNL     1      24.711  -0.190  53.593  1.00  0.00     0.035 A 
HETATM   17  C13 UNL     1      23.310  -0.208  53.528  1.00  0.00     0.034 A 
HETATM   18  C14 UNL     1      22.635   0.739  52.797  1.00  0.00     0.063 A 
HETATM   19  C15 UNL     1      23.607   1.528  52.274  1.00  0.00     0.048 A 
HETATM   20  C16 UNL     1      24.929   1.767  52.164  1.00  0.00     0.021 A 
ENDROOT
BRANCH   1  21
HETATM   21  O1  UNL     1      20.913  -0.445  52.239  1.00  0.00    -0.283 OA
HETATM   22  H1  UNL     1      20.082  -0.488  51.701  1.00  0.00     0.245 HD
ENDBRANCH   1  21
TORSDOF 1
ENDMDL
MODEL 5
REMARK VINA RESULT:      -7.3      9.262     11.789
REMARK  1 active torsions:
REMARK  status: ('A' for Active; 'I' for Inactive)
REMARK    1  A    between atoms: O1_1  and  N1_2 
ROOT
HETATM    1  N1  UNL     1      32.489   4.371  47.177  1.00  0.00    -0.235 N 
HETATM    2  C1  UNL     1      33.329   3.686  46.283  1.00  0.00     0.135 C 
HETATM    3  C2  UNL     1      34.486   3.178  46.686  1.00  0.00    -0.006 C 
HETATM    4  C3  UNL     1      34.873   3.596  47.885  1.00  0.00     0.013 C 
HETATM    5  C4  UNL     1      35.009   5.007  48.067  1.00  0.00    -0.003 C 
HETATM    6  C5  UNL     1      35.403   6.183  48.528  1.00  0.00    -0.026 C 
HETATM    7  C6  UNL     1      35.279   7.674  48.432  1.00  0.00     0.000 C 
HETATM    8  C7  UNL     1      34.671   8.672  47.804  1.00  0.00     0.047 C 
HETATM    9  C8  UNL     1      33.714   9.286  46.798  1.00  0.00     0.116 C 
HETATM   10 BR1  UNL     1      33.934   8.481  45.075  1.00  0.00    -0.084 Br
HETATM   11  C9  UNL     1      32.318   9.192  47.216  1.00  0.00     0.063 A 
HETATM   12  N2  UNL     1      31.613  10.319  47.503  1.00  0.00    -0.244 NA
HETATM   13  C10 UNL     1      30.332  10.248  47.974  1.00  0.00     0.234 A 
HETATM   14  N3  UNL     1      29.620   9.105  48.208  1.00  0.00    -0.241 NA
HETATM   15  C11 UNL     1      30.299   7.950  47.928  1.00  0.00     0.070 A 
HETATM   16  C12 UNL     1      29.713   6.693  48.147  1.00  0.00     0.035 A 
HETATM   17  C13 UNL     1      30.388   5.489  47.901  1.00  0.00     0.034 A 
HETATM   18  C14 UNL     1      31.676   5.498  47.423  1.00  0.00     0.063 A 
HETATM   19  C15 UNL     1      31.989   6.812  47.303  1.00  0.00     0.048 A 
HETATM   20  C16 UNL     1      31.584   8.088  47.456  1.00  0.00     0.021 A 
ENDROOT
BRANCH   1  21
HETATM   21  O1  UNL     1      32.368   3.653  48.316  1.00  0.00    -0.283 OA
HETATM   22  H1  UNL     1      31.470   3.734  48.729  1.00  0.00     0.245 HD
ENDBRANCH   1  21
TORSDOF 1
ENDMDL
MODEL 6
REMARK VINA RESULT:      -7.2      2.864      4.838
REMARK  1 active torsions:
REMARK  status: ('A' for Active; 'I' for Inactive)
REMARK    1  A    between atoms: O1_1  and  N1_2 
ROOT
HETATM    1  N1  UNL     1      19.940   1.194  51.903  1.00  0.00    -0.235 N 
HETATM    2  C1  UNL     1      19.041   2.260  51.738  1.00  0.00     0.135 C 
HETATM    3  C2  UNL     1      18.582   2.586  50.537  1.00  0.00    -0.006 C 
HETATM    4  C3  UNL     1      19.232   2.010  49.533  1.00  0.00     0.013 C 
HETATM    5  C4  UNL     1      20.642   2.236  49.461  1.00  0.00    -0.003 C 
HETATM    6  C5  UNL     1      21.871   2.368  48.989  1.00  0.00    -0.026 C 
HETATM    7  C6  UNL     1      23.310   2.655  49.298  1.00  0.00     0.000 C 
HETATM    8  C7  UNL     1      24.173   2.939  50.264  1.00  0.00     0.047 C 
HETATM    9  C8  UNL     1      24.597   3.212  51.696  1.00  0.00     0.116 C 
HETATM   10 BR1  UNL     1      23.429   4.489  52.515  1.00  0.00    -0.084 Br
HETATM   11  C9  UNL     1      24.658   2.000  52.509  1.00  0.00     0.063 A 
HETATM   12  N2  UNL     1      25.851   1.562  52.993  1.00  0.00    -0.244 NA
HETATM   13  C10 UNL     1      25.940   0.387  53.686  1.00  0.00     0.234 A 
HETATM   14  N3  UNL     1      24.908  -0.461  53.974  1.00  0.00    -0.241 NA
HETATM   15  C11 UNL     1      23.691  -0.049  53.503  1.00  0.00     0.070 A 
HETATM   16  C12 UNL     1      22.539  -0.829  53.692  1.00  0.00     0.035 A 
HETATM   17  C13 UNL     1      21.281  -0.455  53.197  1.00  0.00     0.034 A 
HETATM   18  C14 UNL     1      21.129   0.717  52.496  1.00  0.00     0.063 A 
HETATM   19  C15 UNL     1      22.371   1.263  52.464  1.00  0.00     0.048 A 
HETATM   20  C16 UNL     1      23.666   1.141  52.815  1.00  0.00     0.021 A 
ENDROOT
BRANCH   1  21
HETATM   21  O1  UNL     1      19.492   0.120  51.214  1.00  0.00    -0.283 OA
HETATM   22  H1  UNL     1      19.040   0.367  50.367  1.00  0.00     0.245 HD
ENDBRANCH   1  21
TORSDOF 1
ENDMDL
MODEL 7
REMARK VINA RESULT:      -7.2      4.683      6.511
REMARK  1 active torsions:
REMARK  status: ('A' for Active; 'I' for Inactive)
REMARK    1  A    between atoms: O1_1  and  N1_2 
ROOT
HETATM    1  N1  UNL     1      28.793   6.091  48.175  1.00  0.00    -0.235 N 
HETATM    2  C1  UNL     1      29.513   6.818  47.213  1.00  0.00     0.135 C 
HETATM    3  C2  UNL     1      30.282   7.840  47.564  1.00  0.00    -0.006 C 
HETATM    4  C3  UNL     1      30.098   8.253  48.812  1.00  0.00     0.013 C 
HETATM    5  C4  UNL     1      28.774   8.649  49.175  1.00  0.00    -0.003 C 
HETATM    6  C5  UNL     1      27.763   9.242  49.790  1.00  0.00    -0.026 C 
HETATM    7  C6  UNL     1      26.276   9.409  49.884  1.00  0.00     0.000 C 
HETATM    8  C7  UNL     1      25.110   9.027  49.381  1.00  0.00     0.047 C 
HETATM    9  C8  UNL     1      24.202   8.246  48.449  1.00  0.00     0.116 C 
HETATM   10 BR1  UNL     1      24.815   8.375  46.640  1.00  0.00    -0.084 Br
HETATM   11  C9  UNL     1      24.073   6.842  48.832  1.00  0.00     0.063 A 
HETATM   12  N2  UNL     1      22.874   6.355  49.251  1.00  0.00    -0.244 NA
HETATM   13  C10 UNL     1      22.753   5.066  49.690  1.00  0.00     0.234 A 
HETATM   14  N3  UNL     1      23.756   4.141  49.765  1.00  0.00    -0.241 NA
HETATM   15  C11 UNL     1      24.977   4.597  49.348  1.00  0.00     0.070 A 
HETATM   16  C12 UNL     1      26.113   3.773  49.395  1.00  0.00     0.035 A 
HETATM   17  C13 UNL     1      27.385   4.215  49.006  1.00  0.00     0.034 A 
HETATM   18  C14 UNL     1      27.569   5.499  48.552  1.00  0.00     0.063 A 
HETATM   19  C15 UNL     1      26.336   6.062  48.606  1.00  0.00     0.048 A 
HETATM   20  C16 UNL     1      25.034   5.902  48.917  1.00  0.00     0.021 A 
ENDROOT
BRANCH   1  21
HETATM   21  O1  UNL     1      29.609   5.789  49.210  1.00  0.00    -0.283 OA
HETATM   22  H1  UNL     1      29.353   6.250  50.049  1.00  0.00     0.245 HD
ENDBRANCH   1  21
TORSDOF 1
ENDMDL
MODEL 8
REMARK VINA RESULT:      -7.1      6.438      8.592
REMARK  1 active torsions:
REMARK  status: ('A' for Active; 'I' for Inactive)
REMARK    1  A    between atoms: O1_1  and  N1_2 
ROOT
HETATM    1  N1  UNL     1      30.186   5.903  48.294  1.00  0.00    -0.235 N 
HETATM    2  C1  UNL     1      31.363   6.081  47.547  1.00  0.00     0.135 C 
HETATM    3  C2  UNL     1      32.396   6.744  48.049  1.00  0.00    -0.006 C 
HETATM    4  C3  UNL     1      32.121   7.417  49.160  1.00  0.00     0.013 C 
HETATM    5  C4  UNL     1      31.067   8.380  49.088  1.00  0.00    -0.003 C 
HETATM    6  C5  UNL     1      30.312   9.437  49.338  1.00  0.00    -0.026 C 
HETATM    7  C6  UNL     1      29.082  10.214  48.976  1.00  0.00     0.000 C 
HETATM    8  C7  UNL     1      28.027  10.259  48.172  1.00  0.00     0.047 C 
HETATM    9  C8  UNL     1      27.121   9.761  47.061  1.00  0.00     0.116 C 
HETATM   10 BR1  UNL     1      28.143   9.293  45.512  1.00  0.00    -0.084 Br
HETATM   11  C9  UNL     1      26.292   8.630  47.471  1.00  0.00     0.063 A 
HETATM   12  N2  UNL     1      24.941   8.764  47.544  1.00  0.00    -0.244 NA
HETATM   13  C10 UNL     1      24.156   7.743  48.003  1.00  0.00     0.234 A 
HETATM   14  N3  UNL     1      24.591   6.519  48.428  1.00  0.00    -0.241 NA
HETATM   15  C11 UNL     1      25.947   6.349  48.367  1.00  0.00     0.070 A 
HETATM   16  C12 UNL     1      26.549   5.156  48.799  1.00  0.00     0.035 A 
HETATM   17  C13 UNL     1      27.937   4.958  48.780  1.00  0.00     0.034 A 
HETATM   18  C14 UNL     1      28.776   5.946  48.325  1.00  0.00     0.063 A 
HETATM   19  C15 UNL     1      27.951   6.964  47.976  1.00  0.00     0.048 A 
HETATM   20  C16 UNL     1      26.682   7.412  47.895  1.00  0.00     0.021 A 
ENDROOT
BRANCH   1  21
HETATM   21  O1  UNL     1      30.506   5.490  49.540  1.00  0.00    -0.283 OA
HETATM   22  H1  UNL     1      31.483   5.390  49.674  1.00  0.00     0.245 HD
ENDBRANCH   1  21
TORSDOF 1
ENDMDL
MODEL 9
REMARK VINA RESULT:      -6.9      2.181      3.804
REMARK  1 active torsions:
REMARK  status: ('A' for Active; 'I' for Inactive)
REMARK    1  A    between atoms: O1_1  and  N1_2 
ROOT
HETATM    1  N1  UNL     1      23.268   5.026  51.240  1.00  0.00    -0.235 N 
HETATM    2  C1  UNL     1      24.074   6.141  51.522  1.00  0.00     0.135 C 
HETATM    3  C2  UNL     1      24.912   6.625  50.615  1.00  0.00    -0.006 C 
HETATM    4  C3  UNL     1      25.100   5.827  49.571  1.00  0.00     0.013 C 
HETATM    5  C4  UNL     1      25.574   4.506  49.842  1.00  0.00    -0.003 C 
HETATM    6  C5  UNL     1      26.156   3.326  49.701  1.00  0.00    -0.026 C 
HETATM    7  C6  UNL     1      26.478   2.003  50.329  1.00  0.00     0.000 C 
HETATM    8  C7  UNL     1      26.340   1.260  51.419  1.00  0.00     0.047 C 
HETATM    9  C8  UNL     1      25.862   0.958  52.828  1.00  0.00     0.116 C 
HETATM   10 BR1  UNL     1      26.258   2.415  54.004  1.00  0.00    -0.084 Br
HETATM   11  C9  UNL     1      24.437   0.644  52.886  1.00  0.00     0.063 A 
HETATM   12  N2  UNL     1      24.025  -0.602  53.245  1.00  0.00    -0.244 NA
HETATM   13  C10 UNL     1      22.700  -0.937  53.227  1.00  0.00     0.234 A 
HETATM   14  N3  UNL     1      21.665  -0.120  52.869  1.00  0.00    -0.241 NA
HETATM   15  C11 UNL     1      22.043   1.143  52.503  1.00  0.00     0.070 A 
HETATM   16  C12 UNL     1      21.096   2.090  52.079  1.00  0.00     0.035 A 
HETATM   17  C13 UNL     1      21.450   3.383  51.669  1.00  0.00     0.034 A 
HETATM   18  C14 UNL     1      22.765   3.779  51.670  1.00  0.00     0.063 A 
HETATM   19  C15 UNL     1      23.450   2.697  52.116  1.00  0.00     0.048 A 
HETATM   20  C16 UNL     1      23.390   1.420  52.544  1.00  0.00     0.021 A 
ENDROOT
BRANCH   1  21
HETATM   21  O1  UNL     1      22.682   5.192  50.034  1.00  0.00    -0.283 OA
HETATM   22  H1  UNL     1      21.692   5.176  50.081  1.00  0.00     0.245 HD
ENDBRANCH   1  21
TORSDOF 1
ENDMDL
