MODEL 1
REMARK VINA RESULT:      -8.6      0.000      0.000
REMARK  2 active torsions:
REMARK  status: ('A' for Active; 'I' for Inactive)
REMARK    1  A    between atoms: C4_5  and  C5_6 
REMARK    2  A    between atoms: C7_9  and  N1_10 
ROOT
HETATM    1  C5  UNL     1      25.750   4.608  49.557  1.00  0.00     0.076 A 
HETATM    2  C6  UNL     1      24.352   4.558  49.165  1.00  0.00     0.085 A 
HETATM    3  S1  UNL     1      23.663   3.355  50.340  1.00  0.00    -0.062 SA
HETATM    4  C7  UNL     1      25.354   3.114  51.165  1.00  0.00     0.170 A 
HETATM    5  N2  UNL     1      26.042   3.817  50.570  1.00  0.00    -0.223 NA
ENDROOT
BRANCH   4   6
HETATM    6  N1  UNL     1      25.452   2.199  52.260  1.00  0.00    -0.339 N 
HETATM    7  C8  UNL     1      25.936   2.015  53.682  1.00  0.00     0.137 A 
HETATM    8  C9  UNL     1      27.374   2.194  53.758  1.00  0.00     0.001 C 
HETATM    9  C15 UNL     1      25.305   0.985  52.998  1.00  0.00     0.137 A 
HETATM   10  C10 UNL     1      28.607   1.655  53.784  1.00  0.00    -0.001 C 
HETATM   11  C11 UNL     1      28.986   0.225  53.720  1.00  0.00     0.019 C 
HETATM   12  C12 UNL     1      28.366  -0.859  53.211  1.00  0.00     0.010 C 
HETATM   13 BR1  UNL     1      29.330  -2.459  53.415  1.00  0.00    -0.051 Br
HETATM   14  C13 UNL     1      27.064  -1.010  52.522  1.00  0.00     0.017 C 
HETATM   15  C14 UNL     1      25.974  -0.222  52.530  1.00  0.00     0.002 C 
ENDBRANCH   4   6
BRANCH   1  16
HETATM   16  C4  UNL     1      26.679   5.475  48.850  1.00  0.00    -0.007 A 
HETATM   17  C3  UNL     1      27.989   5.132  48.605  1.00  0.00     0.015 A 
HETATM   18  C2  UNL     1      28.930   5.881  47.950  1.00  0.00     0.024 A 
HETATM   19  C1  UNL     1      28.514   7.106  47.491  1.00  0.00     0.034 A 
HETATM   20 CL1  UNL     1      29.615   8.163  46.639  1.00  0.00    -0.084 Cl
HETATM   21  C17 UNL     1      27.220   7.544  47.686  1.00  0.00     0.024 A 
HETATM   22  C16 UNL     1      26.336   6.714  48.362  1.00  0.00     0.015 A 
ENDBRANCH   1  16
TORSDOF 2
ENDMDL
MODEL 2
REMARK VINA RESULT:      -8.3      5.843      8.214
REMARK  2 active torsions:
REMARK  status: ('A' for Active; 'I' for Inactive)
REMARK    1  A    between atoms: C4_5  and  C5_6 
REMARK    2  A    between atoms: C7_9  and  N1_10 
ROOT
HETATM    1  C5  UNL     1      24.154  -0.511  54.030  1.00  0.00     0.076 A 
HETATM    2  C6  UNL     1      23.506  -1.277  55.081  1.00  0.00     0.085 A 
HETATM    3  S1  UNL     1      21.745  -0.963  54.759  1.00  0.00    -0.062 SA
HETATM    4  C7  UNL     1      22.160   0.140  53.272  1.00  0.00     0.170 A 
HETATM    5  N2  UNL     1      23.309   0.119  53.239  1.00  0.00    -0.223 NA
ENDROOT
BRANCH   4   6
HETATM    6  N1  UNL     1      21.080   0.733  52.543  1.00  0.00    -0.339 N 
HETATM    7  C8  UNL     1      20.239   0.648  51.289  1.00  0.00     0.137 A 
HETATM    8  C9  UNL     1      21.068   0.805  50.108  1.00  0.00     0.001 C 
HETATM    9  C15 UNL     1      20.020   1.639  52.236  1.00  0.00     0.137 A 
HETATM   10  C10 UNL     1      21.562   1.598  49.139  1.00  0.00    -0.001 C 
HETATM   11  C11 UNL     1      21.319   3.043  48.921  1.00  0.00     0.019 C 
HETATM   12  C12 UNL     1      20.959   4.040  49.753  1.00  0.00     0.010 C 
HETATM   13 BR1  UNL     1      20.792   5.714  48.915  1.00  0.00    -0.051 Br
HETATM   14  C13 UNL     1      20.672   4.051  51.206  1.00  0.00     0.017 C 
HETATM   15  C14 UNL     1      20.322   3.050  52.034  1.00  0.00     0.002 C 
ENDBRANCH   4   6
BRANCH   1  16
HETATM   16  C4  UNL     1      25.605  -0.491  53.925  1.00  0.00    -0.007 A 
HETATM   17  C3  UNL     1      26.294  -1.134  52.924  1.00  0.00     0.015 A 
HETATM   18  C2  UNL     1      27.652  -1.168  52.747  1.00  0.00     0.024 A 
HETATM   19  C1  UNL     1      28.399  -0.484  53.674  1.00  0.00     0.034 A 
HETATM   20 CL1  UNL     1      30.144  -0.447  53.566  1.00  0.00    -0.084 Cl
HETATM   21  C17 UNL     1      27.802   0.193  54.717  1.00  0.00     0.024 A 
HETATM   22  C16 UNL     1      26.418   0.172  54.815  1.00  0.00     0.015 A 
ENDBRANCH   1  16
TORSDOF 2
ENDMDL
MODEL 3
REMARK VINA RESULT:      -7.9      4.894      7.947
REMARK  2 active torsions:
REMARK  status: ('A' for Active; 'I' for Inactive)
REMARK    1  A    between atoms: C4_5  and  C5_6 
REMARK    2  A    between atoms: C7_9  and  N1_10 
ROOT
HETATM    1  C5  UNL     1      24.332  -0.000  53.326  1.00  0.00     0.076 A 
HETATM    2  C6  UNL     1      23.378  -0.706  54.163  1.00  0.00     0.085 A 
HETATM    3  S1  UNL     1      21.790  -0.023  53.601  1.00  0.00    -0.062 SA
HETATM    4  C7  UNL     1      22.660   1.096  52.339  1.00  0.00     0.170 A 
HETATM    5  N2  UNL     1      23.773   0.849  52.488  1.00  0.00    -0.223 NA
ENDROOT
BRANCH   4   6
HETATM    6  N1  UNL     1      21.855   1.950  51.519  1.00  0.00    -0.339 N 
HETATM    7  C8  UNL     1      21.503   2.330  50.098  1.00  0.00     0.137 A 
HETATM    8  C9  UNL     1      22.672   2.832  49.400  1.00  0.00     0.001 C 
HETATM    9  C15 UNL     1      20.901   2.957  51.180  1.00  0.00     0.137 A 
HETATM   10  C10 UNL     1      23.410   3.878  48.982  1.00  0.00    -0.001 C 
HETATM   11  C11 UNL     1      23.151   5.323  49.183  1.00  0.00     0.019 C 
HETATM   12  C12 UNL     1      22.456   6.001  50.117  1.00  0.00     0.010 C 
HETATM   13 BR1  UNL     1      22.464   7.865  49.875  1.00  0.00    -0.051 Br
HETATM   14  C13 UNL     1      21.688   5.539  51.297  1.00  0.00     0.017 C 
HETATM   15  C14 UNL     1      21.150   4.338  51.573  1.00  0.00     0.002 C 
ENDBRANCH   4   6
BRANCH   1  16
HETATM   16  C4  UNL     1      25.758  -0.261  53.459  1.00  0.00    -0.007 A 
HETATM   17  C3  UNL     1      26.550   0.362  54.395  1.00  0.00     0.015 A 
HETATM   18  C2  UNL     1      27.894   0.178  54.592  1.00  0.00     0.024 A 
HETATM   19  C1  UNL     1      28.508  -0.725  53.760  1.00  0.00     0.034 A 
HETATM   20 CL1  UNL     1      30.219  -1.052  53.903  1.00  0.00    -0.084 Cl
HETATM   21  C17 UNL     1      27.800  -1.401  52.787  1.00  0.00     0.024 A 
HETATM   22  C16 UNL     1      26.441  -1.150  52.663  1.00  0.00     0.015 A 
ENDBRANCH   1  16
TORSDOF 2
ENDMDL
MODEL 4
REMARK VINA RESULT:      -7.6      4.034      7.539
REMARK  2 active torsions:
REMARK  status: ('A' for Active; 'I' for Inactive)
REMARK    1  A    between atoms: C4_5  and  C5_6 
REMARK    2  A    between atoms: C7_9  and  N1_10 
ROOT
HETATM    1  C5  UNL     1      25.464   1.686  52.454  1.00  0.00     0.076 A 
HETATM    2  C6  UNL     1      24.182   1.516  53.114  1.00  0.00     0.085 A 
HETATM    3  S1  UNL     1      23.188   2.849  52.379  1.00  0.00    -0.062 SA
HETATM    4  C7  UNL     1      24.648   3.416  51.307  1.00  0.00     0.170 A 
HETATM    5  N2  UNL     1      25.487   2.684  51.593  1.00  0.00    -0.223 NA
ENDROOT
BRANCH   4   6
HETATM    6  N1  UNL     1      24.456   4.532  50.432  1.00  0.00    -0.339 N 
HETATM    7  C8  UNL     1      24.634   5.044  49.020  1.00  0.00     0.137 A 
HETATM    8  C9  UNL     1      26.038   5.052  48.654  1.00  0.00     0.001 C 
HETATM    9  C15 UNL     1      24.071   5.840  50.008  1.00  0.00     0.137 A 
HETATM   10  C10 UNL     1      27.196   5.726  48.526  1.00  0.00    -0.001 C 
HETATM   11  C11 UNL     1      27.467   7.152  48.825  1.00  0.00     0.019 C 
HETATM   12  C12 UNL     1      26.877   8.035  49.655  1.00  0.00     0.010 C 
HETATM   13 BR1  UNL     1      27.653   9.746  49.629  1.00  0.00    -0.051 Br
HETATM   14  C13 UNL     1      25.728   7.896  50.580  1.00  0.00     0.017 C 
HETATM   15  C14 UNL     1      24.723   7.003  50.596  1.00  0.00     0.002 C 
ENDBRANCH   4   6
BRANCH   1  16
HETATM   16  C4  UNL     1      26.572   0.796  52.765  1.00  0.00    -0.007 A 
HETATM   17  C3  UNL     1      27.765   1.238  53.289  1.00  0.00     0.015 A 
HETATM   18  C2  UNL     1      28.857   0.477  53.612  1.00  0.00     0.024 A 
HETATM   19  C1  UNL     1      28.741  -0.872  53.385  1.00  0.00     0.034 A 
HETATM   20 CL1  UNL     1      30.061  -1.958  53.752  1.00  0.00    -0.084 Cl
HETATM   21  C17 UNL     1      27.585  -1.415  52.861  1.00  0.00     0.024 A 
HETATM   22  C16 UNL     1      26.530  -0.563  52.565  1.00  0.00     0.015 A 
ENDBRANCH   1  16
TORSDOF 2
ENDMDL
MODEL 5
REMARK VINA RESULT:      -7.6      5.327      7.584
REMARK  2 active torsions:
REMARK  status: ('A' for Active; 'I' for Inactive)
REMARK    1  A    between atoms: C4_5  and  C5_6 
REMARK    2  A    between atoms: C7_9  and  N1_10 
ROOT
HETATM    1  C5  UNL     1      25.197   2.132  51.570  1.00  0.00     0.076 A 
HETATM    2  C6  UNL     1      25.446   3.021  50.449  1.00  0.00     0.085 A 
HETATM    3  S1  UNL     1      23.798   3.722  50.136  1.00  0.00    -0.062 SA
HETATM    4  C7  UNL     1      23.044   2.713  51.554  1.00  0.00     0.170 A 
HETATM    5  N2  UNL     1      23.940   2.125  51.968  1.00  0.00    -0.223 NA
ENDROOT
BRANCH   4   6
HETATM    6  N1  UNL     1      21.645   2.856  51.820  1.00  0.00    -0.339 N 
HETATM    7  C8  UNL     1      20.530   2.541  52.794  1.00  0.00     0.137 A 
HETATM    8  C9  UNL     1      20.369   1.107  52.938  1.00  0.00     0.001 C 
HETATM    9  C15 UNL     1      20.286   3.249  51.626  1.00  0.00     0.137 A 
HETATM   10  C10 UNL     1      19.729  -0.026  52.591  1.00  0.00    -0.001 C 
HETATM   11  C11 UNL     1      18.615  -0.194  51.629  1.00  0.00     0.019 C 
HETATM   12  C12 UNL     1      18.219   0.528  50.561  1.00  0.00     0.010 C 
HETATM   13 BR1  UNL     1      16.707  -0.166  49.686  1.00  0.00    -0.051 Br
HETATM   14  C13 UNL     1      18.762   1.767  49.958  1.00  0.00     0.017 C 
HETATM   15  C14 UNL     1      19.546   2.724  50.486  1.00  0.00     0.002 C 
ENDBRANCH   4   6
BRANCH   1  16
HETATM   16  C4  UNL     1      26.284   1.356  52.146  1.00  0.00    -0.007 A 
HETATM   17  C3  UNL     1      27.406   1.930  52.699  1.00  0.00     0.015 A 
HETATM   18  C2  UNL     1      28.472   1.280  53.262  1.00  0.00     0.024 A 
HETATM   19  C1  UNL     1      28.408  -0.091  53.272  1.00  0.00     0.034 A 
HETATM   20 CL1  UNL     1      29.703  -1.043  53.959  1.00  0.00    -0.084 Cl
HETATM   21  C17 UNL     1      27.325  -0.762  52.741  1.00  0.00     0.024 A 
HETATM   22  C16 UNL     1      26.290  -0.018  52.192  1.00  0.00     0.015 A 
ENDBRANCH   1  16
TORSDOF 2
ENDMDL
MODEL 6
REMARK VINA RESULT:      -7.5      3.432      4.386
REMARK  2 active torsions:
REMARK  status: ('A' for Active; 'I' for Inactive)
REMARK    1  A    between atoms: C4_5  and  C5_6 
REMARK    2  A    between atoms: C7_9  and  N1_10 
ROOT
HETATM    1  C5  UNL     1      25.604   6.043  48.947  1.00  0.00     0.076 A 
HETATM    2  C6  UNL     1      24.528   6.442  48.057  1.00  0.00     0.085 A 
HETATM    3  S1  UNL     1      23.049   6.084  49.052  1.00  0.00    -0.062 SA
HETATM    4  C7  UNL     1      24.109   5.459  50.496  1.00  0.00     0.170 A 
HETATM    5  N2  UNL     1      25.185   5.582  50.109  1.00  0.00    -0.223 NA
ENDROOT
BRANCH   4   6
HETATM    6  N1  UNL     1      23.445   4.998  51.677  1.00  0.00    -0.339 N 
HETATM    7  C8  UNL     1      23.625   4.300  53.008  1.00  0.00     0.137 A 
HETATM    8  C9  UNL     1      24.124   2.952  52.812  1.00  0.00     0.001 C 
HETATM    9  C15 UNL     1      22.378   4.747  52.593  1.00  0.00     0.137 A 
HETATM   10  C10 UNL     1      23.881   1.633  52.704  1.00  0.00    -0.001 C 
HETATM   11  C11 UNL     1      22.579   0.930  52.779  1.00  0.00     0.019 C 
HETATM   12  C12 UNL     1      21.314   1.330  52.541  1.00  0.00     0.010 C 
HETATM   13 BR1  UNL     1      20.024  -0.012  52.801  1.00  0.00    -0.051 Br
HETATM   14  C13 UNL     1      20.763   2.636  52.110  1.00  0.00     0.017 C 
HETATM   15  C14 UNL     1      21.283   3.873  52.192  1.00  0.00     0.002 C 
ENDBRANCH   4   6
BRANCH   1  16
HETATM   16  C4  UNL     1      26.990   6.171  48.525  1.00  0.00    -0.007 A 
HETATM   17  C3  UNL     1      27.530   7.352  48.071  1.00  0.00     0.015 A 
HETATM   18  C2  UNL     1      28.819   7.563  47.656  1.00  0.00     0.024 A 
HETATM   19  C1  UNL     1      29.654   6.475  47.700  1.00  0.00     0.034 A 
HETATM   20 CL1  UNL     1      31.323   6.607  47.197  1.00  0.00    -0.084 Cl
HETATM   21  C17 UNL     1      29.208   5.246  48.140  1.00  0.00     0.024 A 
HETATM   22  C16 UNL     1      27.884   5.127  48.541  1.00  0.00     0.015 A 
ENDBRANCH   1  16
TORSDOF 2
ENDMDL
MODEL 7
REMARK VINA RESULT:      -7.5      5.494      8.119
REMARK  2 active torsions:
REMARK  status: ('A' for Active; 'I' for Inactive)
REMARK    1  A    between atoms: C4_5  and  C5_6 
REMARK    2  A    between atoms: C7_9  and  N1_10 
ROOT
HETATM    1  C5  UNL     1      24.848   1.668  52.341  1.00  0.00     0.076 A 
HETATM    2  C6  UNL     1      24.449   2.881  53.032  1.00  0.00     0.085 A 
HETATM    3  S1  UNL     1      22.861   3.275  52.239  1.00  0.00    -0.062 SA
HETATM    4  C7  UNL     1      22.989   1.753  51.112  1.00  0.00     0.170 A 
HETATM    5  N2  UNL     1      23.986   1.274  51.425  1.00  0.00    -0.223 NA
ENDROOT
BRANCH   4   6
HETATM    6  N1  UNL     1      21.932   1.508  50.179  1.00  0.00    -0.339 N 
HETATM    7  C8  UNL     1      21.600   1.074  48.768  1.00  0.00     0.137 A 
HETATM    8  C9  UNL     1      22.183   1.989  47.804  1.00  0.00     0.001 C 
HETATM    9  C15 UNL     1      20.601   1.411  49.670  1.00  0.00     0.137 A 
HETATM   10  C10 UNL     1      22.047   3.053  46.990  1.00  0.00    -0.001 C 
HETATM   11  C11 UNL     1      20.845   3.889  46.763  1.00  0.00     0.019 C 
HETATM   12  C12 UNL     1      19.762   4.149  47.522  1.00  0.00     0.010 C 
HETATM   13 BR1  UNL     1      18.521   5.305  46.714  1.00  0.00    -0.051 Br
HETATM   14  C13 UNL     1      19.378   3.686  48.876  1.00  0.00     0.017 C 
HETATM   15  C14 UNL     1      19.782   2.613  49.579  1.00  0.00     0.002 C 
ENDBRANCH   4   6
BRANCH   1  16
HETATM   16  C4  UNL     1      26.097   1.005  52.684  1.00  0.00    -0.007 A 
HETATM   17  C3  UNL     1      27.211   1.684  53.121  1.00  0.00     0.015 A 
HETATM   18  C2  UNL     1      28.423   1.145  53.465  1.00  0.00     0.024 A 
HETATM   19  C1  UNL     1      28.529  -0.219  53.360  1.00  0.00     0.034 A 
HETATM   20 CL1  UNL     1      30.021  -1.034  53.767  1.00  0.00    -0.084 Cl
HETATM   21  C17 UNL     1      27.468  -0.990  52.930  1.00  0.00     0.024 A 
HETATM   22  C16 UNL     1      26.278  -0.355  52.603  1.00  0.00     0.015 A 
ENDBRANCH   1  16
TORSDOF 2
ENDMDL
MODEL 8
REMARK VINA RESULT:      -7.5      4.505      7.774
REMARK  2 active torsions:
REMARK  status: ('A' for Active; 'I' for Inactive)
REMARK    1  A    between atoms: C4_5  and  C5_6 
REMARK    2  A    between atoms: C7_9  and  N1_10 
ROOT
HETATM    1  C5  UNL     1      24.584   0.957  52.922  1.00  0.00     0.076 A 
HETATM    2  C6  UNL     1      23.421   0.133  53.204  1.00  0.00     0.085 A 
HETATM    3  S1  UNL     1      22.047   1.240  52.766  1.00  0.00    -0.062 SA
HETATM    4  C7  UNL     1      23.249   2.624  52.278  1.00  0.00     0.170 A 
HETATM    5  N2  UNL     1      24.283   2.159  52.471  1.00  0.00    -0.223 NA
ENDROOT
BRANCH   4   6
HETATM    6  N1  UNL     1      22.706   3.862  51.808  1.00  0.00    -0.339 N 
HETATM    7  C8  UNL     1      21.654   4.498  50.925  1.00  0.00     0.137 A 
HETATM    8  C9  UNL     1      21.843   4.103  49.542  1.00  0.00     0.001 C 
HETATM    9  C15 UNL     1      22.546   5.273  51.654  1.00  0.00     0.137 A 
HETATM   10  C10 UNL     1      22.337   4.374  48.319  1.00  0.00    -0.001 C 
HETATM   11  C11 UNL     1      23.092   5.569  47.877  1.00  0.00     0.019 C 
HETATM   12  C12 UNL     1      23.856   6.459  48.541  1.00  0.00     0.010 C 
HETATM   13 BR1  UNL     1      24.585   7.806  47.451  1.00  0.00    -0.051 Br
HETATM   14  C13 UNL     1      24.223   6.563  49.973  1.00  0.00     0.017 C 
HETATM   15  C14 UNL     1      23.626   6.054  51.065  1.00  0.00     0.002 C 
ENDBRANCH   4   6
BRANCH   1  16
HETATM   16  C4  UNL     1      25.923   0.435  53.143  1.00  0.00    -0.007 A 
HETATM   17  C3  UNL     1      26.336  -0.793  52.681  1.00  0.00     0.015 A 
HETATM   18  C2  UNL     1      27.572  -1.362  52.841  1.00  0.00     0.024 A 
HETATM   19  C1  UNL     1      28.493  -0.620  53.538  1.00  0.00     0.034 A 
HETATM   20 CL1  UNL     1      30.108  -1.230  53.814  1.00  0.00    -0.084 Cl
HETATM   21  C17 UNL     1      28.177   0.624  54.043  1.00  0.00     0.024 A 
HETATM   22  C16 UNL     1      26.898   1.119  53.831  1.00  0.00     0.015 A 
ENDBRANCH   1  16
TORSDOF 2
ENDMDL
MODEL 9
REMARK VINA RESULT:      -7.4      4.218      7.753
REMARK  2 active torsions:
REMARK  status: ('A' for Active; 'I' for Inactive)
REMARK    1  A    between atoms: C4_5  and  C5_6 
REMARK    2  A    between atoms: C7_9  and  N1_10 
ROOT
HETATM    1  C5  UNL     1      24.148   3.983  51.337  1.00  0.00     0.076 A 
HETATM    2  C6  UNL     1      22.766   4.270  51.679  1.00  0.00     0.085 A 
HETATM    3  S1  UNL     1      22.530   5.931  50.979  1.00  0.00    -0.062 SA
HETATM    4  C7  UNL     1      24.317   5.972  50.341  1.00  0.00     0.170 A 
HETATM    5  N2  UNL     1      24.740   4.956  50.673  1.00  0.00    -0.223 NA
ENDROOT
BRANCH   4   6
HETATM    6  N1  UNL     1      24.761   7.137  49.638  1.00  0.00    -0.339 N 
HETATM    7  C8  UNL     1      25.219   7.678  48.301  1.00  0.00     0.137 A 
HETATM    8  C9  UNL     1      26.429   7.005  47.867  1.00  0.00     0.001 C 
HETATM    9  C15 UNL     1      25.130   8.499  49.417  1.00  0.00     0.137 A 
HETATM   10  C10 UNL     1      27.771   6.987  47.772  1.00  0.00    -0.001 C 
HETATM   11  C11 UNL     1      28.740   8.001  48.248  1.00  0.00     0.019 C 
HETATM   12  C12 UNL     1      28.677   8.933  49.220  1.00  0.00     0.010 C 
HETATM   13 BR1  UNL     1      30.235   9.971  49.388  1.00  0.00    -0.051 Br
HETATM   14  C13 UNL     1      27.602   9.282  50.177  1.00  0.00     0.017 C 
HETATM   15  C14 UNL     1      26.278   9.052  50.124  1.00  0.00     0.002 C 
ENDBRANCH   4   6
BRANCH   1  16
HETATM   16  C4  UNL     1      24.752   2.718  51.724  1.00  0.00    -0.007 A 
HETATM   17  C3  UNL     1      26.005   2.327  51.312  1.00  0.00     0.015 A 
HETATM   18  C2  UNL     1      26.649   1.160  51.626  1.00  0.00     0.024 A 
HETATM   19  C1  UNL     1      25.965   0.292  52.440  1.00  0.00     0.034 A 
HETATM   20 CL1  UNL     1      26.673  -1.234  52.917  1.00  0.00    -0.084 Cl
HETATM   21  C17 UNL     1      24.702   0.591  52.907  1.00  0.00     0.024 A 
HETATM   22  C16 UNL     1      24.128   1.799  52.535  1.00  0.00     0.015 A 
ENDBRANCH   1  16
TORSDOF 2
ENDMDL
