MODEL 1
REMARK VINA RESULT:      -8.2      0.000      0.000
REMARK  2 active torsions:
REMARK  status: ('A' for Active; 'I' for Inactive)
REMARK    1  A    between atoms: N1_1  and  C1_2 
REMARK    2  A    between atoms: C5_7  and  C6_8 
ROOT
HETATM    1  C6  UNL     1      24.981   0.704  52.947  1.00  0.00     0.097 A 
HETATM    2  N2  UNL     1      23.914  -0.132  53.119  1.00  0.00    -0.239 NA
HETATM    3  C7  UNL     1      22.757   0.093  52.495  1.00  0.00     0.236 A 
HETATM    4  N3  UNL     1      22.509   1.115  51.663  1.00  0.00    -0.215 NA
HETATM    5  C8  UNL     1      23.500   2.005  51.426  1.00  0.00     0.200 A 
HETATM    6  C9  UNL     1      24.725   1.777  52.082  1.00  0.00     0.112 A 
HETATM    7  N4  UNL     1      25.876   2.659  52.053  1.00  0.00    -0.380 N 
HETATM    8  C10 UNL     1      26.431   3.288  50.852  1.00  0.00     0.161 C 
HETATM    9  C11 UNL     1      25.367   4.015  50.111  1.00  0.00    -0.005 A 
HETATM   10  C12 UNL     1      25.964   5.049  49.383  1.00  0.00     0.035 A 
HETATM   11  C13 UNL     1      25.332   5.942  48.576  1.00  0.00     0.034 A 
HETATM   12 CL1  UNL     1      26.183   7.196  47.714  1.00  0.00    -0.084 Cl
HETATM   13  C14 UNL     1      23.964   5.830  48.454  1.00  0.00     0.026 A 
HETATM   14  C15 UNL     1      23.312   4.830  49.146  1.00  0.00     0.039 A 
HETATM   15  C16 UNL     1      23.999   3.946  49.953  1.00  0.00     0.086 A 
HETATM   16  O1  UNL     1      23.149   3.026  50.550  1.00  0.00    -0.289 OA
HETATM   17  H7  UNL     1      26.173   2.732  53.077  1.00  0.00     0.160 HD
ENDROOT
BRANCH   1  18
HETATM   18  C5  UNL     1      26.252   0.459  53.612  1.00  0.00     0.011 A 
HETATM   19  C1  UNL     1      27.218  -0.450  52.880  1.00  0.00     0.293 A 
HETATM   20  C2  UNL     1      28.332  -0.536  53.835  1.00  0.00     0.026 A 
HETATM   21 BR1  UNL     1      29.875  -1.590  53.420  1.00  0.00    -0.053 Br
HETATM   22  C3  UNL     1      28.152   0.157  54.939  1.00  0.00     0.018 A 
HETATM   23  C4  UNL     1      26.849   0.753  54.746  1.00  0.00     0.013 A 
BRANCH  19  24
HETATM   24  N1  UNL     1      26.635  -1.803  52.840  1.00  0.00     0.092 N 
HETATM   25  H1  UNL     1      25.645  -1.760  53.219  1.00  0.00     0.314 HD
HETATM   26  H2  UNL     1      27.127  -2.398  53.556  1.00  0.00     0.314 HD
ENDBRANCH  19  24
ENDBRANCH   1  18
TORSDOF 2
ENDMDL
MODEL 2
REMARK VINA RESULT:      -8.2      3.848      6.753
REMARK  2 active torsions:
REMARK  status: ('A' for Active; 'I' for Inactive)
REMARK    1  A    between atoms: N1_1  and  C1_2 
REMARK    2  A    between atoms: C5_7  and  C6_8 
ROOT
HETATM    1  C6  UNL     1      23.514   4.853  50.728  1.00  0.00     0.097 A 
HETATM    2  N2  UNL     1      22.233   5.168  51.082  1.00  0.00    -0.239 NA
HETATM    3  C7  UNL     1      21.504   4.341  51.832  1.00  0.00     0.236 A 
HETATM    4  N3  UNL     1      21.916   3.157  52.307  1.00  0.00    -0.215 NA
HETATM    5  C8  UNL     1      23.171   2.747  52.011  1.00  0.00     0.200 A 
HETATM    6  C9  UNL     1      23.948   3.613  51.218  1.00  0.00     0.112 A 
HETATM    7  N4  UNL     1      25.272   3.325  50.699  1.00  0.00    -0.380 N 
HETATM    8  C10 UNL     1      26.376   2.749  51.469  1.00  0.00     0.161 C 
HETATM    9  C11 UNL     1      25.941   1.494  52.138  1.00  0.00    -0.005 A 
HETATM   10  C12 UNL     1      27.063   0.684  52.330  1.00  0.00     0.035 A 
HETATM   11  C13 UNL     1      27.086  -0.546  52.909  1.00  0.00     0.034 A 
HETATM   12 CL1  UNL     1      28.552  -1.470  53.096  1.00  0.00    -0.084 Cl
HETATM   13  C14 UNL     1      25.888  -1.059  53.358  1.00  0.00     0.026 A 
HETATM   14  C15 UNL     1      24.740  -0.308  53.199  1.00  0.00     0.039 A 
HETATM   15  C16 UNL     1      24.769   0.936  52.605  1.00  0.00     0.086 A 
HETATM   16  O1  UNL     1      23.507   1.511  52.550  1.00  0.00    -0.289 OA
HETATM   17  H7  UNL     1      25.215   3.611  49.671  1.00  0.00     0.160 HD
ENDROOT
BRANCH   1  18
HETATM   18  C5  UNL     1      24.323   5.756  49.922  1.00  0.00     0.011 A 
HETATM   19  C1  UNL     1      25.116   6.797  50.687  1.00  0.00     0.293 A 
HETATM   20  C2  UNL     1      25.741   7.559  49.597  1.00  0.00     0.026 A 
HETATM   21 BR1  UNL     1      26.884   9.042  49.994  1.00  0.00    -0.053 Br
HETATM   22  C3  UNL     1      25.441   7.125  48.392  1.00  0.00     0.018 A 
HETATM   23  C4  UNL     1      24.561   6.007  48.653  1.00  0.00     0.013 A 
BRANCH  19  24
HETATM   24  N1  UNL     1      24.163   7.728  51.316  1.00  0.00     0.092 N 
HETATM   25  H1  UNL     1      23.414   7.166  51.814  1.00  0.00     0.314 HD
HETATM   26  H2  UNL     1      23.618   8.211  50.555  1.00  0.00     0.314 HD
ENDBRANCH  19  24
ENDBRANCH   1  18
TORSDOF 2
ENDMDL
MODEL 3
REMARK VINA RESULT:      -8.2      3.453      5.329
REMARK  2 active torsions:
REMARK  status: ('A' for Active; 'I' for Inactive)
REMARK    1  A    between atoms: N1_1  and  C1_2 
REMARK    2  A    between atoms: C5_7  and  C6_8 
ROOT
HETATM    1  C6  UNL     1      25.144   1.765  52.271  1.00  0.00     0.097 A 
HETATM    2  N2  UNL     1      25.510   2.817  51.480  1.00  0.00    -0.239 NA
HETATM    3  C7  UNL     1      24.640   3.381  50.641  1.00  0.00     0.236 A 
HETATM    4  N3  UNL     1      23.364   3.005  50.477  1.00  0.00    -0.215 NA
HETATM    5  C8  UNL     1      22.900   1.968  51.212  1.00  0.00     0.200 A 
HETATM    6  C9  UNL     1      23.812   1.365  52.100  1.00  0.00     0.112 A 
HETATM    7  N4  UNL     1      23.557   0.181  52.899  1.00  0.00    -0.380 N 
HETATM    8  C10 UNL     1      22.349  -0.062  53.691  1.00  0.00     0.161 C 
HETATM    9  C11 UNL     1      21.136   0.105  52.848  1.00  0.00    -0.005 A 
HETATM   10  C12 UNL     1      20.112  -0.679  53.387  1.00  0.00     0.035 A 
HETATM   11  C13 UNL     1      18.845  -0.800  52.909  1.00  0.00     0.034 A 
HETATM   12 CL1  UNL     1      17.646  -1.812  53.668  1.00  0.00    -0.084 Cl
HETATM   13  C14 UNL     1      18.523  -0.083  51.776  1.00  0.00     0.026 A 
HETATM   14  C15 UNL     1      19.490   0.712  51.193  1.00  0.00     0.039 A 
HETATM   15  C16 UNL     1      20.762   0.802  51.718  1.00  0.00     0.086 A 
HETATM   16  O1  UNL     1      21.567   1.654  50.975  1.00  0.00    -0.289 OA
HETATM   17  H7  UNL     1      24.423  -0.427  52.744  1.00  0.00     0.160 HD
ENDROOT
BRANCH   1  18
HETATM   18  C5  UNL     1      26.082   1.153  53.201  1.00  0.00     0.011 A 
HETATM   19  C1  UNL     1      27.271   0.451  52.577  1.00  0.00     0.293 A 
HETATM   20  C2  UNL     1      27.951  -0.097  53.759  1.00  0.00     0.026 A 
HETATM   21 BR1  UNL     1      29.560  -1.114  53.557  1.00  0.00    -0.053 Br
HETATM   22  C3  UNL     1      27.358   0.179  54.900  1.00  0.00     0.018 A 
HETATM   23  C4  UNL     1      26.208   0.956  54.495  1.00  0.00     0.013 A 
BRANCH  19  24
HETATM   24  N1  UNL     1      26.775  -0.722  51.835  1.00  0.00     0.092 N 
HETATM   25  H1  UNL     1      26.342  -0.392  50.924  1.00  0.00     0.314 HD
HETATM   26  H2  UNL     1      25.946  -1.115  52.351  1.00  0.00     0.314 HD
ENDBRANCH  19  24
ENDBRANCH   1  18
TORSDOF 2
ENDMDL
MODEL 4
REMARK VINA RESULT:      -7.7      4.158      7.136
REMARK  2 active torsions:
REMARK  status: ('A' for Active; 'I' for Inactive)
REMARK    1  A    between atoms: N1_1  and  C1_2 
REMARK    2  A    between atoms: C5_7  and  C6_8 
ROOT
HETATM    1  C6  UNL     1      25.078   2.896  50.918  1.00  0.00     0.097 A 
HETATM    2  N2  UNL     1      26.417   2.679  51.079  1.00  0.00    -0.239 NA
HETATM    3  C7  UNL     1      26.866   1.712  51.880  1.00  0.00     0.236 A 
HETATM    4  N3  UNL     1      26.097   0.875  52.592  1.00  0.00    -0.215 NA
HETATM    5  C8  UNL     1      24.754   1.007  52.506  1.00  0.00     0.200 A 
HETATM    6  C9  UNL     1      24.271   2.026  51.663  1.00  0.00     0.112 A 
HETATM    7  N4  UNL     1      22.880   2.407  51.508  1.00  0.00    -0.380 N 
HETATM    8  C10 UNL     1      21.763   1.478  51.322  1.00  0.00     0.161 C 
HETATM    9  C11 UNL     1      21.765   0.446  52.392  1.00  0.00    -0.005 A 
HETATM   10  C12 UNL     1      20.456  -0.011  52.567  1.00  0.00     0.035 A 
HETATM   11  C13 UNL     1      20.038  -0.957  53.450  1.00  0.00     0.034 A 
HETATM   12 CL1  UNL     1      18.371  -1.451  53.581  1.00  0.00    -0.084 Cl
HETATM   13  C14 UNL     1      20.992  -1.531  54.264  1.00  0.00     0.026 A 
HETATM   14  C15 UNL     1      22.305  -1.124  54.142  1.00  0.00     0.039 A 
HETATM   15  C16 UNL     1      22.679  -0.160  53.228  1.00  0.00     0.086 A 
HETATM   16  O1  UNL     1      24.042   0.094  53.276  1.00  0.00    -0.289 OA
HETATM   17  H7  UNL     1      22.893   3.474  51.582  1.00  0.00     0.160 HD
ENDROOT
BRANCH   1  18
HETATM   18  C5  UNL     1      24.579   3.939  50.034  1.00  0.00     0.011 A 
HETATM   19  C1  UNL     1      24.902   5.363  50.440  1.00  0.00     0.293 A 
HETATM   20  C2  UNL     1      24.209   6.137  49.399  1.00  0.00     0.026 A 
HETATM   21 BR1  UNL     1      24.276   8.049  49.420  1.00  0.00    -0.053 Br
HETATM   22  C3  UNL     1      23.579   5.402  48.509  1.00  0.00     0.018 A 
HETATM   23  C4  UNL     1      23.843   4.050  48.950  1.00  0.00     0.013 A 
BRANCH  19  24
HETATM   24  N1  UNL     1      24.180   5.659  51.690  1.00  0.00     0.092 N 
HETATM   25  H1  UNL     1      24.774   5.342  52.510  1.00  0.00     0.314 HD
HETATM   26  H2  UNL     1      23.347   5.019  51.752  1.00  0.00     0.314 HD
ENDBRANCH  19  24
ENDBRANCH   1  18
TORSDOF 2
ENDMDL
MODEL 5
REMARK VINA RESULT:      -7.7      4.360      6.762
REMARK  2 active torsions:
REMARK  status: ('A' for Active; 'I' for Inactive)
REMARK    1  A    between atoms: N1_1  and  C1_2 
REMARK    2  A    between atoms: C5_7  and  C6_8 
ROOT
HETATM    1  C6  UNL     1      21.903   2.059  52.678  1.00  0.00     0.097 A 
HETATM    2  N2  UNL     1      21.583   3.342  52.337  1.00  0.00    -0.239 NA
HETATM    3  C7  UNL     1      22.528   4.273  52.200  1.00  0.00     0.236 A 
HETATM    4  N3  UNL     1      23.843   4.076  52.371  1.00  0.00    -0.215 NA
HETATM    5  C8  UNL     1      24.267   2.838  52.714  1.00  0.00     0.200 A 
HETATM    6  C9  UNL     1      23.277   1.849  52.864  1.00  0.00     0.112 A 
HETATM    7  N4  UNL     1      23.499   0.492  53.327  1.00  0.00    -0.380 N 
HETATM    8  C10 UNL     1      24.569  -0.396  52.866  1.00  0.00     0.161 C 
HETATM    9  C11 UNL     1      25.889   0.278  52.991  1.00  0.00    -0.005 A 
HETATM   10  C12 UNL     1      26.873  -0.704  53.141  1.00  0.00     0.035 A 
HETATM   11  C13 UNL     1      28.209  -0.497  53.285  1.00  0.00     0.034 A 
HETATM   12 CL1  UNL     1      29.348  -1.804  53.465  1.00  0.00    -0.084 Cl
HETATM   13  C14 UNL     1      28.653   0.808  53.285  1.00  0.00     0.026 A 
HETATM   14  C15 UNL     1      27.732   1.826  53.141  1.00  0.00     0.039 A 
HETATM   15  C16 UNL     1      26.386   1.564  52.997  1.00  0.00     0.086 A 
HETATM   16  O1  UNL     1      25.645   2.731  52.867  1.00  0.00    -0.289 OA
HETATM   17  H7  UNL     1      22.734   0.339  54.057  1.00  0.00     0.160 HD
ENDROOT
BRANCH   1  18
HETATM   18  C5  UNL     1      20.880   1.032  52.816  1.00  0.00     0.011 A 
HETATM   19  C1  UNL     1      19.799   1.027  51.754  1.00  0.00     0.293 A 
HETATM   20  C2  UNL     1      18.922  -0.055  52.224  1.00  0.00     0.026 A 
HETATM   21 BR1  UNL     1      17.346  -0.510  51.238  1.00  0.00    -0.053 Br
HETATM   22  C3  UNL     1      19.326  -0.636  53.333  1.00  0.00     0.018 A 
HETATM   23  C4  UNL     1      20.543   0.077  53.654  1.00  0.00     0.013 A 
BRANCH  19  24
HETATM   24  N1  UNL     1      19.007   2.261  51.899  1.00  0.00     0.092 N 
HETATM   25  H1  UNL     1      18.420   2.189  52.780  1.00  0.00     0.314 HD
HETATM   26  H2  UNL     1      18.278   2.279  51.140  1.00  0.00     0.314 HD
ENDBRANCH  19  24
ENDBRANCH   1  18
TORSDOF 2
ENDMDL
MODEL 6
REMARK VINA RESULT:      -7.6      2.023      2.694
REMARK  2 active torsions:
REMARK  status: ('A' for Active; 'I' for Inactive)
REMARK    1  A    between atoms: N1_1  and  C1_2 
REMARK    2  A    between atoms: C5_7  and  C6_8 
ROOT
HETATM    1  C6  UNL     1      24.685   2.570  51.956  1.00  0.00     0.097 A 
HETATM    2  N2  UNL     1      23.404   2.485  52.422  1.00  0.00    -0.239 NA
HETATM    3  C7  UNL     1      22.507   3.432  52.144  1.00  0.00     0.236 A 
HETATM    4  N3  UNL     1      22.739   4.529  51.410  1.00  0.00    -0.215 NA
HETATM    5  C8  UNL     1      23.980   4.712  50.902  1.00  0.00     0.200 A 
HETATM    6  C9  UNL     1      24.934   3.718  51.191  1.00  0.00     0.112 A 
HETATM    7  N4  UNL     1      26.340   3.768  50.838  1.00  0.00    -0.380 N 
HETATM    8  C10 UNL     1      26.872   4.149  49.528  1.00  0.00     0.161 C 
HETATM    9  C11 UNL     1      26.321   5.464  49.109  1.00  0.00    -0.005 A 
HETATM   10  C12 UNL     1      27.233   6.069  48.239  1.00  0.00     0.035 A 
HETATM   11  C13 UNL     1      27.099   7.280  47.636  1.00  0.00     0.034 A 
HETATM   12 CL1  UNL     1      28.308   7.936  46.565  1.00  0.00    -0.084 Cl
HETATM   13  C14 UNL     1      25.951   7.997  47.900  1.00  0.00     0.026 A 
HETATM   14  C15 UNL     1      25.008   7.456  48.751  1.00  0.00     0.039 A 
HETATM   15  C16 UNL     1      25.191   6.222  49.339  1.00  0.00     0.086 A 
HETATM   16  O1  UNL     1      24.122   5.876  50.154  1.00  0.00    -0.289 OA
HETATM   17  H7  UNL     1      26.844   3.489  51.740  1.00  0.00     0.160 HD
ENDROOT
BRANCH   1  18
HETATM   18  C5  UNL     1      25.667   1.534  52.241  1.00  0.00     0.011 A 
HETATM   19  C1  UNL     1      26.249   1.540  53.640  1.00  0.00     0.293 A 
HETATM   20  C2  UNL     1      27.226   0.444  53.564  1.00  0.00     0.026 A 
HETATM   21 BR1  UNL     1      28.287  -0.005  55.092  1.00  0.00    -0.053 Br
HETATM   22  C3  UNL     1      27.277  -0.154  52.393  1.00  0.00     0.018 A 
HETATM   23  C4  UNL     1      26.291   0.561  51.614  1.00  0.00     0.013 A 
BRANCH  19  24
HETATM   24  N1  UNL     1      27.052   2.766  53.798  1.00  0.00     0.092 N 
HETATM   25  H1  UNL     1      27.612   2.924  52.912  1.00  0.00     0.314 HD
HETATM   26  H2  UNL     1      27.803   2.581  54.512  1.00  0.00     0.314 HD
ENDBRANCH  19  24
ENDBRANCH   1  18
TORSDOF 2
ENDMDL
MODEL 7
REMARK VINA RESULT:      -7.6      4.171      6.319
REMARK  2 active torsions:
REMARK  status: ('A' for Active; 'I' for Inactive)
REMARK    1  A    between atoms: N1_1  and  C1_2 
REMARK    2  A    between atoms: C5_7  and  C6_8 
ROOT
HETATM    1  C6  UNL     1      23.792   1.855  52.881  1.00  0.00     0.097 A 
HETATM    2  N2  UNL     1      23.830   3.181  52.558  1.00  0.00    -0.239 NA
HETATM    3  C7  UNL     1      22.726   3.832  52.189  1.00  0.00     0.236 A 
HETATM    4  N3  UNL     1      21.503   3.292  52.093  1.00  0.00    -0.215 NA
HETATM    5  C8  UNL     1      21.355   1.979  52.388  1.00  0.00     0.200 A 
HETATM    6  C9  UNL     1      22.515   1.284  52.777  1.00  0.00     0.112 A 
HETATM    7  N4  UNL     1      22.602  -0.141  53.033  1.00  0.00    -0.380 N 
HETATM    8  C10 UNL     1      21.652  -0.917  53.834  1.00  0.00     0.161 C 
HETATM    9  C11 UNL     1      20.264  -0.693  53.351  1.00  0.00    -0.005 A 
HETATM   10  C12 UNL     1      19.499  -1.819  53.669  1.00  0.00     0.035 A 
HETATM   11  C13 UNL     1      18.180  -2.006  53.398  1.00  0.00     0.034 A 
HETATM   12 CL1  UNL     1      17.325  -3.458  53.845  1.00  0.00    -0.084 Cl
HETATM   13  C14 UNL     1      17.516  -0.991  52.742  1.00  0.00     0.026 A 
HETATM   14  C15 UNL     1      18.214   0.149  52.398  1.00  0.00     0.039 A 
HETATM   15  C16 UNL     1      19.554   0.292  52.697  1.00  0.00     0.086 A 
HETATM   16  O1  UNL     1      20.051   1.512  52.261  1.00  0.00    -0.289 OA
HETATM   17  H7  UNL     1      23.475  -0.449  52.498  1.00  0.00     0.160 HD
ENDROOT
BRANCH   1  18
HETATM   18  C5  UNL     1      24.989   1.140  53.299  1.00  0.00     0.011 A 
HETATM   19  C1  UNL     1      26.224   1.989  53.521  1.00  0.00     0.293 A 
HETATM   20  C2  UNL     1      27.232   0.972  53.855  1.00  0.00     0.026 A 
HETATM   21 BR1  UNL     1      29.033   1.493  54.239  1.00  0.00    -0.053 Br
HETATM   22  C3  UNL     1      26.774  -0.262  53.859  1.00  0.00     0.018 A 
HETATM   23  C4  UNL     1      25.380  -0.098  53.510  1.00  0.00     0.013 A 
BRANCH  19  24
HETATM   24  N1  UNL     1      26.643   2.539  52.221  1.00  0.00     0.092 N 
HETATM   25  H1  UNL     1      25.780   2.716  51.630  1.00  0.00     0.314 HD
HETATM   26  H2  UNL     1      27.135   1.781  51.682  1.00  0.00     0.314 HD
ENDBRANCH  19  24
ENDBRANCH   1  18
TORSDOF 2
ENDMDL
MODEL 8
REMARK VINA RESULT:      -7.6      4.728      6.995
REMARK  2 active torsions:
REMARK  status: ('A' for Active; 'I' for Inactive)
REMARK    1  A    between atoms: N1_1  and  C1_2 
REMARK    2  A    between atoms: C5_7  and  C6_8 
ROOT
HETATM    1  C6  UNL     1      22.856   0.536  53.418  1.00  0.00     0.097 A 
HETATM    2  N2  UNL     1      23.605  -0.246  54.251  1.00  0.00    -0.239 NA
HETATM    3  C7  UNL     1      23.072  -1.304  54.864  1.00  0.00     0.236 A 
HETATM    4  N3  UNL     1      21.801  -1.711  54.746  1.00  0.00    -0.215 NA
HETATM    5  C8  UNL     1      20.971  -1.003  53.945  1.00  0.00     0.200 A 
HETATM    6  C9  UNL     1      21.524   0.117  53.295  1.00  0.00     0.112 A 
HETATM    7  N4  UNL     1      20.792   1.070  52.482  1.00  0.00    -0.380 N 
HETATM    8  C10 UNL     1      19.817   0.725  51.444  1.00  0.00     0.161 C 
HETATM    9  C11 UNL     1      18.783  -0.193  51.992  1.00  0.00    -0.005 A 
HETATM   10  C12 UNL     1      17.609  -0.026  51.252  1.00  0.00     0.035 A 
HETATM   11  C13 UNL     1      16.433  -0.683  51.438  1.00  0.00     0.034 A 
HETATM   12 CL1  UNL     1      15.027  -0.393  50.449  1.00  0.00    -0.084 Cl
HETATM   13  C14 UNL     1      16.378  -1.611  52.456  1.00  0.00     0.026 A 
HETATM   14  C15 UNL     1      17.504  -1.824  53.226  1.00  0.00     0.039 A 
HETATM   15  C16 UNL     1      18.675  -1.131  52.997  1.00  0.00     0.086 A 
HETATM   16  O1  UNL     1      19.675  -1.502  53.884  1.00  0.00    -0.289 OA
HETATM   17  H7  UNL     1      21.123   2.022  52.837  1.00  0.00     0.160 HD
ENDROOT
BRANCH   1  18
HETATM   18  C5  UNL     1      23.432   1.684  52.733  1.00  0.00     0.011 A 
HETATM   19  C1  UNL     1      24.509   1.375  51.712  1.00  0.00     0.293 A 
HETATM   20  C2  UNL     1      24.907   2.722  51.279  1.00  0.00     0.026 A 
HETATM   21 BR1  UNL     1      26.278   2.940  49.961  1.00  0.00    -0.053 Br
HETATM   22  C3  UNL     1      24.248   3.696  51.868  1.00  0.00     0.018 A 
HETATM   23  C4  UNL     1      23.348   2.996  52.756  1.00  0.00     0.013 A 
BRANCH  19  24
HETATM   24  N1  UNL     1      25.678   0.835  52.427  1.00  0.00     0.092 N 
HETATM   25  H1  UNL     1      26.555   1.295  52.047  1.00  0.00     0.314 HD
HETATM   26  H2  UNL     1      25.807  -0.170  52.142  1.00  0.00     0.314 HD
ENDBRANCH  19  24
ENDBRANCH   1  18
TORSDOF 2
ENDMDL
MODEL 9
REMARK VINA RESULT:      -7.5      4.488      7.606
REMARK  2 active torsions:
REMARK  status: ('A' for Active; 'I' for Inactive)
REMARK    1  A    between atoms: N1_1  and  C1_2 
REMARK    2  A    between atoms: C5_7  and  C6_8 
ROOT
HETATM    1  C6  UNL     1      25.015   5.364  49.831  1.00  0.00     0.097 A 
HETATM    2  N2  UNL     1      26.081   5.543  48.996  1.00  0.00    -0.239 NA
HETATM    3  C7  UNL     1      27.063   4.644  48.932  1.00  0.00     0.236 A 
HETATM    4  N3  UNL     1      27.124   3.509  49.644  1.00  0.00    -0.215 NA
HETATM    5  C8  UNL     1      26.118   3.237  50.506  1.00  0.00     0.200 A 
HETATM    6  C9  UNL     1      25.077   4.182  50.581  1.00  0.00     0.112 A 
HETATM    7  N4  UNL     1      23.962   4.140  51.509  1.00  0.00    -0.380 N 
HETATM    8  C10 UNL     1      23.151   2.957  51.806  1.00  0.00     0.161 C 
HETATM    9  C11 UNL     1      24.022   1.817  52.195  1.00  0.00    -0.005 A 
HETATM   10  C12 UNL     1      23.286   0.960  53.019  1.00  0.00     0.035 A 
HETATM   11  C13 UNL     1      23.725  -0.196  53.584  1.00  0.00     0.034 A 
HETATM   12 CL1  UNL     1      22.713  -1.190  54.598  1.00  0.00    -0.084 Cl
HETATM   13  C14 UNL     1      25.025  -0.576  53.327  1.00  0.00     0.026 A 
HETATM   14  C15 UNL     1      25.807   0.227  52.520  1.00  0.00     0.039 A 
HETATM   15  C16 UNL     1      25.315   1.392  51.970  1.00  0.00     0.086 A 
HETATM   16  O1  UNL     1      26.268   2.039  51.196  1.00  0.00    -0.289 OA
HETATM   17  H7  UNL     1      23.914   5.133  51.901  1.00  0.00     0.160 HD
ENDROOT
BRANCH   1  18
HETATM   18  C5  UNL     1      23.930   6.333  49.897  1.00  0.00     0.011 A 
HETATM   19  C1  UNL     1      22.810   6.143  48.894  1.00  0.00     0.293 A 
HETATM   20  C2  UNL     1      21.948   7.298  49.184  1.00  0.00     0.026 A 
HETATM   21 BR1  UNL     1      20.340   7.571  48.184  1.00  0.00    -0.053 Br
HETATM   22  C3  UNL     1      22.388   8.071  50.154  1.00  0.00     0.018 A 
HETATM   23  C4  UNL     1      23.617   7.425  50.558  1.00  0.00     0.013 A 
BRANCH  19  24
HETATM   24  N1  UNL     1      23.352   6.390  47.547  1.00  0.00     0.092 N 
HETATM   25  H1  UNL     1      23.768   7.366  47.520  1.00  0.00     0.314 HD
HETATM   26  H2  UNL     1      22.547   6.467  46.874  1.00  0.00     0.314 HD
ENDBRANCH  19  24
ENDBRANCH   1  18
TORSDOF 2
ENDMDL
