MODEL 1
REMARK VINA RESULT:      -9.2      0.000      0.000
REMARK  1 active torsions:
REMARK  status: ('A' for Active; 'I' for Inactive)
REMARK    1  A    between atoms: O1_2  and  C2_3 
ROOT
HETATM    1  C2  UNL     1      25.600  -0.258  54.624  1.00  0.00     0.051 A 
HETATM    2  C3  UNL     1      25.487   0.505  53.548  1.00  0.00     0.033 A 
HETATM    3  C4  UNL     1      24.271   0.656  52.774  1.00  0.00     0.012 A 
HETATM    4  C5  UNL     1      23.182   0.000  53.140  1.00  0.00    -0.031 A 
HETATM    5  C6  UNL     1      21.932   0.176  52.317  1.00  0.00     0.047 C 
HETATM    6  C7  UNL     1      20.786   0.436  53.306  1.00  0.00     0.067 C 
HETATM    7  C8  UNL     1      20.247  -0.871  53.692  1.00  0.00     0.067 C 
HETATM    8  C9  UNL     1      18.921  -1.296  53.346  1.00  0.00    -0.009 A 
HETATM    9  C10 UNL     1      17.998  -0.570  52.632  1.00  0.00     0.014 A 
HETATM   10  C11 UNL     1      16.727  -1.033  52.328  1.00  0.00     0.008 A 
HETATM   11  C12 UNL     1      16.338  -2.293  52.753  1.00  0.00    -0.056 A 
HETATM   12  C13 UNL     1      14.982  -2.796  52.431  1.00  0.00     0.049 C 
HETATM   13  C14 UNL     1      17.240  -3.028  53.463  1.00  0.00    -0.055 A 
HETATM   14  C15 UNL     1      16.779  -4.374  53.899  1.00  0.00     0.049 C 
HETATM   15  C16 UNL     1      18.499  -2.542  53.752  1.00  0.00     0.020 A 
HETATM   16  N1  UNL     1      20.988  -1.699  54.378  1.00  0.00    -0.154 NA
HETATM   17  N2  UNL     1      22.294  -1.604  54.868  1.00  0.00    -0.154 NA
HETATM   18  C17 UNL     1      23.242  -0.871  54.334  1.00  0.00     0.069 A 
HETATM   19  C18 UNL     1      24.453  -1.049  55.144  1.00  0.00     0.126 A 
ENDROOT
BRANCH   1  20
HETATM   20  O1  UNL     1      26.770  -0.373  55.327  1.00  0.00    -0.360 OA
HETATM   21  C1  UNL     1      27.990   0.224  54.939  1.00  0.00     0.209 C 
ENDBRANCH   1  20
TORSDOF 1
ENDMDL
MODEL 2
REMARK VINA RESULT:      -8.4      5.932      9.512
REMARK  1 active torsions:
REMARK  status: ('A' for Active; 'I' for Inactive)
REMARK    1  A    between atoms: O1_2  and  C2_3 
ROOT
HETATM    1  C2  UNL     1      25.949  -0.374  53.030  1.00  0.00     0.051 A 
HETATM    2  C3  UNL     1      24.790   0.113  53.445  1.00  0.00     0.033 A 
HETATM    3  C4  UNL     1      24.208   1.355  52.978  1.00  0.00     0.012 A 
HETATM    4  C5  UNL     1      24.854   2.077  52.076  1.00  0.00    -0.031 A 
HETATM    5  C6  UNL     1      24.226   3.364  51.608  1.00  0.00     0.047 C 
HETATM    6  C7  UNL     1      24.312   3.365  50.075  1.00  0.00     0.067 C 
HETATM    7  C8  UNL     1      25.602   3.964  49.720  1.00  0.00     0.067 C 
HETATM    8  C9  UNL     1      25.712   5.217  49.030  1.00  0.00    -0.009 A 
HETATM    9  C10 UNL     1      24.667   6.010  48.620  1.00  0.00     0.014 A 
HETATM   10  C11 UNL     1      24.834   7.215  47.955  1.00  0.00     0.008 A 
HETATM   11  C12 UNL     1      26.113   7.673  47.677  1.00  0.00    -0.056 A 
HETATM   12  C13 UNL     1      26.300   8.959  46.968  1.00  0.00     0.049 C 
HETATM   13  C14 UNL     1      27.161   6.899  48.076  1.00  0.00    -0.055 A 
HETATM   14  C15 UNL     1      28.515   7.429  47.757  1.00  0.00     0.049 C 
HETATM   15  C16 UNL     1      26.967   5.703  48.736  1.00  0.00     0.020 A 
HETATM   16  N1  UNL     1      26.710   3.347  50.033  1.00  0.00    -0.154 NA
HETATM   17  N2  UNL     1      26.956   2.137  50.690  1.00  0.00    -0.154 NA
HETATM   18  C17 UNL     1      26.156   1.588  51.572  1.00  0.00     0.069 A 
HETATM   19  C18 UNL     1      26.777   0.336  52.019  1.00  0.00     0.126 A 
ENDROOT
BRANCH   1  20
HETATM   20  O1  UNL     1      26.464  -1.554  53.498  1.00  0.00    -0.360 OA
HETATM   21  C1  UNL     1      27.339  -2.384  52.762  1.00  0.00     0.209 C 
ENDBRANCH   1  20
TORSDOF 1
ENDMDL
MODEL 3
REMARK VINA RESULT:      -8.1      6.560     10.611
REMARK  1 active torsions:
REMARK  status: ('A' for Active; 'I' for Inactive)
REMARK    1  A    between atoms: O1_2  and  C2_3 
ROOT
HETATM    1  C2  UNL     1      24.013   1.025  52.782  1.00  0.00     0.051 A 
HETATM    2  C3  UNL     1      23.186   2.040  52.979  1.00  0.00     0.033 A 
HETATM    3  C4  UNL     1      23.339   3.350  52.381  1.00  0.00     0.012 A 
HETATM    4  C5  UNL     1      24.365   3.583  51.578  1.00  0.00    -0.031 A 
HETATM    5  C6  UNL     1      24.499   4.954  50.969  1.00  0.00     0.047 C 
HETATM    6  C7  UNL     1      24.779   4.747  49.474  1.00  0.00     0.067 C 
HETATM    7  C8  UNL     1      26.232   4.630  49.321  1.00  0.00     0.067 C 
HETATM    8  C9  UNL     1      27.020   5.603  48.620  1.00  0.00    -0.009 A 
HETATM    9  C10 UNL     1      26.548   6.742  48.014  1.00  0.00     0.014 A 
HETATM   10  C11 UNL     1      27.360   7.648  47.348  1.00  0.00     0.008 A 
HETATM   11  C12 UNL     1      28.724   7.421  47.275  1.00  0.00    -0.056 A 
HETATM   12  C13 UNL     1      29.598   8.384  46.567  1.00  0.00     0.049 C 
HETATM   13  C14 UNL     1      29.210   6.295  47.871  1.00  0.00    -0.055 A 
HETATM   14  C15 UNL     1      30.681   6.091  47.767  1.00  0.00     0.049 C 
HETATM   15  C16 UNL     1      28.380   5.409  48.526  1.00  0.00     0.020 A 
HETATM   16  N1  UNL     1      26.855   3.605  49.837  1.00  0.00    -0.154 NA
HETATM   17  N2  UNL     1      26.402   2.500  50.565  1.00  0.00    -0.154 NA
HETATM   18  C17 UNL     1      25.327   2.490  51.317  1.00  0.00     0.069 A 
HETATM   19  C18 UNL     1      25.206   1.150  51.903  1.00  0.00     0.126 A 
ENDROOT
BRANCH   1  20
HETATM   20  O1  UNL     1      23.832  -0.200  53.368  1.00  0.00    -0.360 OA
HETATM   21  C1  UNL     1      22.571  -0.811  53.552  1.00  0.00     0.209 C 
ENDBRANCH   1  20
TORSDOF 1
ENDMDL
MODEL 4
REMARK VINA RESULT:      -7.7      5.208      7.186
REMARK  1 active torsions:
REMARK  status: ('A' for Active; 'I' for Inactive)
REMARK    1  A    between atoms: O1_2  and  C2_3 
ROOT
HETATM    1  C2  UNL     1      27.076  -0.734  53.133  1.00  0.00     0.051 A 
HETATM    2  C3  UNL     1      25.935  -1.173  53.641  1.00  0.00     0.033 A 
HETATM    3  C4  UNL     1      24.673  -0.468  53.551  1.00  0.00     0.012 A 
HETATM    4  C5  UNL     1      24.621   0.697  52.926  1.00  0.00    -0.031 A 
HETATM    5  C6  UNL     1      23.295   1.408  52.847  1.00  0.00     0.047 C 
HETATM    6  C7  UNL     1      23.120   1.852  51.388  1.00  0.00     0.067 C 
HETATM    7  C8  UNL     1      23.740   3.174  51.264  1.00  0.00     0.067 C 
HETATM    8  C9  UNL     1      22.986   4.362  50.985  1.00  0.00    -0.009 A 
HETATM    9  C10 UNL     1      21.626   4.434  50.801  1.00  0.00     0.014 A 
HETATM   10  C11 UNL     1      20.949   5.614  50.533  1.00  0.00     0.008 A 
HETATM   11  C12 UNL     1      21.656   6.803  50.441  1.00  0.00    -0.056 A 
HETATM   12  C13 UNL     1      20.941   8.068  50.156  1.00  0.00     0.049 C 
HETATM   13  C14 UNL     1      23.006   6.751  50.621  1.00  0.00    -0.055 A 
HETATM   14  C15 UNL     1      23.723   8.050  50.513  1.00  0.00     0.049 C 
HETATM   15  C16 UNL     1      23.654   5.562  50.886  1.00  0.00     0.020 A 
HETATM   16  N1  UNL     1      25.032   3.298  51.410  1.00  0.00    -0.154 NA
HETATM   17  N2  UNL     1      26.039   2.367  51.682  1.00  0.00    -0.154 NA
HETATM   18  C17 UNL     1      25.863   1.244  52.336  1.00  0.00     0.069 A 
HETATM   19  C18 UNL     1      27.160   0.560  52.405  1.00  0.00     0.126 A 
ENDROOT
BRANCH   1  20
HETATM   20  O1  UNL     1      28.249  -1.433  53.241  1.00  0.00    -0.360 OA
HETATM   21  C1  UNL     1      29.465  -0.875  53.697  1.00  0.00     0.209 C 
ENDBRANCH   1  20
TORSDOF 1
ENDMDL
MODEL 5
REMARK VINA RESULT:      -7.6      2.728      3.711
REMARK  1 active torsions:
REMARK  status: ('A' for Active; 'I' for Inactive)
REMARK    1  A    between atoms: O1_2  and  C2_3 
ROOT
HETATM    1  C2  UNL     1      26.580   1.043  54.151  1.00  0.00     0.051 A 
HETATM    2  C3  UNL     1      26.215  -0.147  54.601  1.00  0.00     0.033 A 
HETATM    3  C4  UNL     1      24.886  -0.706  54.455  1.00  0.00     0.012 A 
HETATM    4  C5  UNL     1      23.950  -0.005  53.835  1.00  0.00    -0.031 A 
HETATM    5  C6  UNL     1      22.577  -0.610  53.698  1.00  0.00     0.047 C 
HETATM    6  C7  UNL     1      22.154  -0.416  52.235  1.00  0.00     0.067 C 
HETATM    7  C8  UNL     1      21.494   0.891  52.150  1.00  0.00     0.067 C 
HETATM    8  C9  UNL     1      20.100   1.037  51.843  1.00  0.00    -0.009 A 
HETATM    9  C10 UNL     1      19.214   0.016  51.595  1.00  0.00     0.014 A 
HETATM   10  C11 UNL     1      17.874   0.219  51.303  1.00  0.00     0.008 A 
HETATM   11  C12 UNL     1      17.371   1.509  51.252  1.00  0.00    -0.056 A 
HETATM   12  C13 UNL     1      15.941   1.734  50.941  1.00  0.00     0.049 C 
HETATM   13  C14 UNL     1      18.236   2.534  51.496  1.00  0.00    -0.055 A 
HETATM   14  C15 UNL     1      17.653   3.902  51.431  1.00  0.00     0.049 C 
HETATM   15  C16 UNL     1      19.566   2.305  51.784  1.00  0.00     0.020 A 
HETATM   16  N1  UNL     1      22.185   1.979  52.359  1.00  0.00    -0.154 NA
HETATM   17  N2  UNL     1      23.532   2.189  52.671  1.00  0.00    -0.154 NA
HETATM   18  C17 UNL     1      24.294   1.334  53.309  1.00  0.00     0.069 A 
HETATM   19  C18 UNL     1      25.628   1.934  53.436  1.00  0.00     0.126 A 
ENDROOT
BRANCH   1  20
HETATM   20  O1  UNL     1      27.849   1.534  54.310  1.00  0.00    -0.360 OA
HETATM   21  C1  UNL     1      28.997   0.726  54.476  1.00  0.00     0.209 C 
ENDBRANCH   1  20
TORSDOF 1
ENDMDL
MODEL 6
REMARK VINA RESULT:      -7.4      2.794      3.835
REMARK  1 active torsions:
REMARK  status: ('A' for Active; 'I' for Inactive)
REMARK    1  A    between atoms: O1_2  and  C2_3 
ROOT
HETATM    1  C2  UNL     1      25.906   2.570  51.182  1.00  0.00     0.051 A 
HETATM    2  C3  UNL     1      26.056   2.113  52.415  1.00  0.00     0.033 A 
HETATM    3  C4  UNL     1      25.008   1.474  53.185  1.00  0.00     0.012 A 
HETATM    4  C5  UNL     1      23.808   1.321  52.649  1.00  0.00    -0.031 A 
HETATM    5  C6  UNL     1      22.737   0.654  53.472  1.00  0.00     0.047 C 
HETATM    6  C7  UNL     1      22.076  -0.396  52.567  1.00  0.00     0.067 C 
HETATM    7  C8  UNL     1      20.988   0.278  51.853  1.00  0.00     0.067 C 
HETATM    8  C9  UNL     1      19.605  -0.047  52.060  1.00  0.00    -0.009 A 
HETATM    9  C10 UNL     1      19.118  -0.998  52.924  1.00  0.00     0.014 A 
HETATM   10  C11 UNL     1      17.767  -1.269  53.082  1.00  0.00     0.008 A 
HETATM   11  C12 UNL     1      16.835  -0.558  52.344  1.00  0.00    -0.056 A 
HETATM   12  C13 UNL     1      15.390  -0.841  52.508  1.00  0.00     0.049 C 
HETATM   13  C14 UNL     1      17.300   0.389  51.482  1.00  0.00    -0.055 A 
HETATM   14  C15 UNL     1      16.264   1.128  50.710  1.00  0.00     0.049 C 
HETATM   15  C16 UNL     1      18.650   0.639  51.343  1.00  0.00     0.020 A 
HETATM   16  N1  UNL     1      21.266   1.216  50.988  1.00  0.00    -0.154 NA
HETATM   17  N2  UNL     1      22.477   1.765  50.557  1.00  0.00    -0.154 NA
HETATM   18  C17 UNL     1      23.575   1.811  51.273  1.00  0.00     0.069 A 
HETATM   19  C18 UNL     1      24.610   2.462  50.461  1.00  0.00     0.126 A 
ENDROOT
BRANCH   1  20
HETATM   20  O1  UNL     1      26.925   3.169  50.488  1.00  0.00    -0.360 OA
HETATM   21  C1  UNL     1      26.735   3.994  49.356  1.00  0.00     0.209 C 
ENDBRANCH   1  20
TORSDOF 1
ENDMDL
MODEL 7
REMARK VINA RESULT:      -7.4      5.719      9.484
REMARK  1 active torsions:
REMARK  status: ('A' for Active; 'I' for Inactive)
REMARK    1  A    between atoms: O1_2  and  C2_3 
ROOT
HETATM    1  C2  UNL     1      21.367   0.839  53.007  1.00  0.00     0.051 A 
HETATM    2  C3  UNL     1      20.581   1.897  53.127  1.00  0.00     0.033 A 
HETATM    3  C4  UNL     1      20.852   3.191  52.534  1.00  0.00     0.012 A 
HETATM    4  C5  UNL     1      21.952   3.361  51.818  1.00  0.00    -0.031 A 
HETATM    5  C6  UNL     1      22.209   4.717  51.213  1.00  0.00     0.047 C 
HETATM    6  C7  UNL     1      22.601   4.478  49.748  1.00  0.00     0.067 C 
HETATM    7  C8  UNL     1      24.053   4.283  49.719  1.00  0.00     0.067 C 
HETATM    8  C9  UNL     1      24.947   5.206  49.079  1.00  0.00    -0.009 A 
HETATM    9  C10 UNL     1      24.588   6.361  48.427  1.00  0.00     0.014 A 
HETATM   10  C11 UNL     1      25.499   7.216  47.825  1.00  0.00     0.008 A 
HETATM   11  C12 UNL     1      26.851   6.917  47.869  1.00  0.00    -0.056 A 
HETATM   12  C13 UNL     1      27.830   7.826  47.229  1.00  0.00     0.049 C 
HETATM   13  C14 UNL     1      27.226   5.775  48.511  1.00  0.00    -0.055 A 
HETATM   14  C15 UNL     1      28.687   5.494  48.533  1.00  0.00     0.049 C 
HETATM   15  C16 UNL     1      26.298   4.941  49.101  1.00  0.00     0.020 A 
HETATM   16  N1  UNL     1      24.577   3.234  50.293  1.00  0.00    -0.154 NA
HETATM   17  N2  UNL     1      24.007   2.163  50.988  1.00  0.00    -0.154 NA
HETATM   18  C17 UNL     1      22.874   2.216  51.647  1.00  0.00     0.069 A 
HETATM   19  C18 UNL     1      22.634   0.891  52.230  1.00  0.00     0.126 A 
ENDROOT
BRANCH   1  20
HETATM   20  O1  UNL     1      21.073  -0.368  53.585  1.00  0.00    -0.360 OA
HETATM   21  C1  UNL     1      21.818  -0.944  54.639  1.00  0.00     0.209 C 
ENDBRANCH   1  20
TORSDOF 1
ENDMDL
MODEL 8
REMARK VINA RESULT:      -7.3      6.794     10.945
REMARK  1 active torsions:
REMARK  status: ('A' for Active; 'I' for Inactive)
REMARK    1  A    between atoms: O1_2  and  C2_3 
ROOT
HETATM    1  C2  UNL     1      20.215   3.433  51.429  1.00  0.00     0.051 A 
HETATM    2  C3  UNL     1      20.627   2.275  50.937  1.00  0.00     0.033 A 
HETATM    3  C4  UNL     1      21.886   2.079  50.248  1.00  0.00     0.012 A 
HETATM    4  C5  UNL     1      22.703   3.107  50.082  1.00  0.00    -0.031 A 
HETATM    5  C6  UNL     1      24.006   2.875  49.361  1.00  0.00     0.047 C 
HETATM    6  C7  UNL     1      25.101   3.541  50.207  1.00  0.00     0.067 C 
HETATM    7  C8  UNL     1      25.200   4.934  49.760  1.00  0.00     0.067 C 
HETATM    8  C9  UNL     1      26.364   5.457  49.103  1.00  0.00    -0.009 A 
HETATM    9  C10 UNL     1      27.509   4.759  48.806  1.00  0.00     0.014 A 
HETATM   10  C11 UNL     1      28.605   5.319  48.168  1.00  0.00     0.008 A 
HETATM   11  C12 UNL     1      28.573   6.653  47.796  1.00  0.00    -0.056 A 
HETATM   12  C13 UNL     1      29.739   7.259  47.113  1.00  0.00     0.049 C 
HETATM   13  C14 UNL     1      27.444   7.362  48.082  1.00  0.00    -0.055 A 
HETATM   14  C15 UNL     1      27.453   8.790  47.664  1.00  0.00     0.049 C 
HETATM   15  C16 UNL     1      26.367   6.779  48.718  1.00  0.00     0.020 A 
HETATM   16  N1  UNL     1      24.200   5.749  49.958  1.00  0.00    -0.154 NA
HETATM   17  N2  UNL     1      22.948   5.569  50.555  1.00  0.00    -0.154 NA
HETATM   18  C17 UNL     1      22.301   4.430  50.608  1.00  0.00     0.069 A 
HETATM   19  C18 UNL     1      21.035   4.668  51.312  1.00  0.00     0.126 A 
ENDROOT
BRANCH   1  20
HETATM   20  O1  UNL     1      19.015   3.575  52.075  1.00  0.00    -0.360 OA
HETATM   21  C1  UNL     1      17.761   3.286  51.490  1.00  0.00     0.209 C 
ENDBRANCH   1  20
TORSDOF 1
ENDMDL
MODEL 9
REMARK VINA RESULT:      -7.3      9.626     12.259
REMARK  1 active torsions:
REMARK  status: ('A' for Active; 'I' for Inactive)
REMARK    1  A    between atoms: O1_2  and  C2_3 
ROOT
HETATM    1  C2  UNL     1      33.988   6.004  47.643  1.00  0.00     0.051 A 
HETATM    2  C3  UNL     1      33.712   6.845  46.659  1.00  0.00     0.033 A 
HETATM    3  C4  UNL     1      32.375   7.260  46.287  1.00  0.00     0.012 A 
HETATM    4  C5  UNL     1      31.337   6.786  46.957  1.00  0.00    -0.031 A 
HETATM    5  C6  UNL     1      29.958   7.235  46.549  1.00  0.00     0.047 C 
HETATM    6  C7  UNL     1      29.223   7.628  47.839  1.00  0.00     0.067 C 
HETATM    7  C8  UNL     1      28.583   6.414  48.355  1.00  0.00     0.067 C 
HETATM    8  C9  UNL     1      27.158   6.256  48.419  1.00  0.00    -0.009 A 
HETATM    9  C10 UNL     1      26.222   7.180  48.023  1.00  0.00     0.014 A 
HETATM   10  C11 UNL     1      24.854   6.971  48.109  1.00  0.00     0.008 A 
HETATM   11  C12 UNL     1      24.375   5.774  48.618  1.00  0.00    -0.056 A 
HETATM   12  C13 UNL     1      22.915   5.543  48.714  1.00  0.00     0.049 C 
HETATM   13  C14 UNL     1      25.289   4.846  49.017  1.00  0.00    -0.055 A 
HETATM   14  C15 UNL     1      24.730   3.577  49.557  1.00  0.00     0.049 C 
HETATM   15  C16 UNL     1      26.646   5.080  48.921  1.00  0.00     0.020 A 
HETATM   16  N1  UNL     1      29.322   5.424  48.779  1.00  0.00    -0.154 NA
HETATM   17  N2  UNL     1      30.707   5.254  48.855  1.00  0.00    -0.154 NA
HETATM   18  C17 UNL     1      31.578   5.840  48.069  1.00  0.00     0.069 A 
HETATM   19  C18 UNL     1      32.917   5.397  48.476  1.00  0.00     0.126 A 
ENDROOT
BRANCH   1  20
HETATM   20  O1  UNL     1      35.269   5.636  47.962  1.00  0.00    -0.360 OA
HETATM   21  C1  UNL     1      35.939   6.037  49.141  1.00  0.00     0.209 C 
ENDBRANCH   1  20
TORSDOF 1
ENDMDL
