MODEL 1
REMARK VINA RESULT:      -9.0      0.000      0.000
REMARK  1 active torsions:
REMARK  status: ('A' for Active; 'I' for Inactive)
REMARK    1  A    between atoms: N1_2  and  C3_4 
ROOT
HETATM    1  C3  UNL     1      22.548   3.159  50.089  1.00  0.00     0.263 C 
HETATM    2  C4  UNL     1      23.921   3.720  49.903  1.00  0.00     0.030 C 
HETATM    3  C5  UNL     1      25.259   3.859  50.015  1.00  0.00     0.019 C 
HETATM    4 CL1  UNL     1      26.261   5.143  49.251  1.00  0.00    -0.088 Cl
HETATM    5  C6  UNL     1      25.259   2.637  50.880  1.00  0.00     0.065 C 
HETATM    6  C7  UNL     1      26.027   1.818  51.579  1.00  0.00    -0.014 C 
HETATM    7  C8  UNL     1      27.184   1.132  52.244  1.00  0.00     0.014 C 
HETATM    8  C9  UNL     1      26.903   0.101  52.964  1.00  0.00     0.089 C 
HETATM    9  N2  UNL     1      25.919  -0.750  53.456  1.00  0.00    -0.350 N 
HETATM   10  C10 UNL     1      24.632  -0.839  53.978  1.00  0.00     0.145 A 
HETATM   11  C11 UNL     1      24.327  -1.259  55.260  1.00  0.00     0.166 A 
HETATM   12  N3  UNL     1      23.077  -1.340  55.745  1.00  0.00    -0.267 NA
HETATM   13  C12 UNL     1      22.060  -0.995  54.943  1.00  0.00     0.148 A 
HETATM   14  C13 UNL     1      22.313  -0.571  53.661  1.00  0.00     0.088 A 
HETATM   15  N4  UNL     1      23.595  -0.499  53.194  1.00  0.00    -0.228 NA
HETATM   16  C14 UNL     1      21.291  -0.178  52.739  1.00  0.00     0.014 A 
HETATM   17  C15 UNL     1      19.950  -0.357  53.067  1.00  0.00     0.130 A 
HETATM   18  N5  UNL     1      18.993   0.030  52.179  1.00  0.00    -0.270 NA
HETATM   19  C16 UNL     1      19.339   0.576  50.998  1.00  0.00     0.145 A 
HETATM   20  C17 UNL     1      20.633   0.791  50.586  1.00  0.00     0.046 A 
HETATM   21  C18 UNL     1      21.562   0.386  51.515  1.00  0.00     0.046 A 
HETATM   22  N6  UNL     1      21.059   1.356  49.375  1.00  0.00    -0.386 N 
HETATM   23  C19 UNL     1      22.343   1.955  49.178  1.00  0.00     0.159 C 
HETATM   24  H13 UNL     1      26.199  -1.756  53.468  1.00  0.00     0.166 HD
HETATM   25  H19 UNL     1      20.295   1.262  48.682  1.00  0.00     0.159 HD
ENDROOT
BRANCH   1  26
HETATM   26  N1  UNL     1      21.499   4.076  49.771  1.00  0.00     0.089 N 
HETATM   27  C1  UNL     1      20.847   4.695  50.882  1.00  0.00     0.310 C 
HETATM   28  C2  UNL     1      21.790   5.018  48.732  1.00  0.00     0.310 C 
ENDBRANCH   1  26
TORSDOF 1
ENDMDL
MODEL 2
REMARK VINA RESULT:      -8.5      2.696      5.224
REMARK  1 active torsions:
REMARK  status: ('A' for Active; 'I' for Inactive)
REMARK    1  A    between atoms: N1_2  and  C3_4 
ROOT
HETATM    1  C3  UNL     1      20.224   1.674  51.464  1.00  0.00     0.263 C 
HETATM    2  C4  UNL     1      19.452   0.616  52.184  1.00  0.00     0.030 C 
HETATM    3  C5  UNL     1      19.183  -0.408  53.021  1.00  0.00     0.019 C 
HETATM    4 CL1  UNL     1      17.584  -1.197  53.255  1.00  0.00    -0.088 Cl
HETATM    5  C6  UNL     1      20.622  -0.376  53.434  1.00  0.00     0.065 C 
HETATM    6  C7  UNL     1      21.525  -0.940  54.220  1.00  0.00    -0.014 C 
HETATM    7  C8  UNL     1      22.239  -1.802  55.219  1.00  0.00     0.014 C 
HETATM    8  C9  UNL     1      23.501  -1.581  55.369  1.00  0.00     0.089 C 
HETATM    9  N2  UNL     1      24.611  -0.835  54.990  1.00  0.00    -0.350 N 
HETATM   10  C10 UNL     1      25.293  -0.245  53.929  1.00  0.00     0.145 A 
HETATM   11  C11 UNL     1      26.552  -0.615  53.496  1.00  0.00     0.166 A 
HETATM   12  N3  UNL     1      27.195  -0.030  52.471  1.00  0.00    -0.267 NA
HETATM   13  C12 UNL     1      26.582   0.972  51.826  1.00  0.00     0.148 A 
HETATM   14  C13 UNL     1      25.330   1.375  52.220  1.00  0.00     0.088 A 
HETATM   15  N4  UNL     1      24.700   0.763  53.267  1.00  0.00    -0.228 NA
HETATM   16  C14 UNL     1      24.600   2.431  51.586  1.00  0.00     0.014 A 
HETATM   17  C15 UNL     1      25.212   3.213  50.609  1.00  0.00     0.130 A 
HETATM   18  N5  UNL     1      24.499   4.208  50.014  1.00  0.00    -0.270 NA
HETATM   19  C16 UNL     1      23.220   4.434  50.365  1.00  0.00     0.145 A 
HETATM   20  C17 UNL     1      22.532   3.718  51.316  1.00  0.00     0.046 A 
HETATM   21  C18 UNL     1      23.292   2.725  51.888  1.00  0.00     0.046 A 
HETATM   22  N6  UNL     1      21.203   3.900  51.724  1.00  0.00    -0.386 N 
HETATM   23  C19 UNL     1      20.414   2.891  52.362  1.00  0.00     0.159 C 
HETATM   24  H13 UNL     1      25.238  -0.581  55.785  1.00  0.00     0.166 HD
HETATM   25  H19 UNL     1      20.914   4.865  51.482  1.00  0.00     0.159 HD
ENDROOT
BRANCH   1  26
HETATM   26  N1  UNL     1      19.583   2.156  50.280  1.00  0.00     0.089 N 
HETATM   27  C1  UNL     1      20.180   1.769  49.041  1.00  0.00     0.310 C 
HETATM   28  C2  UNL     1      18.158   2.026  50.248  1.00  0.00     0.310 C 
ENDBRANCH   1  26
TORSDOF 1
ENDMDL
MODEL 3
REMARK VINA RESULT:      -7.8      2.574      4.496
REMARK  1 active torsions:
REMARK  status: ('A' for Active; 'I' for Inactive)
REMARK    1  A    between atoms: N1_2  and  C3_4 
ROOT
HETATM    1  C3  UNL     1      22.491   3.000  50.927  1.00  0.00     0.263 C 
HETATM    2  C4  UNL     1      23.485   2.673  51.996  1.00  0.00     0.030 C 
HETATM    3  C5  UNL     1      24.053   2.051  53.050  1.00  0.00     0.019 C 
HETATM    4 CL1  UNL     1      25.633   2.465  53.803  1.00  0.00    -0.088 Cl
HETATM    5  C6  UNL     1      22.867   1.137  53.080  1.00  0.00     0.065 C 
HETATM    6  C7  UNL     1      22.322   0.107  53.707  1.00  0.00    -0.014 C 
HETATM    7  C8  UNL     1      22.034  -1.035  54.636  1.00  0.00     0.014 C 
HETATM    8  C9  UNL     1      20.914  -1.650  54.460  1.00  0.00     0.089 C 
HETATM    9  N2  UNL     1      19.735  -1.747  53.730  1.00  0.00    -0.350 N 
HETATM   10  C10 UNL     1      18.705  -1.045  53.109  1.00  0.00     0.145 A 
HETATM   11  C11 UNL     1      17.379  -1.084  53.495  1.00  0.00     0.166 A 
HETATM   12  N3  UNL     1      16.398  -0.401  52.881  1.00  0.00    -0.267 NA
HETATM   13  C12 UNL     1      16.720   0.368  51.832  1.00  0.00     0.148 A 
HETATM   14  C13 UNL     1      18.026   0.440  51.411  1.00  0.00     0.088 A 
HETATM   15  N4  UNL     1      19.002  -0.267  52.055  1.00  0.00    -0.228 NA
HETATM   16  C14 UNL     1      18.461   1.238  50.305  1.00  0.00     0.014 A 
HETATM   17  C15 UNL     1      17.524   1.877  49.496  1.00  0.00     0.130 A 
HETATM   18  N5  UNL     1      17.959   2.637  48.454  1.00  0.00    -0.270 NA
HETATM   19  C16 UNL     1      19.275   2.767  48.207  1.00  0.00     0.145 A 
HETATM   20  C17 UNL     1      20.272   2.177  48.948  1.00  0.00     0.046 A 
HETATM   21  C18 UNL     1      19.785   1.421  49.988  1.00  0.00     0.046 A 
HETATM   22  N6  UNL     1      21.656   2.276  48.746  1.00  0.00    -0.386 N 
HETATM   23  C19 UNL     1      22.634   2.029  49.761  1.00  0.00     0.159 C 
HETATM   24  H13 UNL     1      19.442  -2.729  53.532  1.00  0.00     0.166 HD
HETATM   25  H19 UNL     1      21.826   2.554  47.763  1.00  0.00     0.159 HD
ENDROOT
BRANCH   1  26
HETATM   26  N1  UNL     1      22.647   4.308  50.372  1.00  0.00     0.089 N 
HETATM   27  C1  UNL     1      21.733   5.302  50.839  1.00  0.00     0.310 C 
HETATM   28  C2  UNL     1      23.989   4.803  50.313  1.00  0.00     0.310 C 
ENDBRANCH   1  26
TORSDOF 1
ENDMDL
MODEL 4
REMARK VINA RESULT:      -7.5      3.093      5.560
REMARK  1 active torsions:
REMARK  status: ('A' for Active; 'I' for Inactive)
REMARK    1  A    between atoms: N1_2  and  C3_4 
ROOT
HETATM    1  C3  UNL     1      19.388   2.963  49.517  1.00  0.00     0.263 C 
HETATM    2  C4  UNL     1      18.145   2.171  49.270  1.00  0.00     0.030 C 
HETATM    3  C5  UNL     1      17.186   1.234  49.430  1.00  0.00     0.019 C 
HETATM    4 CL1  UNL     1      15.737   1.008  48.389  1.00  0.00    -0.088 Cl
HETATM    5  C6  UNL     1      17.935   0.752  50.633  1.00  0.00     0.065 C 
HETATM    6  C7  UNL     1      17.935  -0.140  51.611  1.00  0.00    -0.014 C 
HETATM    7  C8  UNL     1      17.598  -1.265  52.543  1.00  0.00     0.014 C 
HETATM    8  C9  UNL     1      18.436  -1.491  53.497  1.00  0.00     0.089 C 
HETATM    9  N2  UNL     1      19.628  -1.131  54.117  1.00  0.00    -0.350 N 
HETATM   10  C10 UNL     1      20.945  -0.722  53.927  1.00  0.00     0.145 A 
HETATM   11  C11 UNL     1      22.059  -1.457  54.287  1.00  0.00     0.166 A 
HETATM   12  N3  UNL     1      23.323  -1.043  54.097  1.00  0.00    -0.267 NA
HETATM   13  C12 UNL     1      23.522   0.153  53.526  1.00  0.00     0.148 A 
HETATM   14  C13 UNL     1      22.445   0.920  53.151  1.00  0.00     0.088 A 
HETATM   15  N4  UNL     1      21.170   0.473  53.357  1.00  0.00    -0.228 NA
HETATM   16  C14 UNL     1      22.563   2.204  52.531  1.00  0.00     0.014 A 
HETATM   17  C15 UNL     1      23.812   2.810  52.414  1.00  0.00     0.130 A 
HETATM   18  N5  UNL     1      23.903   4.028  51.814  1.00  0.00    -0.270 NA
HETATM   19  C16 UNL     1      22.802   4.641  51.342  1.00  0.00     0.145 A 
HETATM   20  C17 UNL     1      21.529   4.124  51.412  1.00  0.00     0.046 A 
HETATM   21  C18 UNL     1      21.487   2.894  52.024  1.00  0.00     0.046 A 
HETATM   22  N6  UNL     1      20.345   4.707  50.939  1.00  0.00    -0.386 N 
HETATM   23  C19 UNL     1      19.155   3.973  50.634  1.00  0.00     0.159 C 
HETATM   24  H13 UNL     1      19.586  -1.163  55.160  1.00  0.00     0.166 HD
HETATM   25  H19 UNL     1      20.494   5.729  50.853  1.00  0.00     0.159 HD
ENDROOT
BRANCH   1  26
HETATM   26  N1  UNL     1      19.828   3.721  48.387  1.00  0.00     0.089 N 
HETATM   27  C1  UNL     1      20.937   3.185  47.664  1.00  0.00     0.310 C 
HETATM   28  C2  UNL     1      18.795   4.185  47.510  1.00  0.00     0.310 C 
ENDBRANCH   1  26
TORSDOF 1
ENDMDL
MODEL 5
REMARK VINA RESULT:      -7.3      2.045      3.146
REMARK  1 active torsions:
REMARK  status: ('A' for Active; 'I' for Inactive)
REMARK    1  A    between atoms: N1_2  and  C3_4 
ROOT
HETATM    1  C3  UNL     1      20.715   3.937  49.136  1.00  0.00     0.263 C 
HETATM    2  C4  UNL     1      21.450   5.046  48.454  1.00  0.00     0.030 C 
HETATM    3  C5  UNL     1      22.477   5.814  48.031  1.00  0.00     0.019 C 
HETATM    4 CL1  UNL     1      22.348   7.295  47.020  1.00  0.00    -0.088 Cl
HETATM    5  C6  UNL     1      23.401   4.872  48.738  1.00  0.00     0.065 C 
HETATM    6  C7  UNL     1      24.670   4.619  49.014  1.00  0.00    -0.014 C 
HETATM    7  C8  UNL     1      26.166   4.661  49.112  1.00  0.00     0.014 C 
HETATM    8  C9  UNL     1      26.722   3.732  49.813  1.00  0.00     0.089 C 
HETATM    9  N2  UNL     1      26.550   2.597  50.598  1.00  0.00    -0.350 N 
HETATM   10  C10 UNL     1      25.780   1.987  51.584  1.00  0.00     0.145 A 
HETATM   11  C11 UNL     1      26.232   1.659  52.848  1.00  0.00     0.166 A 
HETATM   12  N3  UNL     1      25.474   1.067  53.786  1.00  0.00    -0.267 NA
HETATM   13  C12 UNL     1      24.201   0.775  53.483  1.00  0.00     0.148 A 
HETATM   14  C13 UNL     1      23.706   1.082  52.239  1.00  0.00     0.088 A 
HETATM   15  N4  UNL     1      24.501   1.684  51.305  1.00  0.00    -0.228 NA
HETATM   16  C14 UNL     1      22.361   0.813  51.832  1.00  0.00     0.014 A 
HETATM   17  C15 UNL     1      21.518   0.072  52.656  1.00  0.00     0.130 A 
HETATM   18  N5  UNL     1      20.240  -0.168  52.254  1.00  0.00    -0.270 NA
HETATM   19  C16 UNL     1      19.797   0.304  51.073  1.00  0.00     0.145 A 
HETATM   20  C17 UNL     1      20.553   1.043  50.194  1.00  0.00     0.046 A 
HETATM   21  C18 UNL     1      21.834   1.259  50.643  1.00  0.00     0.046 A 
HETATM   22  N6  UNL     1      20.151   1.564  48.955  1.00  0.00    -0.386 N 
HETATM   23  C19 UNL     1      20.794   2.663  48.302  1.00  0.00     0.159 C 
HETATM   24  H13 UNL     1      27.265   1.856  50.428  1.00  0.00     0.166 HD
HETATM   25  H19 UNL     1      19.333   1.024  48.621  1.00  0.00     0.159 HD
ENDROOT
BRANCH   1  26
HETATM   26  N1  UNL     1      19.322   4.196  49.327  1.00  0.00     0.089 N 
HETATM   27  C1  UNL     1      18.905   4.426  50.674  1.00  0.00     0.310 C 
HETATM   28  C2  UNL     1      18.734   5.135  48.420  1.00  0.00     0.310 C 
ENDBRANCH   1  26
TORSDOF 1
ENDMDL
MODEL 6
REMARK VINA RESULT:      -7.0      8.625     12.248
REMARK  1 active torsions:
REMARK  status: ('A' for Active; 'I' for Inactive)
REMARK    1  A    between atoms: N1_2  and  C3_4 
ROOT
HETATM    1  C3  UNL     1      27.535   8.271  48.415  1.00  0.00     0.263 C 
HETATM    2  C4  UNL     1      27.438   6.789  48.586  1.00  0.00     0.030 C 
HETATM    3  C5  UNL     1      27.801   5.489  48.601  1.00  0.00     0.019 C 
HETATM    4 CL1  UNL     1      26.751   4.098  49.047  1.00  0.00    -0.088 Cl
HETATM    5  C6  UNL     1      29.166   5.921  48.165  1.00  0.00     0.065 C 
HETATM    6  C7  UNL     1      30.379   5.493  47.854  1.00  0.00    -0.014 C 
HETATM    7  C8  UNL     1      31.593   4.653  47.583  1.00  0.00     0.014 C 
HETATM    8  C9  UNL     1      32.648   5.281  47.189  1.00  0.00     0.089 C 
HETATM    9  N2  UNL     1      33.232   6.502  46.868  1.00  0.00    -0.350 N 
HETATM   10  C10 UNL     1      33.054   7.734  46.245  1.00  0.00     0.145 A 
HETATM   11  C11 UNL     1      33.749   8.162  45.130  1.00  0.00     0.166 A 
HETATM   12  N3  UNL     1      33.563   9.357  44.544  1.00  0.00    -0.267 NA
HETATM   13  C12 UNL     1      32.651  10.187  45.068  1.00  0.00     0.148 A 
HETATM   14  C13 UNL     1      31.935   9.806  46.176  1.00  0.00     0.088 A 
HETATM   15  N4  UNL     1      32.145   8.584  46.751  1.00  0.00    -0.228 NA
HETATM   16  C14 UNL     1      30.938  10.624  46.798  1.00  0.00     0.014 A 
HETATM   17  C15 UNL     1      30.756  11.940  46.379  1.00  0.00     0.130 A 
HETATM   18  N5  UNL     1      29.798  12.699  46.978  1.00  0.00    -0.270 NA
HETATM   19  C16 UNL     1      29.040  12.186  47.965  1.00  0.00     0.145 A 
HETATM   20  C17 UNL     1      29.146  10.903  48.446  1.00  0.00     0.046 A 
HETATM   21  C18 UNL     1      30.124  10.175  47.810  1.00  0.00     0.046 A 
HETATM   22  N6  UNL     1      28.387  10.309  49.465  1.00  0.00    -0.386 N 
HETATM   23  C19 UNL     1      28.223   8.896  49.623  1.00  0.00     0.159 C 
HETATM   24  H13 UNL     1      34.216   6.599  47.203  1.00  0.00     0.166 HD
HETATM   25  H19 UNL     1      27.983  11.059  50.053  1.00  0.00     0.159 HD
ENDROOT
BRANCH   1  26
HETATM   26  N1  UNL     1      26.269   8.925  48.302  1.00  0.00     0.089 N 
HETATM   27  C1  UNL     1      25.892   9.340  46.987  1.00  0.00     0.310 C 
HETATM   28  C2  UNL     1      25.182   8.303  48.996  1.00  0.00     0.310 C 
ENDBRANCH   1  26
TORSDOF 1
ENDMDL
MODEL 7
REMARK VINA RESULT:      -6.9      1.493      5.436
REMARK  1 active torsions:
REMARK  status: ('A' for Active; 'I' for Inactive)
REMARK    1  A    between atoms: N1_2  and  C3_4 
ROOT
HETATM    1  C3  UNL     1      26.015   1.908  51.394  1.00  0.00     0.263 C 
HETATM    2  C4  UNL     1      26.478   2.923  50.399  1.00  0.00     0.030 C 
HETATM    3  C5  UNL     1      26.429   3.893  49.461  1.00  0.00     0.019 C 
HETATM    4 CL1  UNL     1      27.840   4.673  48.665  1.00  0.00    -0.088 Cl
HETATM    5  C6  UNL     1      24.936   3.844  49.567  1.00  0.00     0.065 C 
HETATM    6  C7  UNL     1      23.811   4.365  49.108  1.00  0.00    -0.014 C 
HETATM    7  C8  UNL     1      22.785   5.173  48.369  1.00  0.00     0.014 C 
HETATM    8  C9  UNL     1      21.550   4.911  48.631  1.00  0.00     0.089 C 
HETATM    9  N2  UNL     1      20.645   4.145  49.359  1.00  0.00    -0.350 N 
HETATM   10  C10 UNL     1      20.346   2.878  49.852  1.00  0.00     0.145 A 
HETATM   11  C11 UNL     1      19.258   2.118  49.466  1.00  0.00     0.166 A 
HETATM   12  N3  UNL     1      18.985   0.897  49.956  1.00  0.00    -0.267 NA
HETATM   13  C12 UNL     1      19.814   0.380  50.873  1.00  0.00     0.148 A 
HETATM   14  C13 UNL     1      20.910   1.098  51.287  1.00  0.00     0.088 A 
HETATM   15  N4  UNL     1      21.162   2.338  50.772  1.00  0.00    -0.228 NA
HETATM   16  C14 UNL     1      21.851   0.622  52.256  1.00  0.00     0.014 A 
HETATM   17  C15 UNL     1      21.602  -0.561  52.946  1.00  0.00     0.130 A 
HETATM   18  N5  UNL     1      22.512  -1.000  53.858  1.00  0.00    -0.270 NA
HETATM   19  C16 UNL     1      23.637  -0.297  54.092  1.00  0.00     0.145 A 
HETATM   20  C17 UNL     1      23.968   0.879  53.462  1.00  0.00     0.046 A 
HETATM   21  C18 UNL     1      23.021   1.281  52.551  1.00  0.00     0.046 A 
HETATM   22  N6  UNL     1      25.121   1.654  53.656  1.00  0.00    -0.386 N 
HETATM   23  C19 UNL     1      25.627   2.591  52.700  1.00  0.00     0.159 C 
HETATM   24  H13 UNL     1      19.822   4.685  49.707  1.00  0.00     0.166 HD
HETATM   25  H19 UNL     1      25.519   1.424  54.584  1.00  0.00     0.159 HD
ENDROOT
BRANCH   1  26
HETATM   26  N1  UNL     1      27.006   0.937  51.737  1.00  0.00     0.089 N 
HETATM   27  C1  UNL     1      27.861   1.272  52.832  1.00  0.00     0.310 C 
HETATM   28  C2  UNL     1      26.550  -0.418  51.812  1.00  0.00     0.310 C 
ENDBRANCH   1  26
TORSDOF 1
ENDMDL
MODEL 8
REMARK VINA RESULT:      -6.9      4.830      8.189
REMARK  1 active torsions:
REMARK  status: ('A' for Active; 'I' for Inactive)
REMARK    1  A    between atoms: N1_2  and  C3_4 
ROOT
HETATM    1  C3  UNL     1      27.497   8.368  47.620  1.00  0.00     0.263 C 
HETATM    2  C4  UNL     1      28.521   7.301  47.845  1.00  0.00     0.030 C 
HETATM    3  C5  UNL     1      29.055   6.109  48.185  1.00  0.00     0.019 C 
HETATM    4 CL1  UNL     1      30.793   5.658  48.089  1.00  0.00    -0.088 Cl
HETATM    5  C6  UNL     1      27.673   5.652  48.536  1.00  0.00     0.065 C 
HETATM    6  C7  UNL     1      26.964   4.631  48.989  1.00  0.00    -0.014 C 
HETATM    7  C8  UNL     1      26.516   3.298  49.512  1.00  0.00     0.014 C 
HETATM    8  C9  UNL     1      25.257   3.173  49.761  1.00  0.00     0.089 C 
HETATM    9  N2  UNL     1      24.000   3.769  49.766  1.00  0.00    -0.350 N 
HETATM   10  C10 UNL     1      23.279   4.929  50.035  1.00  0.00     0.145 A 
HETATM   11  C11 UNL     1      22.316   5.049  51.020  1.00  0.00     0.166 A 
HETATM   12  N3  UNL     1      21.628   6.178  51.262  1.00  0.00    -0.267 NA
HETATM   13  C12 UNL     1      21.887   7.254  50.508  1.00  0.00     0.148 A 
HETATM   14  C13 UNL     1      22.836   7.184  49.517  1.00  0.00     0.088 A 
HETATM   15  N4  UNL     1      23.520   6.022  49.292  1.00  0.00    -0.228 NA
HETATM   16  C14 UNL     1      23.181   8.284  48.669  1.00  0.00     0.014 A 
HETATM   17  C15 UNL     1      22.440   9.462  48.719  1.00  0.00     0.130 A 
HETATM   18  N5  UNL     1      22.789  10.499  47.909  1.00  0.00    -0.270 NA
HETATM   19  C16 UNL     1      23.834  10.386  47.068  1.00  0.00     0.145 A 
HETATM   20  C17 UNL     1      24.623   9.266  46.948  1.00  0.00     0.046 A 
HETATM   21  C18 UNL     1      24.233   8.248  47.785  1.00  0.00     0.046 A 
HETATM   22  N6  UNL     1      25.724   9.087  46.098  1.00  0.00    -0.386 N 
HETATM   23  C19 UNL     1      26.754   8.117  46.314  1.00  0.00     0.159 C 
HETATM   24  H13 UNL     1      23.233   3.136  49.450  1.00  0.00     0.166 HD
HETATM   25  H19 UNL     1      25.652   9.766  45.319  1.00  0.00     0.159 HD
ENDROOT
BRANCH   1  26
HETATM   26  N1  UNL     1      28.045   9.684  47.515  1.00  0.00     0.089 N 
HETATM   27  C1  UNL     1      27.851  10.538  48.644  1.00  0.00     0.310 C 
HETATM   28  C2  UNL     1      29.384   9.762  47.012  1.00  0.00     0.310 C 
ENDBRANCH   1  26
TORSDOF 1
ENDMDL
MODEL 9
REMARK VINA RESULT:      -6.6      3.387      6.547
REMARK  1 active torsions:
REMARK  status: ('A' for Active; 'I' for Inactive)
REMARK    1  A    between atoms: N1_2  and  C3_4 
ROOT
HETATM    1  C3  UNL     1      21.263   1.975  50.488  1.00  0.00     0.263 C 
HETATM    2  C4  UNL     1      21.900   1.035  51.461  1.00  0.00     0.030 C 
HETATM    3  C5  UNL     1      22.019   0.077  52.404  1.00  0.00     0.019 C 
HETATM    4 CL1  UNL     1      23.555  -0.516  53.127  1.00  0.00    -0.088 Cl
HETATM    5  C6  UNL     1      20.528  -0.058  52.377  1.00  0.00     0.065 C 
HETATM    6  C7  UNL     1      19.501  -0.709  52.898  1.00  0.00    -0.014 C 
HETATM    7  C8  UNL     1      18.622  -1.629  53.693  1.00  0.00     0.014 C 
HETATM    8  C9  UNL     1      17.352  -1.524  53.496  1.00  0.00     0.089 C 
HETATM    9  N2  UNL     1      16.324  -0.882  52.814  1.00  0.00    -0.350 N 
HETATM   10  C10 UNL     1      15.845   0.333  52.333  1.00  0.00     0.145 A 
HETATM   11  C11 UNL     1      14.694   0.958  52.772  1.00  0.00     0.166 A 
HETATM   12  N3  UNL     1      14.247   2.132  52.292  1.00  0.00    -0.267 NA
HETATM   13  C12 UNL     1      14.958   2.736  51.331  1.00  0.00     0.148 A 
HETATM   14  C13 UNL     1      16.110   2.154  50.862  1.00  0.00     0.088 A 
HETATM   15  N4  UNL     1      16.540   0.960  51.368  1.00  0.00    -0.228 NA
HETATM   16  C14 UNL     1      16.933   2.731  49.843  1.00  0.00     0.014 A 
HETATM   17  C15 UNL     1      16.505   3.868  49.162  1.00  0.00     0.130 A 
HETATM   18  N5  UNL     1      17.306   4.405  48.201  1.00  0.00    -0.270 NA
HETATM   19  C16 UNL     1      18.494   3.844  47.911  1.00  0.00     0.145 A 
HETATM   20  C17 UNL     1      19.001   2.724  48.527  1.00  0.00     0.046 A 
HETATM   21  C18 UNL     1      18.158   2.218  49.489  1.00  0.00     0.046 A 
HETATM   22  N6  UNL     1      20.228   2.094  48.275  1.00  0.00    -0.386 N 
HETATM   23  C19 UNL     1      20.895   1.236  49.206  1.00  0.00     0.159 C 
HETATM   24  H13 UNL     1      15.556  -1.522  52.512  1.00  0.00     0.166 HD
HETATM   25  H19 UNL     1      20.546   2.361  47.326  1.00  0.00     0.159 HD
ENDROOT
BRANCH   1  26
HETATM   26  N1  UNL     1      22.109   3.057  50.089  1.00  0.00     0.089 N 
HETATM   27  C1  UNL     1      21.846   4.319  50.704  1.00  0.00     0.310 C 
HETATM   28  C2  UNL     1      23.510   2.767  50.045  1.00  0.00     0.310 C 
ENDBRANCH   1  26
TORSDOF 1
ENDMDL
