MODEL 1
REMARK VINA RESULT:      -7.0      0.000      0.000
REMARK  9 active torsions:
REMARK  status: ('A' for Active; 'I' for Inactive)
REMARK    1  A    between atoms: N1_2  and  C2_3 
REMARK    2  A    between atoms: C2_3  and  C3_4 
REMARK    3  A    between atoms: C3_4  and  C4_5 
REMARK    4  A    between atoms: C4_5  and  O1_6 
REMARK    5  A    between atoms: O1_6  and  C5_7 
REMARK    6  A    between atoms: C8_10  and  N2_11 
REMARK    7  A    between atoms: N2_11  and  C9_12 
REMARK    8  A    between atoms: C9_12  and  C10_13 
REMARK    9  A    between atoms: C15_21  and  O2_22 
ROOT
HETATM    1  C5  UNL     1      26.351   1.060  53.975  1.00  0.00     0.103 A 
HETATM    2  C6  UNL     1      26.150   1.945  52.963  1.00  0.00     0.057 A 
HETATM    3  C7  UNL     1      25.061   1.977  52.143  1.00  0.00     0.041 A 
HETATM    4  C8  UNL     1      25.003   2.938  51.158  1.00  0.00     0.137 A 
HETATM    5  N3  UNL     1      23.902   2.910  50.389  1.00  0.00    -0.224 NA
HETATM    6  C12 UNL     1      22.918   2.012  50.560  1.00  0.00     0.235 A 
HETATM    7  N4  UNL     1      22.969   1.062  51.529  1.00  0.00    -0.241 NA
HETATM    8  C13 UNL     1      24.058   1.056  52.322  1.00  0.00     0.075 A 
HETATM    9  C14 UNL     1      24.200   0.114  53.348  1.00  0.00     0.072 A 
HETATM   10  C15 UNL     1      25.334   0.114  54.169  1.00  0.00     0.103 A 
ENDROOT
BRANCH   1  11
HETATM   11  O1  UNL     1      27.343   0.868  54.884  1.00  0.00    -0.348 OA
BRANCH  11  12
HETATM   12  C4  UNL     1      28.518   0.153  54.813  1.00  0.00     0.177 C 
BRANCH  12  13
HETATM   13  C3  UNL     1      29.070  -0.111  53.451  1.00  0.00     0.048 C 
BRANCH  13  14
HETATM   14  C2  UNL     1      29.207  -1.619  53.191  1.00  0.00     0.149 C 
BRANCH  14  15
HETATM   15  N1  UNL     1      27.910  -2.224  53.306  1.00  0.00    -0.312 NA
HETATM   16  C1  UNL     1      27.141  -2.257  52.275  1.00  0.00     0.142 C 
ENDBRANCH  14  15
ENDBRANCH  13  14
ENDBRANCH  12  13
ENDBRANCH  11  12
ENDBRANCH   1  11
BRANCH  10  17
HETATM   17  O2  UNL     1      25.343  -0.888  55.159  1.00  0.00    -0.353 OA
HETATM   18  C16 UNL     1      24.134  -1.372  55.654  1.00  0.00     0.210 C 
ENDBRANCH  10  17
BRANCH   4  19
HETATM   19  N2  UNL     1      26.014   3.937  50.909  1.00  0.00    -0.371 N 
HETATM   20  H10 UNL     1      26.758   4.208  51.583  1.00  0.00     0.161 HD
BRANCH  19  21
HETATM   21  C9  UNL     1      25.999   4.617  49.628  1.00  0.00     0.149 C 
BRANCH  21  22
HETATM   22  C10 UNL     1      27.316   4.435  48.915  1.00  0.00     0.004 C 
HETATM   23  C11 UNL     1      28.065   5.458  48.514  1.00  0.00     0.215 C 
HETATM   24 CL1  UNL     1      29.542   5.990  47.719  1.00  0.00    -0.230 Cl
ENDBRANCH  21  22
ENDBRANCH  19  21
ENDBRANCH   4  19
TORSDOF 9
ENDMDL
MODEL 2
REMARK VINA RESULT:      -6.9      1.596      2.067
REMARK  9 active torsions:
REMARK  status: ('A' for Active; 'I' for Inactive)
REMARK    1  A    between atoms: N1_2  and  C2_3 
REMARK    2  A    between atoms: C2_3  and  C3_4 
REMARK    3  A    between atoms: C3_4  and  C4_5 
REMARK    4  A    between atoms: C4_5  and  O1_6 
REMARK    5  A    between atoms: O1_6  and  C5_7 
REMARK    6  A    between atoms: C8_10  and  N2_11 
REMARK    7  A    between atoms: N2_11  and  C9_12 
REMARK    8  A    between atoms: C9_12  and  C10_13 
REMARK    9  A    between atoms: C15_21  and  O2_22 
ROOT
HETATM    1  C5  UNL     1      25.110   0.347  53.087  1.00  0.00     0.103 A 
HETATM    2  C6  UNL     1      25.322   1.496  52.393  1.00  0.00     0.057 A 
HETATM    3  C7  UNL     1      24.357   2.383  52.017  1.00  0.00     0.041 A 
HETATM    4  C8  UNL     1      24.730   3.508  51.313  1.00  0.00     0.137 A 
HETATM    5  N3  UNL     1      23.728   4.337  50.977  1.00  0.00    -0.224 NA
HETATM    6  C12 UNL     1      22.447   4.096  51.299  1.00  0.00     0.235 A 
HETATM    7  N4  UNL     1      22.072   2.991  51.992  1.00  0.00    -0.241 NA
HETATM    8  C13 UNL     1      23.048   2.134  52.349  1.00  0.00     0.075 A 
HETATM    9  C14 UNL     1      22.758   0.966  53.065  1.00  0.00     0.072 A 
HETATM   10  C15 UNL     1      23.777   0.079  53.433  1.00  0.00     0.103 A 
ENDROOT
BRANCH   1  11
HETATM   11  O1  UNL     1      25.917  -0.645  53.548  1.00  0.00    -0.348 OA
BRANCH  11  12
HETATM   12  C4  UNL     1      27.084  -1.177  53.047  1.00  0.00     0.177 C 
BRANCH  12  13
HETATM   13  C3  UNL     1      28.350  -0.451  53.360  1.00  0.00     0.048 C 
BRANCH  13  14
HETATM   14  C2  UNL     1      28.302   0.171  54.764  1.00  0.00     0.149 C 
BRANCH  14  15
HETATM   15  N1  UNL     1      28.883   1.482  54.704  1.00  0.00    -0.312 NA
HETATM   16  C1  UNL     1      28.643   2.227  53.684  1.00  0.00     0.142 C 
ENDBRANCH  14  15
ENDBRANCH  13  14
ENDBRANCH  12  13
ENDBRANCH  11  12
ENDBRANCH   1  11
BRANCH  10  17
HETATM   17  O2  UNL     1      23.342  -1.052  54.149  1.00  0.00    -0.353 OA
HETATM   18  C16 UNL     1      22.171  -0.977  54.901  1.00  0.00     0.210 C 
ENDBRANCH  10  17
BRANCH   4  19
HETATM   19  N2  UNL     1      26.081   3.839  50.929  1.00  0.00    -0.371 N 
HETATM   20  H10 UNL     1      26.809   4.202  51.576  1.00  0.00     0.161 HD
BRANCH  19  21
HETATM   21  C9  UNL     1      26.460   3.654  49.541  1.00  0.00     0.149 C 
BRANCH  21  22
HETATM   22  C10 UNL     1      26.856   4.970  48.919  1.00  0.00     0.004 C 
HETATM   23  C11 UNL     1      28.081   5.209  48.460  1.00  0.00     0.215 C 
HETATM   24 CL1  UNL     1      29.179   6.351  47.693  1.00  0.00    -0.230 Cl
ENDBRANCH  21  22
ENDBRANCH  19  21
ENDBRANCH   4  19
TORSDOF 9
ENDMDL
MODEL 3
REMARK VINA RESULT:      -6.4      2.601      5.321
REMARK  9 active torsions:
REMARK  status: ('A' for Active; 'I' for Inactive)
REMARK    1  A    between atoms: N1_2  and  C2_3 
REMARK    2  A    between atoms: C2_3  and  C3_4 
REMARK    3  A    between atoms: C3_4  and  C4_5 
REMARK    4  A    between atoms: C4_5  and  O1_6 
REMARK    5  A    between atoms: O1_6  and  C5_7 
REMARK    6  A    between atoms: C8_10  and  N2_11 
REMARK    7  A    between atoms: N2_11  and  C9_12 
REMARK    8  A    between atoms: C9_12  and  C10_13 
REMARK    9  A    between atoms: C15_21  and  O2_22 
ROOT
HETATM    1  C5  UNL     1      25.659   0.963  52.170  1.00  0.00     0.103 A 
HETATM    2  C6  UNL     1      24.311   1.087  52.279  1.00  0.00     0.057 A 
HETATM    3  C7  UNL     1      23.521   0.404  53.156  1.00  0.00     0.041 A 
HETATM    4  C8  UNL     1      22.163   0.639  53.146  1.00  0.00     0.137 A 
HETATM    5  N3  UNL     1      21.449  -0.067  54.037  1.00  0.00    -0.224 NA
HETATM    6  C12 UNL     1      22.008  -0.945  54.885  1.00  0.00     0.235 A 
HETATM    7  N4  UNL     1      23.344  -1.182  54.901  1.00  0.00    -0.241 NA
HETATM    8  C13 UNL     1      24.098  -0.493  54.022  1.00  0.00     0.075 A 
HETATM    9  C14 UNL     1      25.485  -0.670  53.964  1.00  0.00     0.072 A 
HETATM   10  C15 UNL     1      26.262   0.050  53.048  1.00  0.00     0.103 A 
ENDROOT
BRANCH   1  11
HETATM   11  O1  UNL     1      26.604   1.540  51.381  1.00  0.00    -0.348 OA
BRANCH  11  12
HETATM   12  C4  UNL     1      26.763   2.838  50.950  1.00  0.00     0.177 C 
BRANCH  12  13
HETATM   13  C3  UNL     1      25.932   3.275  49.790  1.00  0.00     0.048 C 
BRANCH  13  14
HETATM   14  C2  UNL     1      25.197   4.588  50.096  1.00  0.00     0.149 C 
BRANCH  14  15
HETATM   15  N1  UNL     1      23.921   4.275  50.677  1.00  0.00    -0.312 NA
HETATM   16  C1  UNL     1      23.615   4.776  51.821  1.00  0.00     0.142 C 
ENDBRANCH  14  15
ENDBRANCH  13  14
ENDBRANCH  12  13
ENDBRANCH  11  12
ENDBRANCH   1  11
BRANCH  10  17
HETATM   17  O2  UNL     1      27.641  -0.227  53.101  1.00  0.00    -0.353 OA
HETATM   18  C16 UNL     1      28.337  -0.016  54.289  1.00  0.00     0.210 C 
ENDBRANCH  10  17
BRANCH   4  19
HETATM   19  N2  UNL     1      21.486   1.563  52.269  1.00  0.00    -0.371 N 
HETATM   20  H10 UNL     1      21.601   2.596  52.294  1.00  0.00     0.161 HD
BRANCH  19  21
HETATM   21  C9  UNL     1      20.576   1.020  51.278  1.00  0.00     0.149 C 
BRANCH  21  22
HETATM   22  C10 UNL     1      21.306   0.733  49.989  1.00  0.00     0.004 C 
HETATM   23  C11 UNL     1      21.786   1.693  49.204  1.00  0.00     0.215 C 
HETATM   24 CL1  UNL     1      22.647   2.104  47.726  1.00  0.00    -0.230 Cl
ENDBRANCH  21  22
ENDBRANCH  19  21
ENDBRANCH   4  19
TORSDOF 9
ENDMDL
MODEL 4
REMARK VINA RESULT:      -6.3      3.809      6.628
REMARK  9 active torsions:
REMARK  status: ('A' for Active; 'I' for Inactive)
REMARK    1  A    between atoms: N1_2  and  C2_3 
REMARK    2  A    between atoms: C2_3  and  C3_4 
REMARK    3  A    between atoms: C3_4  and  C4_5 
REMARK    4  A    between atoms: C4_5  and  O1_6 
REMARK    5  A    between atoms: O1_6  and  C5_7 
REMARK    6  A    between atoms: C8_10  and  N2_11 
REMARK    7  A    between atoms: N2_11  and  C9_12 
REMARK    8  A    between atoms: C9_12  and  C10_13 
REMARK    9  A    between atoms: C15_21  and  O2_22 
ROOT
HETATM    1  C5  UNL     1      26.395   1.389  51.992  1.00  0.00     0.103 A 
HETATM    2  C6  UNL     1      25.130   0.931  52.184  1.00  0.00     0.057 A 
HETATM    3  C7  UNL     1      24.712   0.179  53.242  1.00  0.00     0.041 A 
HETATM    4  C8  UNL     1      23.392  -0.212  53.295  1.00  0.00     0.137 A 
HETATM    5  N3  UNL     1      23.051  -0.949  54.365  1.00  0.00    -0.224 NA
HETATM    6  C12 UNL     1      23.929  -1.289  55.323  1.00  0.00     0.235 A 
HETATM    7  N4  UNL     1      25.231  -0.908  55.277  1.00  0.00    -0.241 NA
HETATM    8  C13 UNL     1      25.613  -0.166  54.219  1.00  0.00     0.075 A 
HETATM    9  C14 UNL     1      26.936   0.273  54.085  1.00  0.00     0.072 A 
HETATM   10  C15 UNL     1      27.326   1.045  52.983  1.00  0.00     0.103 A 
ENDROOT
BRANCH   1  11
HETATM   11  O1  UNL     1      26.997   2.136  51.029  1.00  0.00    -0.348 OA
BRANCH  11  12
HETATM   12  C4  UNL     1      26.489   2.775  49.921  1.00  0.00     0.177 C 
BRANCH  12  13
HETATM   13  C3  UNL     1      25.769   4.062  50.151  1.00  0.00     0.048 C 
BRANCH  13  14
HETATM   14  C2  UNL     1      26.192   5.127  49.127  1.00  0.00     0.149 C 
BRANCH  14  15
HETATM   15  N1  UNL     1      27.503   4.799  48.641  1.00  0.00    -0.312 NA
HETATM   16  C1  UNL     1      28.321   5.751  48.358  1.00  0.00     0.142 C 
ENDBRANCH  14  15
ENDBRANCH  13  14
ENDBRANCH  12  13
ENDBRANCH  11  12
ENDBRANCH   1  11
BRANCH  10  17
HETATM   17  O2  UNL     1      28.684   1.416  52.977  1.00  0.00    -0.353 OA
HETATM   18  C16 UNL     1      29.128   2.399  53.859  1.00  0.00     0.210 C 
ENDBRANCH  10  17
BRANCH   4  19
HETATM   19  N2  UNL     1      22.388   0.110  52.310  1.00  0.00    -0.371 N 
HETATM   20  H10 UNL     1      22.280  -0.371  51.395  1.00  0.00     0.161 HD
BRANCH  19  21
HETATM   21  C9  UNL     1      21.458   1.182  52.611  1.00  0.00     0.149 C 
BRANCH  21  22
HETATM   22  C10 UNL     1      20.034   0.713  52.440  1.00  0.00     0.004 C 
HETATM   23  C11 UNL     1      19.541  -0.342  53.083  1.00  0.00     0.215 C 
HETATM   24 CL1  UNL     1      18.153  -1.382  53.375  1.00  0.00    -0.230 Cl
ENDBRANCH  21  22
ENDBRANCH  19  21
ENDBRANCH   4  19
TORSDOF 9
ENDMDL
MODEL 5
REMARK VINA RESULT:      -6.3      1.565      2.186
REMARK  9 active torsions:
REMARK  status: ('A' for Active; 'I' for Inactive)
REMARK    1  A    between atoms: N1_2  and  C2_3 
REMARK    2  A    between atoms: C2_3  and  C3_4 
REMARK    3  A    between atoms: C3_4  and  C4_5 
REMARK    4  A    between atoms: C4_5  and  O1_6 
REMARK    5  A    between atoms: O1_6  and  C5_7 
REMARK    6  A    between atoms: C8_10  and  N2_11 
REMARK    7  A    between atoms: N2_11  and  C9_12 
REMARK    8  A    between atoms: C9_12  and  C10_13 
REMARK    9  A    between atoms: C15_21  and  O2_22 
ROOT
HETATM    1  C5  UNL     1      24.290   0.429  52.844  1.00  0.00     0.103 A 
HETATM    2  C6  UNL     1      24.644   1.559  52.178  1.00  0.00     0.057 A 
HETATM    3  C7  UNL     1      23.787   2.394  51.524  1.00  0.00     0.041 A 
HETATM    4  C8  UNL     1      24.300   3.506  50.891  1.00  0.00     0.137 A 
HETATM    5  N3  UNL     1      23.398   4.282  50.269  1.00  0.00    -0.224 NA
HETATM    6  C12 UNL     1      22.084   4.005  50.257  1.00  0.00     0.235 A 
HETATM    7  N4  UNL     1      21.572   2.912  50.879  1.00  0.00    -0.241 NA
HETATM    8  C13 UNL     1      22.444   2.106  51.515  1.00  0.00     0.075 A 
HETATM    9  C14 UNL     1      22.010   0.956  52.184  1.00  0.00     0.072 A 
HETATM   10  C15 UNL     1      22.921   0.123  52.844  1.00  0.00     0.103 A 
ENDROOT
BRANCH   1  11
HETATM   11  O1  UNL     1      24.976  -0.514  53.544  1.00  0.00    -0.348 OA
BRANCH  11  12
HETATM   12  C4  UNL     1      25.524  -0.492  54.807  1.00  0.00     0.177 C 
BRANCH  12  13
HETATM   13  C3  UNL     1      26.763   0.319  54.995  1.00  0.00     0.048 C 
BRANCH  13  14
HETATM   14  C2  UNL     1      27.750   0.102  53.839  1.00  0.00     0.149 C 
BRANCH  14  15
HETATM   15  N1  UNL     1      28.892  -0.610  54.339  1.00  0.00    -0.312 NA
HETATM   16  C1  UNL     1      29.615  -1.288  53.519  1.00  0.00     0.142 C 
ENDBRANCH  14  15
ENDBRANCH  13  14
ENDBRANCH  12  13
ENDBRANCH  11  12
ENDBRANCH   1  11
BRANCH  10  17
HETATM   17  O2  UNL     1      22.346  -0.997  53.473  1.00  0.00    -0.353 OA
HETATM   18  C16 UNL     1      21.719  -0.841  54.708  1.00  0.00     0.210 C 
ENDBRANCH  10  17
BRANCH   4  19
HETATM   19  N2  UNL     1      25.694   3.874  50.856  1.00  0.00    -0.371 N 
HETATM   20  H10 UNL     1      26.199   4.357  51.626  1.00  0.00     0.161 HD
BRANCH  19  21
HETATM   21  C9  UNL     1      26.455   3.549  49.665  1.00  0.00     0.149 C 
BRANCH  21  22
HETATM   22  C10 UNL     1      26.819   4.804  48.909  1.00  0.00     0.004 C 
HETATM   23  C11 UNL     1      28.065   5.087  48.542  1.00  0.00     0.215 C 
HETATM   24 CL1  UNL     1      29.151   6.212  47.735  1.00  0.00    -0.230 Cl
ENDBRANCH  21  22
ENDBRANCH  19  21
ENDBRANCH   4  19
TORSDOF 9
ENDMDL
MODEL 6
REMARK VINA RESULT:      -6.2      2.914      5.930
REMARK  9 active torsions:
REMARK  status: ('A' for Active; 'I' for Inactive)
REMARK    1  A    between atoms: N1_2  and  C2_3 
REMARK    2  A    between atoms: C2_3  and  C3_4 
REMARK    3  A    between atoms: C3_4  and  C4_5 
REMARK    4  A    between atoms: C4_5  and  O1_6 
REMARK    5  A    between atoms: O1_6  and  C5_7 
REMARK    6  A    between atoms: C8_10  and  N2_11 
REMARK    7  A    between atoms: N2_11  and  C9_12 
REMARK    8  A    between atoms: C9_12  and  C10_13 
REMARK    9  A    between atoms: C15_21  and  O2_22 
ROOT
HETATM    1  C5  UNL     1      26.385   1.482  52.007  1.00  0.00     0.103 A 
HETATM    2  C6  UNL     1      25.192   0.884  52.264  1.00  0.00     0.057 A 
HETATM    3  C7  UNL     1      24.893   0.163  53.382  1.00  0.00     0.041 A 
HETATM    4  C8  UNL     1      23.633  -0.385  53.499  1.00  0.00     0.137 A 
HETATM    5  N3  UNL     1      23.409  -1.080  54.626  1.00  0.00    -0.224 NA
HETATM    6  C12 UNL     1      24.340  -1.238  55.580  1.00  0.00     0.235 A 
HETATM    7  N4  UNL     1      25.582  -0.701  55.473  1.00  0.00    -0.241 NA
HETATM    8  C13 UNL     1      25.848   0.005  54.357  1.00  0.00     0.075 A 
HETATM    9  C14 UNL     1      27.101   0.595  54.156  1.00  0.00     0.072 A 
HETATM   10  C15 UNL     1      27.371   1.329  52.994  1.00  0.00     0.103 A 
ENDROOT
BRANCH   1  11
HETATM   11  O1  UNL     1      26.871   2.227  50.979  1.00  0.00    -0.348 OA
BRANCH  11  12
HETATM   12  C4  UNL     1      26.453   3.426  50.446  1.00  0.00     0.177 C 
BRANCH  12  13
HETATM   13  C3  UNL     1      25.220   3.400  49.604  1.00  0.00     0.048 C 
BRANCH  13  14
HETATM   14  C2  UNL     1      24.083   4.200  50.260  1.00  0.00     0.149 C 
BRANCH  14  15
HETATM   15  N1  UNL     1      24.502   5.567  50.393  1.00  0.00    -0.312 NA
HETATM   16  C1  UNL     1      23.972   6.297  51.309  1.00  0.00     0.142 C 
ENDBRANCH  14  15
ENDBRANCH  13  14
ENDBRANCH  12  13
ENDBRANCH  11  12
ENDBRANCH   1  11
BRANCH  10  17
HETATM   17  O2  UNL     1      28.670   1.866  52.925  1.00  0.00    -0.353 OA
HETATM   18  C16 UNL     1      29.372   2.111  54.104  1.00  0.00     0.210 C 
ENDBRANCH  10  17
BRANCH   4  19
HETATM   19  N2  UNL     1      22.579  -0.262  52.521  1.00  0.00    -0.371 N 
HETATM   20  H10 UNL     1      22.438  -0.905  51.717  1.00  0.00     0.161 HD
BRANCH  19  21
HETATM   21  C9  UNL     1      21.643   0.837  52.665  1.00  0.00     0.149 C 
BRANCH  21  22
HETATM   22  C10 UNL     1      21.560   1.634  51.386  1.00  0.00     0.004 C 
HETATM   23  C11 UNL     1      21.775   1.098  50.188  1.00  0.00     0.215 C 
HETATM   24 CL1  UNL     1      21.853   1.344  48.448  1.00  0.00    -0.230 Cl
ENDBRANCH  21  22
ENDBRANCH  19  21
ENDBRANCH   4  19
TORSDOF 9
ENDMDL
MODEL 7
REMARK VINA RESULT:      -6.2      3.135      5.419
REMARK  9 active torsions:
REMARK  status: ('A' for Active; 'I' for Inactive)
REMARK    1  A    between atoms: N1_2  and  C2_3 
REMARK    2  A    between atoms: C2_3  and  C3_4 
REMARK    3  A    between atoms: C3_4  and  C4_5 
REMARK    4  A    between atoms: C4_5  and  O1_6 
REMARK    5  A    between atoms: O1_6  and  C5_7 
REMARK    6  A    between atoms: C8_10  and  N2_11 
REMARK    7  A    between atoms: N2_11  and  C9_12 
REMARK    8  A    between atoms: C9_12  and  C10_13 
REMARK    9  A    between atoms: C15_21  and  O2_22 
ROOT
HETATM    1  C5  UNL     1      26.075   2.574  51.237  1.00  0.00     0.103 A 
HETATM    2  C6  UNL     1      24.805   2.244  51.589  1.00  0.00     0.057 A 
HETATM    3  C7  UNL     1      23.672   2.668  50.959  1.00  0.00     0.041 A 
HETATM    4  C8  UNL     1      22.451   2.246  51.437  1.00  0.00     0.137 A 
HETATM    5  N3  UNL     1      21.380   2.702  50.767  1.00  0.00    -0.224 NA
HETATM    6  C12 UNL     1      21.480   3.515  49.703  1.00  0.00     0.235 A 
HETATM    7  N4  UNL     1      22.679   3.935  49.226  1.00  0.00    -0.241 NA
HETATM    8  C13 UNL     1      23.779   3.499  49.870  1.00  0.00     0.075 A 
HETATM    9  C14 UNL     1      25.060   3.880  49.452  1.00  0.00     0.072 A 
HETATM   10  C15 UNL     1      26.200   3.423  50.126  1.00  0.00     0.103 A 
ENDROOT
BRANCH   1  11
HETATM   11  O1  UNL     1      27.305   2.263  51.722  1.00  0.00    -0.348 OA
BRANCH  11  12
HETATM   12  C4  UNL     1      27.780   2.174  53.012  1.00  0.00     0.177 C 
BRANCH  12  13
HETATM   13  C3  UNL     1      27.368   0.979  53.806  1.00  0.00     0.048 C 
BRANCH  13  14
HETATM   14  C2  UNL     1      27.575  -0.317  53.007  1.00  0.00     0.149 C 
BRANCH  14  15
HETATM   15  N1  UNL     1      28.484  -1.161  53.731  1.00  0.00    -0.312 NA
HETATM   16  C1  UNL     1      29.738  -0.874  53.731  1.00  0.00     0.142 C 
ENDBRANCH  14  15
ENDBRANCH  13  14
ENDBRANCH  12  13
ENDBRANCH  11  12
ENDBRANCH   1  11
BRANCH  10  17
HETATM   17  O2  UNL     1      27.420   3.884  49.597  1.00  0.00    -0.353 OA
HETATM   18  C16 UNL     1      27.414   4.915  48.660  1.00  0.00     0.210 C 
ENDBRANCH  10  17
BRANCH   4  19
HETATM   19  N2  UNL     1      22.258   1.375  52.571  1.00  0.00    -0.371 N 
HETATM   20  H10 UNL     1      22.341   1.668  53.565  1.00  0.00     0.161 HD
BRANCH  19  21
HETATM   21  C9  UNL     1      21.922  -0.013  52.314  1.00  0.00     0.149 C 
BRANCH  21  22
HETATM   22  C10 UNL     1      22.494  -0.905  53.389  1.00  0.00     0.004 C 
HETATM   23  C11 UNL     1      23.626  -0.627  54.028  1.00  0.00     0.215 C 
HETATM   24 CL1  UNL     1      24.795  -1.112  55.251  1.00  0.00    -0.230 Cl
ENDBRANCH  21  22
ENDBRANCH  19  21
ENDBRANCH   4  19
TORSDOF 9
ENDMDL
MODEL 8
REMARK VINA RESULT:      -6.2      3.855      6.501
REMARK  9 active torsions:
REMARK  status: ('A' for Active; 'I' for Inactive)
REMARK    1  A    between atoms: N1_2  and  C2_3 
REMARK    2  A    between atoms: C2_3  and  C3_4 
REMARK    3  A    between atoms: C3_4  and  C4_5 
REMARK    4  A    between atoms: C4_5  and  O1_6 
REMARK    5  A    between atoms: O1_6  and  C5_7 
REMARK    6  A    between atoms: C8_10  and  N2_11 
REMARK    7  A    between atoms: N2_11  and  C9_12 
REMARK    8  A    between atoms: C9_12  and  C10_13 
REMARK    9  A    between atoms: C15_21  and  O2_22 
ROOT
HETATM    1  C5  UNL     1      21.395   0.379  52.273  1.00  0.00     0.103 A 
HETATM    2  C6  UNL     1      22.720   0.313  52.563  1.00  0.00     0.057 A 
HETATM    3  C7  UNL     1      23.263  -0.301  53.654  1.00  0.00     0.041 A 
HETATM    4  C8  UNL     1      24.632  -0.281  53.812  1.00  0.00     0.137 A 
HETATM    5  N3  UNL     1      25.095  -0.905  54.907  1.00  0.00    -0.224 NA
HETATM    6  C12 UNL     1      24.289  -1.510  55.795  1.00  0.00     0.235 A 
HETATM    7  N4  UNL     1      22.940  -1.533  55.646  1.00  0.00    -0.241 NA
HETATM    8  C13 UNL     1      22.434  -0.918  54.559  1.00  0.00     0.075 A 
HETATM    9  C14 UNL     1      21.055  -0.888  54.321  1.00  0.00     0.072 A 
HETATM   10  C15 UNL     1      20.537  -0.248  53.189  1.00  0.00     0.103 A 
ENDROOT
BRANCH   1  11
HETATM   11  O1  UNL     1      20.671   0.928  51.261  1.00  0.00    -0.348 OA
BRANCH  11  12
HETATM   12  C4  UNL     1      20.309   2.231  51.003  1.00  0.00     0.177 C 
BRANCH  12  13
HETATM   13  C3  UNL     1      21.413   3.204  50.750  1.00  0.00     0.048 C 
BRANCH  13  14
HETATM   14  C2  UNL     1      21.219   4.489  51.569  1.00  0.00     0.149 C 
BRANCH  14  15
HETATM   15  N1  UNL     1      22.479   4.856  52.151  1.00  0.00    -0.312 NA
HETATM   16  C1  UNL     1      23.346   3.938  52.395  1.00  0.00     0.142 C 
ENDBRANCH  14  15
ENDBRANCH  13  14
ENDBRANCH  12  13
ENDBRANCH  11  12
ENDBRANCH   1  11
BRANCH  10  17
HETATM   17  O2  UNL     1      19.134  -0.297  53.076  1.00  0.00    -0.353 OA
HETATM   18  C16 UNL     1      18.466  -1.486  53.360  1.00  0.00     0.210 C 
ENDBRANCH  10  17
BRANCH   4  19
HETATM   19  N2  UNL     1      25.564   0.344  52.906  1.00  0.00    -0.371 N 
HETATM   20  H10 UNL     1      25.648   0.121  51.894  1.00  0.00     0.161 HD
BRANCH  19  21
HETATM   21  C9  UNL     1      26.453   1.359  53.438  1.00  0.00     0.149 C 
BRANCH  21  22
HETATM   22  C10 UNL     1      27.890   1.025  53.122  1.00  0.00     0.004 C 
HETATM   23  C11 UNL     1      28.492  -0.069  53.579  1.00  0.00     0.215 C 
HETATM   24 CL1  UNL     1      29.962  -1.035  53.641  1.00  0.00    -0.230 Cl
ENDBRANCH  21  22
ENDBRANCH  19  21
ENDBRANCH   4  19
TORSDOF 9
ENDMDL
MODEL 9
REMARK VINA RESULT:      -6.1      3.630      5.850
REMARK  9 active torsions:
REMARK  status: ('A' for Active; 'I' for Inactive)
REMARK    1  A    between atoms: N1_2  and  C2_3 
REMARK    2  A    between atoms: C2_3  and  C3_4 
REMARK    3  A    between atoms: C3_4  and  C4_5 
REMARK    4  A    between atoms: C4_5  and  O1_6 
REMARK    5  A    between atoms: O1_6  and  C5_7 
REMARK    6  A    between atoms: C8_10  and  N2_11 
REMARK    7  A    between atoms: N2_11  and  C9_12 
REMARK    8  A    between atoms: C9_12  and  C10_13 
REMARK    9  A    between atoms: C15_21  and  O2_22 
ROOT
HETATM    1  C5  UNL     1      24.706   1.278  51.738  1.00  0.00     0.103 A 
HETATM    2  C6  UNL     1      23.395   1.007  51.974  1.00  0.00     0.057 A 
HETATM    3  C7  UNL     1      22.385   1.924  51.977  1.00  0.00     0.041 A 
HETATM    4  C8  UNL     1      21.102   1.494  52.234  1.00  0.00     0.137 A 
HETATM    5  N3  UNL     1      20.159   2.450  52.220  1.00  0.00    -0.224 NA
HETATM    6  C12 UNL     1      20.436   3.740  51.974  1.00  0.00     0.235 A 
HETATM    7  N4  UNL     1      21.698   4.171  51.719  1.00  0.00    -0.241 NA
HETATM    8  C13 UNL     1      22.674   3.243  51.723  1.00  0.00     0.075 A 
HETATM    9  C14 UNL     1      24.006   3.592  51.472  1.00  0.00     0.072 A 
HETATM   10  C15 UNL     1      25.015   2.621  51.478  1.00  0.00     0.103 A 
ENDROOT
BRANCH   1  11
HETATM   11  O1  UNL     1      25.836   0.524  51.690  1.00  0.00    -0.348 OA
BRANCH  11  12
HETATM   12  C4  UNL     1      26.358  -0.394  52.574  1.00  0.00     0.177 C 
BRANCH  12  13
HETATM   13  C3  UNL     1      26.345  -0.025  54.020  1.00  0.00     0.048 C 
BRANCH  13  14
HETATM   14  C2  UNL     1      27.698   0.557  54.457  1.00  0.00     0.149 C 
BRANCH  14  15
HETATM   15  N1  UNL     1      27.803   1.898  53.954  1.00  0.00    -0.312 NA
HETATM   16  C1  UNL     1      28.969   2.418  53.797  1.00  0.00     0.142 C 
ENDBRANCH  14  15
ENDBRANCH  13  14
ENDBRANCH  12  13
ENDBRANCH  11  12
ENDBRANCH   1  11
BRANCH  10  17
HETATM   17  O2  UNL     1      26.306   3.114  51.209  1.00  0.00    -0.353 OA
HETATM   18  C16 UNL     1      26.634   3.504  49.912  1.00  0.00     0.210 C 
ENDBRANCH  10  17
BRANCH   4  19
HETATM   19  N2  UNL     1      20.721   0.129  52.508  1.00  0.00    -0.371 N 
HETATM   20  H10 UNL     1      20.833  -0.662  51.843  1.00  0.00     0.161 HD
BRANCH  19  21
HETATM   21  C9  UNL     1      20.140  -0.170  53.803  1.00  0.00     0.149 C 
BRANCH  21  22
HETATM   22  C10 UNL     1      21.196  -0.129  54.880  1.00  0.00     0.004 C 
HETATM   23  C11 UNL     1      22.191  -1.008  54.946  1.00  0.00     0.215 C 
HETATM   24 CL1  UNL     1      23.633  -1.553  55.796  1.00  0.00    -0.230 Cl
ENDBRANCH  21  22
ENDBRANCH  19  21
ENDBRANCH   4  19
TORSDOF 9
ENDMDL
