MODEL 1
REMARK VINA RESULT:      -8.3      0.000      0.000
REMARK  3 active torsions:
REMARK  status: ('A' for Active; 'I' for Inactive)
REMARK    1  A    between atoms: C2_2  and  C3_3 
REMARK       I    between atoms: C3_3  and  N1_5 
REMARK    2  A    between atoms: C15_19  and  C16_20 
REMARK    3  A    between atoms: C16_20  and  O2_21 
ROOT
HETATM    1  C3  UNL     1      26.296  -0.460  52.473  1.00  0.00     0.238 C 
HETATM    2  O1  UNL     1      26.982   0.019  51.508  1.00  0.00    -0.272 OA
HETATM    3  N1  UNL     1      25.251  -0.025  53.404  1.00  0.00    -0.255 N 
HETATM    4  C4  UNL     1      24.606  -0.880  54.430  1.00  0.00     0.157 C 
HETATM    5  C5  UNL     1      23.205  -0.560  54.729  1.00  0.00     0.061 C 
HETATM    6  C6  UNL     1      22.390   0.006  53.622  1.00  0.00    -0.041 C 
HETATM    7  C7  UNL     1      21.388  -0.723  53.087  1.00  0.00     0.053 C 
HETATM    8  S1  UNL     1      20.630   0.260  51.794  1.00  0.00    -0.126 SA
HETATM    9  C8  UNL     1      21.334   1.851  52.314  1.00  0.00     0.126 C 
HETATM   10  C9  UNL     1      21.661   2.735  51.208  1.00  0.00     0.104 C 
HETATM   11  N2  UNL     1      22.770   2.286  50.645  1.00  0.00    -0.293 NA
HETATM   12  C10 UNL     1      23.239   3.052  49.531  1.00  0.00     0.158 C 
HETATM   13  C11 UNL     1      24.478   3.480  49.294  1.00  0.00     0.002 C 
HETATM   14  C12 UNL     1      25.948   3.761  49.399  1.00  0.00    -0.005 C 
HETATM   15  C13 UNL     1      26.758   3.361  50.387  1.00  0.00    -0.015 C 
HETATM   16  C14 UNL     1      26.034   2.561  51.428  1.00  0.00     0.071 C 
HETATM   17  C15 UNL     1      26.329   1.959  52.577  1.00  0.00     0.043 C 
HETATM   18  N3  UNL     1      25.082   1.355  53.027  1.00  0.00    -0.268 N 
HETATM   19  C17 UNL     1      23.757   1.982  53.122  1.00  0.00     0.125 C 
HETATM   20  C18 UNL     1      22.559   1.339  53.021  1.00  0.00    -0.015 C 
ENDROOT
BRANCH   1  21
HETATM   21  C2  UNL     1      26.795  -1.858  52.577  1.00  0.00     0.100 C 
HETATM   22  C1  UNL     1      28.227  -2.014  52.956  1.00  0.00     0.014 C 
ENDBRANCH   1  21
BRANCH  17  23
HETATM   23  C16 UNL     1      27.223   1.560  53.654  1.00  0.00     0.219 C 
BRANCH  23  24
HETATM   24  O2  UNL     1      27.629   2.872  54.089  1.00  0.00    -0.395 OA
HETATM   25  H20 UNL     1      27.235   3.037  54.954  1.00  0.00     0.209 HD
ENDBRANCH  23  24
ENDBRANCH  17  23
TORSDOF 3
ENDMDL
MODEL 2
REMARK VINA RESULT:      -7.8      1.792      4.516
REMARK  3 active torsions:
REMARK  status: ('A' for Active; 'I' for Inactive)
REMARK    1  A    between atoms: C2_2  and  C3_3 
REMARK       I    between atoms: C3_3  and  N1_5 
REMARK    2  A    between atoms: C15_19  and  C16_20 
REMARK    3  A    between atoms: C16_20  and  O2_21 
ROOT
HETATM    1  C3  UNL     1      26.321   1.764  53.411  1.00  0.00     0.238 C 
HETATM    2  O1  UNL     1      25.941   1.137  54.457  1.00  0.00    -0.272 OA
HETATM    3  N1  UNL     1      25.917   1.914  52.010  1.00  0.00    -0.255 N 
HETATM    4  C4  UNL     1      26.577   2.796  51.017  1.00  0.00     0.157 C 
HETATM    5  C5  UNL     1      25.695   3.358  49.987  1.00  0.00     0.061 C 
HETATM    6  C6  UNL     1      24.281   3.610  50.373  1.00  0.00    -0.041 C 
HETATM    7  C7  UNL     1      23.829   4.877  50.472  1.00  0.00     0.053 C 
HETATM    8  S1  UNL     1      22.103   4.803  50.949  1.00  0.00    -0.126 SA
HETATM    9  C8  UNL     1      21.851   3.057  50.521  1.00  0.00     0.126 C 
HETATM   10  C9  UNL     1      20.940   2.362  51.414  1.00  0.00     0.104 C 
HETATM   11  N2  UNL     1      21.584   2.121  52.543  1.00  0.00    -0.293 NA
HETATM   12  C10 UNL     1      20.824   1.431  53.540  1.00  0.00     0.158 C 
HETATM   13  C11 UNL     1      21.193   0.380  54.271  1.00  0.00     0.002 C 
HETATM   14  C12 UNL     1      21.971  -0.757  54.865  1.00  0.00    -0.005 C 
HETATM   15  C13 UNL     1      23.220  -1.112  54.541  1.00  0.00    -0.015 C 
HETATM   16  C14 UNL     1      23.807  -0.227  53.483  1.00  0.00     0.071 C 
HETATM   17  C15 UNL     1      24.950  -0.139  52.807  1.00  0.00     0.043 C 
HETATM   18  N3  UNL     1      24.792   1.017  51.934  1.00  0.00    -0.268 N 
HETATM   19  C17 UNL     1      23.666   1.332  51.045  1.00  0.00     0.125 C 
HETATM   20  C18 UNL     1      23.271   2.580  50.665  1.00  0.00    -0.015 C 
ENDROOT
BRANCH   1  21
HETATM   21  C2  UNL     1      27.512   2.518  53.886  1.00  0.00     0.100 C 
HETATM   22  C1  UNL     1      28.807   1.784  53.849  1.00  0.00     0.014 C 
ENDBRANCH   1  21
BRANCH  17  23
HETATM   23  C16 UNL     1      26.296  -0.562  52.450  1.00  0.00     0.219 C 
BRANCH  23  24
HETATM   24  O2  UNL     1      26.474  -1.574  53.459  1.00  0.00    -0.395 OA
HETATM   25  H20 UNL     1      26.415  -1.150  54.324  1.00  0.00     0.209 HD
ENDBRANCH  23  24
ENDBRANCH  17  23
TORSDOF 3
ENDMDL
MODEL 3
REMARK VINA RESULT:      -7.6      2.828      6.175
REMARK  3 active torsions:
REMARK  status: ('A' for Active; 'I' for Inactive)
REMARK    1  A    between atoms: C2_2  and  C3_3 
REMARK       I    between atoms: C3_3  and  N1_5 
REMARK    2  A    between atoms: C15_19  and  C16_20 
REMARK    3  A    between atoms: C16_20  and  O2_21 
ROOT
HETATM    1  C3  UNL     1      21.916   1.461  50.043  1.00  0.00     0.238 C 
HETATM    2  O1  UNL     1      21.172   0.512  50.465  1.00  0.00    -0.272 OA
HETATM    3  N1  UNL     1      22.789   2.504  50.591  1.00  0.00    -0.255 N 
HETATM    4  C4  UNL     1      23.582   3.467  49.790  1.00  0.00     0.157 C 
HETATM    5  C5  UNL     1      24.851   3.894  50.391  1.00  0.00     0.061 C 
HETATM    6  C6  UNL     1      25.547   2.915  51.267  1.00  0.00    -0.041 C 
HETATM    7  C7  UNL     1      26.715   2.370  50.868  1.00  0.00     0.053 C 
HETATM    8  S1  UNL     1      27.261   1.250  52.156  1.00  0.00    -0.126 SA
HETATM    9  C8  UNL     1      26.175   1.898  53.459  1.00  0.00     0.126 C 
HETATM   10  C9  UNL     1      25.686   0.879  54.372  1.00  0.00     0.104 C 
HETATM   11  N2  UNL     1      24.740   0.196  53.749  1.00  0.00    -0.293 NA
HETATM   12  C10 UNL     1      24.143  -0.854  54.517  1.00  0.00     0.158 C 
HETATM   13  C11 UNL     1      22.848  -1.124  54.668  1.00  0.00     0.002 C 
HETATM   14  C12 UNL     1      21.350  -1.086  54.580  1.00  0.00    -0.005 C 
HETATM   15  C13 UNL     1      20.624  -0.207  53.879  1.00  0.00    -0.015 C 
HETATM   16  C14 UNL     1      21.479   0.784  53.147  1.00  0.00     0.071 C 
HETATM   17  C15 UNL     1      21.295   1.836  52.354  1.00  0.00     0.043 C 
HETATM   18  N3  UNL     1      22.634   2.297  52.009  1.00  0.00    -0.268 N 
HETATM   19  C17 UNL     1      23.763   2.551  52.912  1.00  0.00     0.125 C 
HETATM   20  C18 UNL     1      25.084   2.458  52.587  1.00  0.00    -0.015 C 
ENDROOT
BRANCH   1  21
HETATM   21  C2  UNL     1      21.766   1.373  48.565  1.00  0.00     0.100 C 
HETATM   22  C1  UNL     1      20.723   2.247  47.961  1.00  0.00     0.014 C 
ENDBRANCH   1  21
BRANCH  17  23
HETATM   23  C16 UNL     1      20.484   2.798  51.624  1.00  0.00     0.219 C 
BRANCH  23  24
HETATM   24  O2  UNL     1      19.658   3.250  52.714  1.00  0.00    -0.395 OA
HETATM   25  H20 UNL     1      18.923   3.755  52.345  1.00  0.00     0.209 HD
ENDBRANCH  23  24
ENDBRANCH  17  23
TORSDOF 3
ENDMDL
MODEL 4
REMARK VINA RESULT:      -7.1      8.681     11.729
REMARK  3 active torsions:
REMARK  status: ('A' for Active; 'I' for Inactive)
REMARK    1  A    between atoms: C2_2  and  C3_3 
REMARK       I    between atoms: C3_3  and  N1_5 
REMARK    2  A    between atoms: C15_19  and  C16_20 
REMARK    3  A    between atoms: C16_20  and  O2_21 
ROOT
HETATM    1  C3  UNL     1      29.866   6.272  47.894  1.00  0.00     0.238 C 
HETATM    2  O1  UNL     1      30.164   5.035  48.011  1.00  0.00    -0.272 OA
HETATM    3  N1  UNL     1      30.542   7.550  47.656  1.00  0.00    -0.255 N 
HETATM    4  C4  UNL     1      29.870   8.866  47.527  1.00  0.00     0.157 C 
HETATM    5  C5  UNL     1      30.525   9.824  46.630  1.00  0.00     0.061 C 
HETATM    6  C6  UNL     1      31.278   9.264  45.476  1.00  0.00    -0.041 C 
HETATM    7  C7  UNL     1      30.819   9.455  44.221  1.00  0.00     0.053 C 
HETATM    8  S1  UNL     1      31.963   8.653  43.097  1.00  0.00    -0.126 SA
HETATM    9  C8  UNL     1      33.330   8.495  44.281  1.00  0.00     0.126 C 
HETATM   10  C9  UNL     1      34.108   7.280  44.115  1.00  0.00     0.104 C 
HETATM   11  N2  UNL     1      33.402   6.276  44.605  1.00  0.00    -0.293 NA
HETATM   12  C10 UNL     1      34.032   4.993  44.525  1.00  0.00     0.158 C 
HETATM   13  C11 UNL     1      34.142   4.072  45.481  1.00  0.00     0.002 C 
HETATM   14  C12 UNL     1      34.052   3.333  46.783  1.00  0.00    -0.005 C 
HETATM   15  C13 UNL     1      33.461   3.774  47.901  1.00  0.00    -0.015 C 
HETATM   16  C14 UNL     1      32.861   5.137  47.729  1.00  0.00     0.071 C 
HETATM   17  C15 UNL     1      32.203   6.016  48.478  1.00  0.00     0.043 C 
HETATM   18  N3  UNL     1      31.923   7.142  47.596  1.00  0.00    -0.268 N 
HETATM   19  C17 UNL     1      32.857   7.848  46.710  1.00  0.00     0.125 C 
HETATM   20  C18 UNL     1      32.529   8.494  45.555  1.00  0.00    -0.015 C 
ENDROOT
BRANCH   1  21
HETATM   21  C2  UNL     1      28.388   6.277  48.065  1.00  0.00     0.100 C 
HETATM   22  C1  UNL     1      27.785   5.017  48.580  1.00  0.00     0.014 C 
ENDBRANCH   1  21
BRANCH  17  23
HETATM   23  C16 UNL     1      31.593   6.486  49.714  1.00  0.00     0.219 C 
BRANCH  23  24
HETATM   24  O2  UNL     1      31.702   5.272  50.480  1.00  0.00    -0.395 OA
HETATM   25  H20 UNL     1      32.549   5.283  50.942  1.00  0.00     0.209 HD
ENDBRANCH  23  24
ENDBRANCH  17  23
TORSDOF 3
ENDMDL
MODEL 5
REMARK VINA RESULT:      -6.9      2.282      5.044
REMARK  3 active torsions:
REMARK  status: ('A' for Active; 'I' for Inactive)
REMARK    1  A    between atoms: C2_2  and  C3_3 
REMARK       I    between atoms: C3_3  and  N1_5 
REMARK    2  A    between atoms: C15_19  and  C16_20 
REMARK    3  A    between atoms: C16_20  and  O2_21 
ROOT
HETATM    1  C3  UNL     1      22.515   4.386  51.377  1.00  0.00     0.238 C 
HETATM    2  O1  UNL     1      23.708   4.819  51.524  1.00  0.00    -0.272 OA
HETATM    3  N1  UNL     1      21.830   3.126  51.074  1.00  0.00    -0.255 N 
HETATM    4  C4  UNL     1      20.360   2.942  51.015  1.00  0.00     0.157 C 
HETATM    5  C5  UNL     1      19.874   1.616  51.415  1.00  0.00     0.061 C 
HETATM    6  C6  UNL     1      20.669   0.884  52.436  1.00  0.00    -0.041 C 
HETATM    7  C7  UNL     1      20.155   0.683  53.667  1.00  0.00     0.053 C 
HETATM    8  S1  UNL     1      21.371  -0.222  54.624  1.00  0.00    -0.126 SA
HETATM    9  C8  UNL     1      22.367  -0.773  53.210  1.00  0.00     0.126 C 
HETATM   10  C9  UNL     1      23.793  -0.831  53.486  1.00  0.00     0.104 C 
HETATM   11  N2  UNL     1      24.255   0.408  53.489  1.00  0.00    -0.293 NA
HETATM   12  C10 UNL     1      25.658   0.532  53.745  1.00  0.00     0.158 C 
HETATM   13  C11 UNL     1      26.551   1.262  53.079  1.00  0.00     0.002 C 
HETATM   14  C12 UNL     1      27.209   2.185  52.096  1.00  0.00    -0.005 C 
HETATM   15  C13 UNL     1      26.601   2.838  51.098  1.00  0.00    -0.015 C 
HETATM   16  C14 UNL     1      25.129   2.556  51.047  1.00  0.00     0.071 C 
HETATM   17  C15 UNL     1      24.093   2.905  50.289  1.00  0.00     0.043 C 
HETATM   18  N3  UNL     1      22.942   2.231  50.876  1.00  0.00    -0.268 N 
HETATM   19  C17 UNL     1      22.821   0.819  51.260  1.00  0.00     0.125 C 
HETATM   20  C18 UNL     1      22.015   0.323  52.241  1.00  0.00    -0.015 C 
ENDROOT
BRANCH   1  21
HETATM   21  C2  UNL     1      21.687   5.601  51.607  1.00  0.00     0.100 C 
HETATM   22  C1  UNL     1      22.018   6.785  50.767  1.00  0.00     0.014 C 
ENDBRANCH   1  21
BRANCH  17  23
HETATM   23  C16 UNL     1      23.459   3.601  49.179  1.00  0.00     0.219 C 
BRANCH  23  24
HETATM   24  O2  UNL     1      24.549   4.473  48.825  1.00  0.00    -0.395 OA
HETATM   25  H20 UNL     1      24.219   5.379  48.816  1.00  0.00     0.209 HD
ENDBRANCH  23  24
ENDBRANCH  17  23
TORSDOF 3
ENDMDL
MODEL 6
REMARK VINA RESULT:      -6.8      3.321      5.090
REMARK  3 active torsions:
REMARK  status: ('A' for Active; 'I' for Inactive)
REMARK    1  A    between atoms: C2_2  and  C3_3 
REMARK       I    between atoms: C3_3  and  N1_5 
REMARK    2  A    between atoms: C15_19  and  C16_20 
REMARK    3  A    between atoms: C16_20  and  O2_21 
ROOT
HETATM    1  C3  UNL     1      24.330   4.611  50.007  1.00  0.00     0.238 C 
HETATM    2  O1  UNL     1      23.924   5.508  49.193  1.00  0.00    -0.272 OA
HETATM    3  N1  UNL     1      23.921   4.014  51.282  1.00  0.00    -0.255 N 
HETATM    4  C4  UNL     1      24.623   2.906  51.974  1.00  0.00     0.157 C 
HETATM    5  C5  UNL     1      23.766   2.006  52.755  1.00  0.00     0.061 C 
HETATM    6  C6  UNL     1      22.375   1.808  52.269  1.00  0.00    -0.041 C 
HETATM    7  C7  UNL     1      22.003   0.610  51.772  1.00  0.00     0.053 C 
HETATM    8  S1  UNL     1      20.281   0.732  51.290  1.00  0.00    -0.126 SA
HETATM    9  C8  UNL     1      19.918   2.244  52.228  1.00  0.00     0.126 C 
HETATM   10  C9  UNL     1      18.975   3.130  51.565  1.00  0.00     0.104 C 
HETATM   11  N2  UNL     1      19.615   3.742  50.584  1.00  0.00    -0.293 NA
HETATM   12  C10 UNL     1      18.825   4.663  49.825  1.00  0.00     0.158 C 
HETATM   13  C11 UNL     1      19.136   5.907  49.465  1.00  0.00     0.002 C 
HETATM   14  C12 UNL     1      19.848   7.214  49.272  1.00  0.00    -0.005 C 
HETATM   15  C13 UNL     1      21.070   7.520  49.726  1.00  0.00    -0.015 C 
HETATM   16  C14 UNL     1      21.699   6.385  50.477  1.00  0.00     0.071 C 
HETATM   17  C15 UNL     1      22.837   6.156  51.127  1.00  0.00     0.043 C 
HETATM   18  N3  UNL     1      22.742   4.780  51.597  1.00  0.00    -0.268 N 
HETATM   19  C17 UNL     1      21.627   4.145  52.312  1.00  0.00     0.125 C 
HETATM   20  C18 UNL     1      21.307   2.820  52.278  1.00  0.00    -0.015 C 
ENDROOT
BRANCH   1  21
HETATM   21  C2  UNL     1      25.570   4.107  49.358  1.00  0.00     0.100 C 
HETATM   22  C1  UNL     1      26.577   5.139  48.986  1.00  0.00     0.014 C 
ENDBRANCH   1  21
BRANCH  17  23
HETATM   23  C16 UNL     1      24.151   6.522  51.636  1.00  0.00     0.219 C 
BRANCH  23  24
HETATM   24  O2  UNL     1      24.088   7.938  51.385  1.00  0.00    -0.395 OA
HETATM   25  H20 UNL     1      24.787   8.164  50.758  1.00  0.00     0.209 HD
ENDBRANCH  23  24
ENDBRANCH  17  23
TORSDOF 3
ENDMDL
MODEL 7
REMARK VINA RESULT:      -6.7      9.188     12.037
REMARK  3 active torsions:
REMARK  status: ('A' for Active; 'I' for Inactive)
REMARK    1  A    between atoms: C2_2  and  C3_3 
REMARK       I    between atoms: C3_3  and  N1_5 
REMARK    2  A    between atoms: C15_19  and  C16_20 
REMARK    3  A    between atoms: C16_20  and  O2_21 
ROOT
HETATM    1  C3  UNL     1      29.910   6.977  48.021  1.00  0.00     0.238 C 
HETATM    2  O1  UNL     1      30.192   5.940  47.330  1.00  0.00    -0.272 OA
HETATM    3  N1  UNL     1      30.588   8.159  48.561  1.00  0.00    -0.255 N 
HETATM    4  C4  UNL     1      29.934   9.251  49.322  1.00  0.00     0.157 C 
HETATM    5  C5  UNL     1      30.525  10.583  49.149  1.00  0.00     0.061 C 
HETATM    6  C6  UNL     1      31.159  10.876  47.837  1.00  0.00    -0.041 C 
HETATM    7  C7  UNL     1      30.594  11.776  47.006  1.00  0.00     0.053 C 
HETATM    8  S1  UNL     1      31.615  11.876  45.536  1.00  0.00    -0.126 SA
HETATM    9  C8  UNL     1      33.080  11.080  46.255  1.00  0.00     0.126 C 
HETATM   10  C9  UNL     1      33.815  10.251  45.315  1.00  0.00     0.104 C 
HETATM   11  N2  UNL     1      33.135   9.130  45.144  1.00  0.00    -0.293 NA
HETATM   12  C10 UNL     1      33.729   8.191  44.242  1.00  0.00     0.158 C 
HETATM   13  C11 UNL     1      33.906   6.883  44.420  1.00  0.00     0.002 C 
HETATM   14  C12 UNL     1      33.918   5.498  44.997  1.00  0.00    -0.005 C 
HETATM   15  C13 UNL     1      33.439   5.140  46.195  1.00  0.00    -0.015 C 
HETATM   16  C14 UNL     1      32.854   6.299  46.945  1.00  0.00     0.071 C 
HETATM   17  C15 UNL     1      32.284   6.509  48.128  1.00  0.00     0.043 C 
HETATM   18  N3  UNL     1      31.949   7.927  48.148  1.00  0.00    -0.268 N 
HETATM   19  C17 UNL     1      32.813   9.064  47.807  1.00  0.00     0.125 C 
HETATM   20  C18 UNL     1      32.397  10.268  47.322  1.00  0.00    -0.015 C 
ENDROOT
BRANCH   1  21
HETATM   21  C2  UNL     1      28.454   6.820  48.282  1.00  0.00     0.100 C 
HETATM   22  C1  UNL     1      27.971   5.423  48.468  1.00  0.00     0.014 C 
ENDBRANCH   1  21
BRANCH  17  23
HETATM   23  C16 UNL     1      31.797   6.100  49.438  1.00  0.00     0.219 C 
BRANCH  23  24
HETATM   24  O2  UNL     1      32.101   4.696  49.349  1.00  0.00    -0.395 OA
HETATM   25  H20 UNL     1      31.409   4.208  49.811  1.00  0.00     0.209 HD
ENDBRANCH  23  24
ENDBRANCH  17  23
TORSDOF 3
ENDMDL
MODEL 8
REMARK VINA RESULT:      -6.7      2.832      5.936
REMARK  3 active torsions:
REMARK  status: ('A' for Active; 'I' for Inactive)
REMARK    1  A    between atoms: C2_2  and  C3_3 
REMARK       I    between atoms: C3_3  and  N1_5 
REMARK    2  A    between atoms: C15_19  and  C16_20 
REMARK    3  A    between atoms: C16_20  and  O2_21 
ROOT
HETATM    1  C3  UNL     1      24.236   5.471  50.555  1.00  0.00     0.238 C 
HETATM    2  O1  UNL     1      24.540   4.951  51.681  1.00  0.00    -0.272 OA
HETATM    3  N1  UNL     1      23.849   5.037  49.209  1.00  0.00    -0.255 N 
HETATM    4  C4  UNL     1      23.505   5.938  48.083  1.00  0.00     0.157 C 
HETATM    5  C5  UNL     1      22.510   5.417  47.138  1.00  0.00     0.061 C 
HETATM    6  C6  UNL     1      21.482   4.491  47.682  1.00  0.00    -0.041 C 
HETATM    7  C7  UNL     1      20.194   4.886  47.752  1.00  0.00     0.053 C 
HETATM    8  S1  UNL     1      19.247   3.534  48.449  1.00  0.00    -0.126 SA
HETATM    9  C8  UNL     1      20.500   2.249  48.175  1.00  0.00     0.126 C 
HETATM   10  C9  UNL     1      20.543   1.243  49.222  1.00  0.00     0.104 C 
HETATM   11  N2  UNL     1      21.140   1.777  50.274  1.00  0.00    -0.293 NA
HETATM   12  C10 UNL     1      21.269   0.909  51.404  1.00  0.00     0.158 C 
HETATM   13  C11 UNL     1      22.351   0.692  52.152  1.00  0.00     0.002 C 
HETATM   14  C12 UNL     1      23.740   0.731  52.718  1.00  0.00    -0.005 C 
HETATM   15  C13 UNL     1      24.756   1.474  52.262  1.00  0.00    -0.015 C 
HETATM   16  C14 UNL     1      24.366   2.310  51.081  1.00  0.00     0.071 C 
HETATM   17  C15 UNL     1      24.953   3.177  50.260  1.00  0.00     0.043 C 
HETATM   18  N3  UNL     1      23.909   3.603  49.338  1.00  0.00    -0.268 N 
HETATM   19  C17 UNL     1      22.973   2.762  48.581  1.00  0.00     0.125 C 
HETATM   20  C18 UNL     1      21.725   3.124  48.170  1.00  0.00    -0.015 C 
ENDROOT
BRANCH   1  21
HETATM   21  C2  UNL     1      24.339   6.931  50.822  1.00  0.00     0.100 C 
HETATM   22  C1  UNL     1      25.622   7.578  50.430  1.00  0.00     0.014 C 
ENDBRANCH   1  21
BRANCH  17  23
HETATM   23  C16 UNL     1      26.081   3.952  49.765  1.00  0.00     0.219 C 
BRANCH  23  24
HETATM   24  O2  UNL     1      27.061   3.547  50.739  1.00  0.00    -0.395 OA
HETATM   25  H20 UNL     1      27.758   3.062  50.281  1.00  0.00     0.209 HD
ENDBRANCH  23  24
ENDBRANCH  17  23
TORSDOF 3
ENDMDL
MODEL 9
REMARK VINA RESULT:      -6.6      8.058     11.494
REMARK  3 active torsions:
REMARK  status: ('A' for Active; 'I' for Inactive)
REMARK    1  A    between atoms: C2_2  and  C3_3 
REMARK       I    between atoms: C3_3  and  N1_5 
REMARK    2  A    between atoms: C15_19  and  C16_20 
REMARK    3  A    between atoms: C16_20  and  O2_21 
ROOT
HETATM    1  C3  UNL     1      27.320  10.138  47.015  1.00  0.00     0.238 C 
HETATM    2  O1  UNL     1      26.620   9.091  46.802  1.00  0.00    -0.272 OA
HETATM    3  N1  UNL     1      28.366  10.594  47.935  1.00  0.00    -0.255 N 
HETATM    4  C4  UNL     1      29.033  11.918  47.887  1.00  0.00     0.157 C 
HETATM    5  C5  UNL     1      30.431  11.938  48.335  1.00  0.00     0.061 C 
HETATM    6  C6  UNL     1      31.228  10.702  48.116  1.00  0.00    -0.041 C 
HETATM    7  C7  UNL     1      32.237  10.705  47.220  1.00  0.00     0.053 C 
HETATM    8  S1  UNL     1      32.968   9.068  47.219  1.00  0.00    -0.126 SA
HETATM    9  C8  UNL     1      32.244   8.524  48.792  1.00  0.00     0.126 C 
HETATM   10  C9  UNL     1      31.893   7.114  48.816  1.00  0.00     0.104 C 
HETATM   11  N2  UNL     1      30.787   6.959  48.109  1.00  0.00    -0.293 NA
HETATM   12  C10 UNL     1      30.297   5.616  48.034  1.00  0.00     0.158 C 
HETATM   13  C11 UNL     1      29.050   5.187  48.220  1.00  0.00     0.002 C 
HETATM   14  C12 UNL     1      27.576   5.124  48.495  1.00  0.00    -0.005 C 
HETATM   15  C13 UNL     1      26.780   6.164  48.772  1.00  0.00    -0.015 C 
HETATM   16  C14 UNL     1      27.525   7.465  48.777  1.00  0.00     0.071 C 
HETATM   17  C15 UNL     1      27.249   8.748  48.998  1.00  0.00     0.043 C 
HETATM   18  N3  UNL     1      28.510   9.452  48.802  1.00  0.00    -0.268 N 
HETATM   19  C17 UNL     1      29.825   9.125  49.368  1.00  0.00     0.125 C 
HETATM   20  C18 UNL     1      31.032   9.416  48.806  1.00  0.00    -0.015 C 
ENDROOT
BRANCH   1  21
HETATM   21  C2  UNL     1      26.845  11.079  45.965  1.00  0.00     0.100 C 
HETATM   22  C1  UNL     1      27.502  10.958  44.634  1.00  0.00     0.014 C 
ENDBRANCH   1  21
BRANCH  17  23
HETATM   23  C16 UNL     1      26.370   9.860  49.330  1.00  0.00     0.219 C 
BRANCH  23  24
HETATM   24  O2  UNL     1      26.275   9.638  50.749  1.00  0.00    -0.395 OA
HETATM   25  H20 UNL     1      26.650   8.770  50.944  1.00  0.00     0.209 HD
ENDBRANCH  23  24
ENDBRANCH  17  23
TORSDOF 3
ENDMDL
