MODEL 1
REMARK VINA RESULT:      -9.4      0.000      0.000
REMARK  8 active torsions:
REMARK  status: ('A' for Active; 'I' for Inactive)
REMARK    1  A    between atoms: O1_2  and  C2_3 
REMARK    2  A    between atoms: C3_4  and  C4_5 
REMARK    3  A    between atoms: C9_10  and  N1_11 
REMARK    4  A    between atoms: N1_11  and  C10_12 
REMARK    5  A    between atoms: C14_18  and  N4_19 
REMARK    6  A    between atoms: N4_19  and  C15_20 
REMARK    7  A    between atoms: C18_23  and  O2_24 
REMARK    8  A    between atoms: C24_32  and  S1_33 
ROOT
HETATM    1  C10 UNL     1      23.068   2.153  51.061  1.00  0.00     0.727 A 
HETATM    2  N2  UNL     1      21.794   2.601  51.224  1.00  0.00    -0.074 NA
HETATM    3  C11 UNL     1      20.961   2.114  52.187  1.00  0.00     0.147 A 
HETATM    4  C12 UNL     1      21.390   1.132  53.044  1.00  0.00     0.010 A 
HETATM    5  C13 UNL     1      22.677   0.710  52.846  1.00  0.00     0.119 A 
HETATM    6  N3  UNL     1      23.494   1.193  51.897  1.00  0.00    -0.060 NA
HETATM    7  C14 UNL     1      23.322  -0.313  53.641  1.00  0.00     0.149 A 
HETATM    8  C20 UNL     1      22.477  -0.892  54.709  1.00  0.00     0.272 A 
HETATM    9  O3  UNL     1      22.731  -1.791  55.567  1.00  0.00    -0.266 OA
HETATM   10  N5  UNL     1      21.124  -0.421  54.884  1.00  0.00    -0.351 N 
HETATM   11  C21 UNL     1      20.508   0.606  54.078  1.00  0.00     0.165 A 
HETATM   12  H19 UNL     1      20.435  -0.752  55.596  1.00  0.00     0.163 HD
ENDROOT
BRANCH   1  13
HETATM   13  N1  UNL     1      23.827   2.758  50.019  1.00  0.00    -0.187 N 
HETATM   14  H8  UNL     1      24.732   2.646  50.515  1.00  0.00     0.184 HD
BRANCH  13  15
HETATM   15  C9  UNL     1      23.219   3.251  48.832  1.00  0.00     0.060 A 
HETATM   16  C4  UNL     1      23.301   4.603  48.610  1.00  0.00     0.004 A 
HETATM   17  C5  UNL     1      22.684   5.106  47.476  1.00  0.00     0.014 A 
HETATM   18  C6  UNL     1      22.029   4.228  46.647  1.00  0.00     0.001 A 
HETATM   19  C7  UNL     1      21.971   2.861  46.912  1.00  0.00     0.002 A 
HETATM   20  C8  UNL     1      22.579   2.330  48.038  1.00  0.00     0.031 A 
BRANCH  16  21
HETATM   21  C3  UNL     1      23.972   5.602  49.425  1.00  0.00     0.007 A 
HETATM   22  C2  UNL     1      25.208   6.068  49.401  1.00  0.00     0.074 A 
HETATM   23  C24 UNL     1      25.470   7.096  50.432  1.00  0.00     0.124 A 
HETATM   24  C23 UNL     1      24.140   7.172  51.100  1.00  0.00    -0.004 A 
HETATM   25  C22 UNL     1      23.325   6.327  50.517  1.00  0.00     0.012 A 
BRANCH  22  26
HETATM   26  O1  UNL     1      26.373   5.880  48.681  1.00  0.00    -0.358 OA
HETATM   27  C1  UNL     1      27.163   4.705  48.874  1.00  0.00     0.209 C 
ENDBRANCH  22  26
BRANCH  23  28
HETATM   28  S1  UNL     1      25.903   8.692  49.680  1.00  0.00    -0.167 SA
HETATM   29  H25 UNL     1      24.782   9.317  49.144  1.00  0.00     0.102 HD
ENDBRANCH  23  28
ENDBRANCH  16  21
ENDBRANCH  13  15
ENDBRANCH   1  13
BRANCH   7  30
HETATM   30  N4  UNL     1      24.439  -0.898  53.719  1.00  0.00    -0.277 NA
BRANCH  30  31
HETATM   31  C15 UNL     1      25.675  -0.204  53.596  1.00  0.00     0.111 C 
HETATM   32  C16 UNL     1      26.748  -1.002  52.893  1.00  0.00     0.030 C 
HETATM   33  C17 UNL     1      27.993  -0.230  53.196  1.00  0.00     0.034 C 
HETATM   34  C18 UNL     1      27.771   0.355  54.555  1.00  0.00     0.120 C 
HETATM   35  C19 UNL     1      26.343   0.030  54.942  1.00  0.00     0.059 C 
BRANCH  34  36
HETATM   36  O2  UNL     1      27.983   1.728  54.471  1.00  0.00    -0.396 OA
HETATM   37  H16 UNL     1      28.606   1.974  55.187  1.00  0.00     0.210 HD
ENDBRANCH  34  36
ENDBRANCH  30  31
ENDBRANCH   7  30
TORSDOF 8
ENDMDL
MODEL 2
REMARK VINA RESULT:      -9.4      2.347      4.738
REMARK  8 active torsions:
REMARK  status: ('A' for Active; 'I' for Inactive)
REMARK    1  A    between atoms: O1_2  and  C2_3 
REMARK    2  A    between atoms: C3_4  and  C4_5 
REMARK    3  A    between atoms: C9_10  and  N1_11 
REMARK    4  A    between atoms: N1_11  and  C10_12 
REMARK    5  A    between atoms: C14_18  and  N4_19 
REMARK    6  A    between atoms: N4_19  and  C15_20 
REMARK    7  A    between atoms: C18_23  and  O2_24 
REMARK    8  A    between atoms: C24_32  and  S1_33 
ROOT
HETATM    1  C10 UNL     1      25.989   2.408  51.035  1.00  0.00     0.727 A 
HETATM    2  N2  UNL     1      27.235   2.724  51.481  1.00  0.00    -0.074 NA
HETATM    3  C11 UNL     1      27.778   2.168  52.600  1.00  0.00     0.147 A 
HETATM    4  C12 UNL     1      27.070   1.248  53.332  1.00  0.00     0.010 A 
HETATM    5  C13 UNL     1      25.822   0.959  52.850  1.00  0.00     0.119 A 
HETATM    6  N3  UNL     1      25.292   1.509  51.747  1.00  0.00    -0.060 NA
HETATM    7  C14 UNL     1      24.915   0.017  53.469  1.00  0.00     0.149 A 
HETATM    8  C20 UNL     1      25.437  -0.631  54.694  1.00  0.00     0.272 A 
HETATM    9  O3  UNL     1      24.908  -1.487  55.465  1.00  0.00    -0.266 OA
HETATM   10  N5  UNL     1      26.758  -0.297  55.172  1.00  0.00    -0.351 N 
HETATM   11  C21 UNL     1      27.643   0.645  54.530  1.00  0.00     0.165 A 
HETATM   12  H19 UNL     1      27.230  -0.682  56.020  1.00  0.00     0.163 HD
ENDROOT
BRANCH   1  13
HETATM   13  N1  UNL     1      25.553   3.063  49.848  1.00  0.00    -0.187 N 
HETATM   14  H8  UNL     1      24.902   2.301  49.581  1.00  0.00     0.184 HD
BRANCH  13  15
HETATM   15  C9  UNL     1      26.062   4.331  49.456  1.00  0.00     0.060 A 
HETATM   16  C4  UNL     1      25.241   5.415  49.649  1.00  0.00     0.004 A 
HETATM   17  C5  UNL     1      25.708   6.654  49.240  1.00  0.00     0.014 A 
HETATM   18  C6  UNL     1      26.955   6.725  48.670  1.00  0.00     0.001 A 
HETATM   19  C7  UNL     1      27.755   5.597  48.495  1.00  0.00     0.002 A 
HETATM   20  C8  UNL     1      27.315   4.345  48.893  1.00  0.00     0.031 A 
BRANCH  16  21
HETATM   21  C3  UNL     1      23.916   5.435  50.244  1.00  0.00     0.007 A 
HETATM   22  C2  UNL     1      22.732   5.729  49.737  1.00  0.00     0.074 A 
HETATM   23  C24 UNL     1      21.629   5.620  50.717  1.00  0.00     0.124 A 
HETATM   24  C23 UNL     1      22.375   5.198  51.937  1.00  0.00    -0.004 A 
HETATM   25  C22 UNL     1      23.648   5.103  51.642  1.00  0.00     0.012 A 
BRANCH  22  26
HETATM   26  O1  UNL     1      22.190   6.122  48.528  1.00  0.00    -0.358 OA
HETATM   27  C1  UNL     1      22.547   5.447  47.321  1.00  0.00     0.209 C 
ENDBRANCH  22  26
BRANCH  23  28
HETATM   28  S1  UNL     1      20.429   4.348  50.225  1.00  0.00    -0.167 SA
HETATM   29  H25 UNL     1      19.419   4.887  49.435  1.00  0.00     0.102 HD
ENDBRANCH  23  28
ENDBRANCH  16  21
ENDBRANCH  13  15
ENDBRANCH   1  13
BRANCH   7  30
HETATM   30  N4  UNL     1      23.759  -0.458  53.286  1.00  0.00    -0.277 NA
BRANCH  30  31
HETATM   31  C15 UNL     1      22.577   0.275  53.588  1.00  0.00     0.111 C 
HETATM   32  C16 UNL     1      21.553  -0.525  54.359  1.00  0.00     0.030 C 
HETATM   33  C17 UNL     1      20.318   0.313  54.244  1.00  0.00     0.034 C 
HETATM   34  C18 UNL     1      20.416   0.973  52.905  1.00  0.00     0.120 C 
HETATM   35  C19 UNL     1      21.776   0.619  52.342  1.00  0.00     0.059 C 
BRANCH  34  36
HETATM   36  O2  UNL     1      20.276   2.346  53.093  1.00  0.00    -0.396 OA
HETATM   37  H16 UNL     1      19.387   2.501  53.476  1.00  0.00     0.210 HD
ENDBRANCH  34  36
ENDBRANCH  30  31
ENDBRANCH   7  30
TORSDOF 8
ENDMDL
MODEL 3
REMARK VINA RESULT:      -9.0      1.806      2.967
REMARK  8 active torsions:
REMARK  status: ('A' for Active; 'I' for Inactive)
REMARK    1  A    between atoms: O1_2  and  C2_3 
REMARK    2  A    between atoms: C3_4  and  C4_5 
REMARK    3  A    between atoms: C9_10  and  N1_11 
REMARK    4  A    between atoms: N1_11  and  C10_12 
REMARK    5  A    between atoms: C14_18  and  N4_19 
REMARK    6  A    between atoms: N4_19  and  C15_20 
REMARK    7  A    between atoms: C18_23  and  O2_24 
REMARK    8  A    between atoms: C24_32  and  S1_33 
ROOT
HETATM    1  C10 UNL     1      22.514   1.822  50.643  1.00  0.00     0.727 A 
HETATM    2  N2  UNL     1      21.268   2.291  50.922  1.00  0.00    -0.074 NA
HETATM    3  C11 UNL     1      20.575   1.921  52.035  1.00  0.00     0.147 A 
HETATM    4  C12 UNL     1      21.123   1.041  52.933  1.00  0.00     0.010 A 
HETATM    5  C13 UNL     1      22.377   0.592  52.616  1.00  0.00     0.119 A 
HETATM    6  N3  UNL     1      23.056   0.961  51.518  1.00  0.00    -0.060 NA
HETATM    7  C14 UNL     1      23.133  -0.337  53.428  1.00  0.00     0.149 A 
HETATM    8  C20 UNL     1      22.442  -0.786  54.658  1.00  0.00     0.272 A 
HETATM    9  O3  UNL     1      22.817  -1.583  55.571  1.00  0.00    -0.266 OA
HETATM   10  N5  UNL     1      21.119  -0.292  54.957  1.00  0.00    -0.351 N 
HETATM   11  C21 UNL     1      20.391   0.639  54.128  1.00  0.00     0.165 A 
HETATM   12  H19 UNL     1      20.534  -0.537  55.787  1.00  0.00     0.163 HD
ENDROOT
BRANCH   1  13
HETATM   13  N1  UNL     1      23.122   2.301  49.448  1.00  0.00    -0.187 N 
HETATM   14  H8  UNL     1      22.573   1.673  48.831  1.00  0.00     0.184 HD
BRANCH  13  15
HETATM   15  C9  UNL     1      24.126   3.307  49.464  1.00  0.00     0.060 A 
HETATM   16  C4  UNL     1      23.796   4.521  48.915  1.00  0.00     0.004 A 
HETATM   17  C5  UNL     1      24.774   5.503  48.891  1.00  0.00     0.014 A 
HETATM   18  C6  UNL     1      26.008   5.204  49.414  1.00  0.00     0.001 A 
HETATM   19  C7  UNL     1      26.300   3.957  49.962  1.00  0.00     0.002 A 
HETATM   20  C8  UNL     1      25.342   2.957  50.000  1.00  0.00     0.031 A 
BRANCH  16  21
HETATM   21  C3  UNL     1      22.521   4.926  48.345  1.00  0.00     0.007 A 
HETATM   22  C2  UNL     1      21.402   5.342  48.909  1.00  0.00     0.074 A 
HETATM   23  C24 UNL     1      20.331   5.650  47.934  1.00  0.00     0.124 A 
HETATM   24  C23 UNL     1      21.020   5.338  46.650  1.00  0.00    -0.004 A 
HETATM   25  C22 UNL     1      22.240   4.936  46.911  1.00  0.00     0.012 A 
BRANCH  22  26
HETATM   26  O1  UNL     1      20.907   5.587  50.176  1.00  0.00    -0.358 OA
HETATM   27  C1  UNL     1      21.712   6.250  51.152  1.00  0.00     0.209 C 
ENDBRANCH  22  26
BRANCH  23  28
HETATM   28  S1  UNL     1      19.860   7.403  48.000  1.00  0.00    -0.167 SA
HETATM   29  H25 UNL     1      20.524   8.141  47.025  1.00  0.00     0.102 HD
ENDBRANCH  23  28
ENDBRANCH  16  21
ENDBRANCH  13  15
ENDBRANCH   1  13
BRANCH   7  30
HETATM   30  N4  UNL     1      24.256  -0.914  53.423  1.00  0.00    -0.277 NA
BRANCH  30  31
HETATM   31  C15 UNL     1      25.484  -0.195  53.402  1.00  0.00     0.111 C 
HETATM   32  C16 UNL     1      26.585  -0.906  52.651  1.00  0.00     0.030 C 
HETATM   33  C17 UNL     1      27.811  -0.152  53.061  1.00  0.00     0.034 C 
HETATM   34  C18 UNL     1      27.547   0.291  54.466  1.00  0.00     0.120 C 
HETATM   35  C19 UNL     1      26.115  -0.088  54.781  1.00  0.00     0.059 C 
BRANCH  34  36
HETATM   36  O2  UNL     1      27.741   1.669  54.523  1.00  0.00    -0.396 OA
HETATM   37  H16 UNL     1      27.874   1.908  55.465  1.00  0.00     0.210 HD
ENDBRANCH  34  36
ENDBRANCH  30  31
ENDBRANCH   7  30
TORSDOF 8
ENDMDL
MODEL 4
REMARK VINA RESULT:      -8.8      2.882      3.977
REMARK  8 active torsions:
REMARK  status: ('A' for Active; 'I' for Inactive)
REMARK    1  A    between atoms: O1_2  and  C2_3 
REMARK    2  A    between atoms: C3_4  and  C4_5 
REMARK    3  A    between atoms: C9_10  and  N1_11 
REMARK    4  A    between atoms: N1_11  and  C10_12 
REMARK    5  A    between atoms: C14_18  and  N4_19 
REMARK    6  A    between atoms: N4_19  and  C15_20 
REMARK    7  A    between atoms: C18_23  and  O2_24 
REMARK    8  A    between atoms: C24_32  and  S1_33 
ROOT
HETATM    1  C10 UNL     1      22.956   1.015  51.398  1.00  0.00     0.727 A 
HETATM    2  N2  UNL     1      21.729   0.500  51.678  1.00  0.00    -0.074 NA
HETATM    3  C11 UNL     1      21.479  -0.242  52.794  1.00  0.00     0.147 A 
HETATM    4  C12 UNL     1      22.482  -0.502  53.693  1.00  0.00     0.010 A 
HETATM    5  C13 UNL     1      23.701   0.033  53.374  1.00  0.00     0.119 A 
HETATM    6  N3  UNL     1      23.942   0.764  52.274  1.00  0.00    -0.060 NA
HETATM    7  C14 UNL     1      24.888  -0.120  54.187  1.00  0.00     0.149 A 
HETATM    8  C20 UNL     1      24.696  -0.918  55.419  1.00  0.00     0.272 A 
HETATM    9  O3  UNL     1      25.515  -1.237  56.333  1.00  0.00    -0.266 OA
HETATM   10  N5  UNL     1      23.394  -1.467  55.719  1.00  0.00    -0.351 N 
HETATM   11  C21 UNL     1      22.226  -1.293  54.890  1.00  0.00     0.165 A 
HETATM   12  H19 UNL     1      23.138  -2.044  56.551  1.00  0.00     0.163 HD
ENDROOT
BRANCH   1  13
HETATM   13  N1  UNL     1      23.069   1.777  50.201  1.00  0.00    -0.187 N 
HETATM   14  H8  UNL     1      22.712   1.014  49.596  1.00  0.00     0.184 HD
BRANCH  13  15
HETATM   15  C9  UNL     1      23.562   3.111  50.200  1.00  0.00     0.060 A 
HETATM   16  C4  UNL     1      22.630   4.115  50.274  1.00  0.00     0.004 A 
HETATM   17  C5  UNL     1      23.090   5.422  50.239  1.00  0.00     0.014 A 
HETATM   18  C6  UNL     1      24.443   5.633  50.133  1.00  0.00     0.001 A 
HETATM   19  C7  UNL     1      25.354   4.582  50.062  1.00  0.00     0.002 A 
HETATM   20  C8  UNL     1      24.923   3.265  50.094  1.00  0.00     0.031 A 
BRANCH  16  21
HETATM   21  C3  UNL     1      21.187   3.987  50.391  1.00  0.00     0.007 A 
HETATM   22  C2  UNL     1      20.234   3.938  49.477  1.00  0.00     0.074 A 
HETATM   23  C24 UNL     1      18.876   3.803  50.050  1.00  0.00     0.124 A 
HETATM   24  C23 UNL     1      19.185   3.779  51.508  1.00  0.00    -0.004 A 
HETATM   25  C22 UNL     1      20.482   3.883  51.667  1.00  0.00     0.012 A 
BRANCH  22  26
HETATM   26  O1  UNL     1      20.114   3.975  48.101  1.00  0.00    -0.358 OA
HETATM   27  C1  UNL     1      20.307   5.199  47.390  1.00  0.00     0.209 C 
ENDBRANCH  22  26
BRANCH  23  28
HETATM   28  S1  UNL     1      18.092   2.248  49.534  1.00  0.00    -0.167 SA
HETATM   29  H25 UNL     1      18.963   1.470  48.777  1.00  0.00     0.102 HD
ENDBRANCH  23  28
ENDBRANCH  16  21
ENDBRANCH  13  15
ENDBRANCH   1  13
BRANCH   7  30
HETATM   30  N4  UNL     1      26.101   0.231  54.182  1.00  0.00    -0.277 NA
BRANCH  30  31
HETATM   31  C15 UNL     1      27.168  -0.708  54.108  1.00  0.00     0.111 C 
HETATM   32  C16 UNL     1      28.525  -0.066  53.932  1.00  0.00     0.030 C 
HETATM   33  C17 UNL     1      29.392  -1.220  53.539  1.00  0.00     0.034 C 
HETATM   34  C18 UNL     1      28.500  -2.135  52.760  1.00  0.00     0.120 C 
HETATM   35  C19 UNL     1      27.102  -1.560  52.850  1.00  0.00     0.059 C 
BRANCH  34  36
HETATM   36  O2  UNL     1      28.576  -3.400  53.336  1.00  0.00    -0.396 OA
HETATM   37  H16 UNL     1      29.207  -3.928  52.802  1.00  0.00     0.210 HD
ENDBRANCH  34  36
ENDBRANCH  30  31
ENDBRANCH   7  30
TORSDOF 8
ENDMDL
MODEL 5
REMARK VINA RESULT:      -8.8      1.809      3.954
REMARK  8 active torsions:
REMARK  status: ('A' for Active; 'I' for Inactive)
REMARK    1  A    between atoms: O1_2  and  C2_3 
REMARK    2  A    between atoms: C3_4  and  C4_5 
REMARK    3  A    between atoms: C9_10  and  N1_11 
REMARK    4  A    between atoms: N1_11  and  C10_12 
REMARK    5  A    between atoms: C14_18  and  N4_19 
REMARK    6  A    between atoms: N4_19  and  C15_20 
REMARK    7  A    between atoms: C18_23  and  O2_24 
REMARK    8  A    between atoms: C24_32  and  S1_33 
ROOT
HETATM    1  C10 UNL     1      25.862   2.428  50.986  1.00  0.00     0.727 A 
HETATM    2  N2  UNL     1      27.113   2.784  51.384  1.00  0.00    -0.074 NA
HETATM    3  C11 UNL     1      27.715   2.249  52.483  1.00  0.00     0.147 A 
HETATM    4  C12 UNL     1      27.063   1.312  53.244  1.00  0.00     0.010 A 
HETATM    5  C13 UNL     1      25.807   0.983  52.811  1.00  0.00     0.119 A 
HETATM    6  N3  UNL     1      25.219   1.512  51.727  1.00  0.00    -0.060 NA
HETATM    7  C14 UNL     1      24.953   0.017  53.468  1.00  0.00     0.149 A 
HETATM    8  C20 UNL     1      25.540  -0.608  54.674  1.00  0.00     0.272 A 
HETATM    9  O3  UNL     1      25.066  -1.477  55.468  1.00  0.00    -0.266 OA
HETATM   10  N5  UNL     1      26.867  -0.233  55.101  1.00  0.00    -0.351 N 
HETATM   11  C21 UNL     1      27.698   0.733  54.422  1.00  0.00     0.165 A 
HETATM   12  H19 UNL     1      27.382  -0.599  55.932  1.00  0.00     0.163 HD
ENDROOT
BRANCH   1  13
HETATM   13  N1  UNL     1      25.362   3.063  49.814  1.00  0.00    -0.187 N 
HETATM   14  H8  UNL     1      26.285   3.076  49.340  1.00  0.00     0.184 HD
BRANCH  13  15
HETATM   15  C9  UNL     1      23.995   3.430  49.680  1.00  0.00     0.060 A 
HETATM   16  C4  UNL     1      23.707   4.772  49.712  1.00  0.00     0.004 A 
HETATM   17  C5  UNL     1      22.376   5.146  49.618  1.00  0.00     0.014 A 
HETATM   18  C6  UNL     1      21.429   4.158  49.501  1.00  0.00     0.001 A 
HETATM   19  C7  UNL     1      21.767   2.806  49.472  1.00  0.00     0.002 A 
HETATM   20  C8  UNL     1      23.089   2.403  49.564  1.00  0.00     0.031 A 
BRANCH  16  21
HETATM   21  C3  UNL     1      24.638   5.881  49.829  1.00  0.00     0.007 A 
HETATM   22  C2  UNL     1      25.785   6.131  49.223  1.00  0.00     0.074 A 
HETATM   23  C24 UNL     1      26.415   7.399  49.654  1.00  0.00     0.124 A 
HETATM   24  C23 UNL     1      25.420   7.884  50.653  1.00  0.00    -0.004 A 
HETATM   25  C22 UNL     1      24.440   7.016  50.729  1.00  0.00     0.012 A 
BRANCH  22  26
HETATM   26  O1  UNL     1      26.606   5.549  48.277  1.00  0.00    -0.358 OA
HETATM   27  C1  UNL     1      27.926   5.128  48.622  1.00  0.00     0.209 C 
ENDBRANCH  22  26
BRANCH  23  28
HETATM   28  S1  UNL     1      26.560   8.570  48.273  1.00  0.00    -0.167 SA
HETATM   29  H25 UNL     1      27.756   9.276  48.334  1.00  0.00     0.102 HD
ENDBRANCH  23  28
ENDBRANCH  16  21
ENDBRANCH  13  15
ENDBRANCH   1  13
BRANCH   7  30
HETATM   30  N4  UNL     1      23.806  -0.493  53.329  1.00  0.00    -0.277 NA
BRANCH  30  31
HETATM   31  C15 UNL     1      22.610   0.250  53.542  1.00  0.00     0.111 C 
HETATM   32  C16 UNL     1      21.663  -0.401  54.522  1.00  0.00     0.030 C 
HETATM   33  C17 UNL     1      20.389   0.354  54.309  1.00  0.00     0.034 C 
HETATM   34  C18 UNL     1      20.389   0.721  52.858  1.00  0.00     0.120 C 
HETATM   35  C19 UNL     1      21.732   0.299  52.301  1.00  0.00     0.059 C 
BRANCH  34  36
HETATM   36  O2  UNL     1      20.200   2.098  52.765  1.00  0.00    -0.396 OA
HETATM   37  H16 UNL     1      19.444   2.330  53.344  1.00  0.00     0.210 HD
ENDBRANCH  34  36
ENDBRANCH  30  31
ENDBRANCH   7  30
TORSDOF 8
ENDMDL
MODEL 6
REMARK VINA RESULT:      -8.8      2.177      4.469
REMARK  8 active torsions:
REMARK  status: ('A' for Active; 'I' for Inactive)
REMARK    1  A    between atoms: O1_2  and  C2_3 
REMARK    2  A    between atoms: C3_4  and  C4_5 
REMARK    3  A    between atoms: C9_10  and  N1_11 
REMARK    4  A    between atoms: N1_11  and  C10_12 
REMARK    5  A    between atoms: C14_18  and  N4_19 
REMARK    6  A    between atoms: N4_19  and  C15_20 
REMARK    7  A    between atoms: C18_23  and  O2_24 
REMARK    8  A    between atoms: C24_32  and  S1_33 
ROOT
HETATM    1  C10 UNL     1      26.194   2.392  51.126  1.00  0.00     0.727 A 
HETATM    2  N2  UNL     1      27.420   2.672  51.644  1.00  0.00    -0.074 NA
HETATM    3  C11 UNL     1      27.887   2.091  52.785  1.00  0.00     0.147 A 
HETATM    4  C12 UNL     1      27.116   1.184  53.467  1.00  0.00     0.010 A 
HETATM    5  C13 UNL     1      25.889   0.931  52.913  1.00  0.00     0.119 A 
HETATM    6  N3  UNL     1      25.435   1.505  51.789  1.00  0.00    -0.060 NA
HETATM    7  C14 UNL     1      24.926   0.008  53.472  1.00  0.00     0.149 A 
HETATM    8  C20 UNL     1      25.362  -0.664  54.718  1.00  0.00     0.272 A 
HETATM    9  O3  UNL     1      24.769  -1.513  55.449  1.00  0.00    -0.266 OA
HETATM   10  N5  UNL     1      26.662  -0.368  55.271  1.00  0.00    -0.351 N 
HETATM   11  C21 UNL     1      27.605   0.556  54.689  1.00  0.00     0.165 A 
HETATM   12  H19 UNL     1      27.077  -0.773  56.140  1.00  0.00     0.163 HD
ENDROOT
BRANCH   1  13
HETATM   13  N1  UNL     1      25.842   3.068  49.923  1.00  0.00    -0.187 N 
HETATM   14  H8  UNL     1      26.543   2.564  49.349  1.00  0.00     0.184 HD
BRANCH  13  15
HETATM   15  C9  UNL     1      24.823   4.059  49.887  1.00  0.00     0.060 A 
HETATM   16  C4  UNL     1      25.166   5.281  49.364  1.00  0.00     0.004 A 
HETATM   17  C5  UNL     1      24.195   6.270  49.353  1.00  0.00     0.014 A 
HETATM   18  C6  UNL     1      22.955   5.971  49.862  1.00  0.00     0.001 A 
HETATM   19  C7  UNL     1      22.650   4.714  50.383  1.00  0.00     0.002 A 
HETATM   20  C8  UNL     1      23.601   3.707  50.407  1.00  0.00     0.031 A 
BRANCH  16  21
HETATM   21  C3  UNL     1      26.444   5.684  48.802  1.00  0.00     0.007 A 
HETATM   22  C2  UNL     1      26.830   6.804  48.216  1.00  0.00     0.074 A 
HETATM   23  C24 UNL     1      28.246   6.784  47.786  1.00  0.00     0.124 A 
HETATM   24  C23 UNL     1      28.657   5.421  48.226  1.00  0.00    -0.004 A 
HETATM   25  C22 UNL     1      27.630   4.831  48.790  1.00  0.00     0.012 A 
BRANCH  22  26
HETATM   26  O1  UNL     1      26.296   8.030  47.870  1.00  0.00    -0.358 OA
HETATM   27  C1  UNL     1      25.987   8.328  46.508  1.00  0.00     0.209 C 
ENDBRANCH  22  26
BRANCH  23  28
HETATM   28  S1  UNL     1      29.216   8.057  48.645  1.00  0.00    -0.167 SA
HETATM   29  H25 UNL     1      28.476   8.657  49.658  1.00  0.00     0.102 HD
ENDBRANCH  23  28
ENDBRANCH  16  21
ENDBRANCH  13  15
ENDBRANCH   1  13
BRANCH   7  30
HETATM   30  N4  UNL     1      23.770  -0.435  53.220  1.00  0.00    -0.277 NA
BRANCH  30  31
HETATM   31  C15 UNL     1      22.589   0.300  53.520  1.00  0.00     0.111 C 
HETATM   32  C16 UNL     1      21.560  -0.499  54.285  1.00  0.00     0.030 C 
HETATM   33  C17 UNL     1      20.329   0.342  54.170  1.00  0.00     0.034 C 
HETATM   34  C18 UNL     1      20.432   1.008  52.833  1.00  0.00     0.120 C 
HETATM   35  C19 UNL     1      21.794   0.652  52.273  1.00  0.00     0.059 C 
BRANCH  34  36
HETATM   36  O2  UNL     1      20.296   2.380  53.026  1.00  0.00    -0.396 OA
HETATM   37  H16 UNL     1      21.089   2.687  53.516  1.00  0.00     0.210 HD
ENDBRANCH  34  36
ENDBRANCH  30  31
ENDBRANCH   7  30
TORSDOF 8
ENDMDL
MODEL 7
REMARK VINA RESULT:      -8.7      3.220      6.272
REMARK  8 active torsions:
REMARK  status: ('A' for Active; 'I' for Inactive)
REMARK    1  A    between atoms: O1_2  and  C2_3 
REMARK    2  A    between atoms: C3_4  and  C4_5 
REMARK    3  A    between atoms: C9_10  and  N1_11 
REMARK    4  A    between atoms: N1_11  and  C10_12 
REMARK    5  A    between atoms: C14_18  and  N4_19 
REMARK    6  A    between atoms: N4_19  and  C15_20 
REMARK    7  A    between atoms: C18_23  and  O2_24 
REMARK    8  A    between atoms: C24_32  and  S1_33 
ROOT
HETATM    1  C10 UNL     1      23.226   0.690  53.479  1.00  0.00     0.727 A 
HETATM    2  N2  UNL     1      23.212  -0.454  54.214  1.00  0.00    -0.074 NA
HETATM    3  C11 UNL     1      22.101  -1.233  54.340  1.00  0.00     0.147 A 
HETATM    4  C12 UNL     1      20.931  -0.880  53.716  1.00  0.00     0.010 A 
HETATM    5  C13 UNL     1      20.988   0.278  52.987  1.00  0.00     0.119 A 
HETATM    6  N3  UNL     1      22.085   1.041  52.866  1.00  0.00    -0.060 NA
HETATM    7  C14 UNL     1      19.868   0.825  52.252  1.00  0.00     0.149 A 
HETATM    8  C20 UNL     1      18.621   0.032  52.343  1.00  0.00     0.272 A 
HETATM    9  O3  UNL     1      17.479   0.228  51.828  1.00  0.00    -0.266 OA
HETATM   10  N5  UNL     1      18.601  -1.182  53.123  1.00  0.00    -0.351 N 
HETATM   11  C21 UNL     1      19.737  -1.707  53.843  1.00  0.00     0.165 A 
HETATM   12  H19 UNL     1      17.786  -1.820  53.263  1.00  0.00     0.163 HD
ENDROOT
BRANCH   1  13
HETATM   13  N1  UNL     1      24.460   1.400  53.429  1.00  0.00    -0.187 N 
HETATM   14  H8  UNL     1      24.664   1.259  54.437  1.00  0.00     0.184 HD
BRANCH  13  15
HETATM   15  C9  UNL     1      24.942   1.990  52.229  1.00  0.00     0.060 A 
HETATM   16  C4  UNL     1      26.305   2.058  52.076  1.00  0.00     0.004 A 
HETATM   17  C5  UNL     1      26.792   2.661  50.928  1.00  0.00     0.014 A 
HETATM   18  C6  UNL     1      25.890   3.152  50.016  1.00  0.00     0.001 A 
HETATM   19  C7  UNL     1      24.513   3.060  50.213  1.00  0.00     0.002 A 
HETATM   20  C8  UNL     1      23.997   2.463  51.351  1.00  0.00     0.031 A 
BRANCH  16  21
HETATM   21  C3  UNL     1      27.329   1.564  52.980  1.00  0.00     0.007 A 
HETATM   22  C2  UNL     1      27.488   0.393  53.571  1.00  0.00     0.074 A 
HETATM   23  C24 UNL     1      28.693   0.324  54.427  1.00  0.00     0.124 A 
HETATM   24  C23 UNL     1      29.249   1.695  54.244  1.00  0.00    -0.004 A 
HETATM   25  C22 UNL     1      28.467   2.364  53.432  1.00  0.00     0.012 A 
BRANCH  22  26
HETATM   26  O1  UNL     1      26.848  -0.830  53.636  1.00  0.00    -0.358 OA
HETATM   27  C1  UNL     1      26.582  -1.572  52.445  1.00  0.00     0.209 C 
ENDBRANCH  22  26
BRANCH  23  28
HETATM   28  S1  UNL     1      29.862  -0.929  53.824  1.00  0.00    -0.167 SA
HETATM   29  H25 UNL     1      31.080  -0.355  53.476  1.00  0.00     0.102 HD
ENDBRANCH  23  28
ENDBRANCH  16  21
ENDBRANCH  13  15
ENDBRANCH   1  13
BRANCH   7  30
HETATM   30  N4  UNL     1      19.602   1.816  51.515  1.00  0.00    -0.277 NA
BRANCH  30  31
HETATM   31  C15 UNL     1      19.960   1.860  50.138  1.00  0.00     0.111 C 
HETATM   32  C16 UNL     1      21.057   0.888  49.769  1.00  0.00     0.030 C 
HETATM   33  C17 UNL     1      21.480   1.359  48.414  1.00  0.00     0.034 C 
HETATM   34  C18 UNL     1      21.287   2.843  48.437  1.00  0.00     0.120 C 
HETATM   35  C19 UNL     1      20.616   3.176  49.753  1.00  0.00     0.059 C 
BRANCH  34  36
HETATM   36  O2  UNL     1      20.489   3.189  47.349  1.00  0.00    -0.396 OA
HETATM   37  H16 UNL     1      19.571   3.287  47.678  1.00  0.00     0.210 HD
ENDBRANCH  34  36
ENDBRANCH  30  31
ENDBRANCH   7  30
TORSDOF 8
ENDMDL
MODEL 8
REMARK VINA RESULT:      -8.6      3.552      7.234
REMARK  8 active torsions:
REMARK  status: ('A' for Active; 'I' for Inactive)
REMARK    1  A    between atoms: O1_2  and  C2_3 
REMARK    2  A    between atoms: C3_4  and  C4_5 
REMARK    3  A    between atoms: C9_10  and  N1_11 
REMARK    4  A    between atoms: N1_11  and  C10_12 
REMARK    5  A    between atoms: C14_18  and  N4_19 
REMARK    6  A    between atoms: N4_19  and  C15_20 
REMARK    7  A    between atoms: C18_23  and  O2_24 
REMARK    8  A    between atoms: C24_32  and  S1_33 
ROOT
HETATM    1  C10 UNL     1      21.304   2.929  52.260  1.00  0.00     0.727 A 
HETATM    2  N2  UNL     1      21.051   4.257  52.112  1.00  0.00    -0.074 NA
HETATM    3  C11 UNL     1      21.985   5.137  51.654  1.00  0.00     0.147 A 
HETATM    4  C12 UNL     1      23.242   4.702  51.317  1.00  0.00     0.010 A 
HETATM    5  C13 UNL     1      23.456   3.360  51.480  1.00  0.00     0.119 A 
HETATM    6  N3  UNL     1      22.532   2.497  51.932  1.00  0.00    -0.060 NA
HETATM    7  C14 UNL     1      24.708   2.700  51.183  1.00  0.00     0.149 A 
HETATM    8  C20 UNL     1      25.775   3.593  50.678  1.00  0.00     0.272 A 
HETATM    9  O3  UNL     1      26.968   3.341  50.330  1.00  0.00    -0.266 OA
HETATM   10  N5  UNL     1      25.511   5.004  50.522  1.00  0.00    -0.351 N 
HETATM   11  C21 UNL     1      24.248   5.635  50.824  1.00  0.00     0.165 A 
HETATM   12  H19 UNL     1      26.180   5.730  50.181  1.00  0.00     0.163 HD
ENDROOT
BRANCH   1  13
HETATM   13  N1  UNL     1      20.232   2.126  52.743  1.00  0.00    -0.187 N 
HETATM   14  H8  UNL     1      19.508   2.838  52.532  1.00  0.00     0.184 HD
BRANCH  13  15
HETATM   15  C9  UNL     1      20.446   0.827  53.281  1.00  0.00     0.060 A 
HETATM   16  C4  UNL     1      19.602  -0.168  52.854  1.00  0.00     0.004 A 
HETATM   17  C5  UNL     1      19.774  -1.432  53.395  1.00  0.00     0.014 A 
HETATM   18  C6  UNL     1      20.773  -1.614  54.320  1.00  0.00     0.001 A 
HETATM   19  C7  UNL     1      21.608  -0.574  54.723  1.00  0.00     0.002 A 
HETATM   20  C8  UNL     1      21.459   0.700  54.200  1.00  0.00     0.031 A 
BRANCH  16  21
HETATM   21  C3  UNL     1      18.526  -0.069  51.882  1.00  0.00     0.007 A 
HETATM   22  C2  UNL     1      17.259  -0.438  51.936  1.00  0.00     0.074 A 
HETATM   23  C24 UNL     1      16.507  -0.144  50.696  1.00  0.00     0.124 A 
HETATM   24  C23 UNL     1      17.571   0.484  49.862  1.00  0.00    -0.004 A 
HETATM   25  C22 UNL     1      18.686   0.512  50.550  1.00  0.00     0.012 A 
BRANCH  22  26
HETATM   26  O1  UNL     1      16.390  -1.036  52.829  1.00  0.00    -0.358 OA
HETATM   27  C1  UNL     1      15.889  -2.351  52.582  1.00  0.00     0.209 C 
ENDBRANCH  22  26
BRANCH  23  28
HETATM   28  S1  UNL     1      15.155   1.030  51.003  1.00  0.00    -0.167 SA
HETATM   29  H25 UNL     1      15.570   2.341  50.794  1.00  0.00     0.102 HD
ENDBRANCH  23  28
ENDBRANCH  16  21
ENDBRANCH  13  15
ENDBRANCH   1  13
BRANCH   7  30
HETATM   30  N4  UNL     1      25.207   1.539  51.214  1.00  0.00    -0.277 NA
BRANCH  30  31
HETATM   31  C15 UNL     1      25.985   1.073  52.311  1.00  0.00     0.111 C 
HETATM   32  C16 UNL     1      26.726  -0.212  52.020  1.00  0.00     0.030 C 
HETATM   33  C17 UNL     1      27.160  -0.662  53.379  1.00  0.00     0.034 C 
HETATM   34  C18 UNL     1      26.082  -0.201  54.308  1.00  0.00     0.120 C 
HETATM   35  C19 UNL     1      25.125   0.635  53.486  1.00  0.00     0.059 C 
BRANCH  34  36
HETATM   36  O2  UNL     1      26.680   0.545  55.321  1.00  0.00    -0.396 OA
HETATM   37  H16 UNL     1      26.723   1.475  55.014  1.00  0.00     0.210 HD
ENDBRANCH  34  36
ENDBRANCH  30  31
ENDBRANCH   7  30
TORSDOF 8
ENDMDL
MODEL 9
REMARK VINA RESULT:      -8.4      3.306      8.017
REMARK  8 active torsions:
REMARK  status: ('A' for Active; 'I' for Inactive)
REMARK    1  A    between atoms: O1_2  and  C2_3 
REMARK    2  A    between atoms: C3_4  and  C4_5 
REMARK    3  A    between atoms: C9_10  and  N1_11 
REMARK    4  A    between atoms: N1_11  and  C10_12 
REMARK    5  A    between atoms: C14_18  and  N4_19 
REMARK    6  A    between atoms: N4_19  and  C15_20 
REMARK    7  A    between atoms: C18_23  and  O2_24 
REMARK    8  A    between atoms: C24_32  and  S1_33 
ROOT
HETATM    1  C10 UNL     1      26.363   3.659  50.168  1.00  0.00     0.727 A 
HETATM    2  N2  UNL     1      27.333   3.884  49.242  1.00  0.00    -0.074 NA
HETATM    3  C11 UNL     1      27.436   5.056  48.555  1.00  0.00     0.147 A 
HETATM    4  C12 UNL     1      26.542   6.073  48.779  1.00  0.00     0.010 A 
HETATM    5  C13 UNL     1      25.582   5.806  49.717  1.00  0.00     0.119 A 
HETATM    6  N3  UNL     1      25.485   4.650  50.391  1.00  0.00    -0.060 NA
HETATM    7  C14 UNL     1      24.548   6.742  50.102  1.00  0.00     0.149 A 
HETATM    8  C20 UNL     1      24.594   8.042  49.396  1.00  0.00     0.272 A 
HETATM    9  O3  UNL     1      23.849   9.063  49.495  1.00  0.00    -0.266 OA
HETATM   10  N5  UNL     1      25.622   8.284  48.411  1.00  0.00    -0.351 N 
HETATM   11  C21 UNL     1      26.644   7.332  48.050  1.00  0.00     0.165 A 
HETATM   12  H19 UNL     1      25.754   9.154  47.849  1.00  0.00     0.163 HD
ENDROOT
BRANCH   1  13
HETATM   13  N1  UNL     1      26.381   2.390  50.814  1.00  0.00    -0.187 N 
HETATM   14  H8  UNL     1      27.363   2.189  50.550  1.00  0.00     0.184 HD
BRANCH  13  15
HETATM   15  C9  UNL     1      25.243   1.875  51.494  1.00  0.00     0.060 A 
HETATM   16  C4  UNL     1      25.475   1.208  52.672  1.00  0.00     0.004 A 
HETATM   17  C5  UNL     1      24.381   0.669  53.329  1.00  0.00     0.014 A 
HETATM   18  C6  UNL     1      23.138   0.831  52.768  1.00  0.00     0.001 A 
HETATM   19  C7  UNL     1      22.949   1.517  51.570  1.00  0.00     0.002 A 
HETATM   20  C8  UNL     1      24.024   2.067  50.890  1.00  0.00     0.031 A 
BRANCH  16  21
HETATM   21  C3  UNL     1      26.747   0.992  53.339  1.00  0.00     0.007 A 
HETATM   22  C2  UNL     1      27.349  -0.113  53.742  1.00  0.00     0.074 A 
HETATM   23  C24 UNL     1      28.657   0.132  54.390  1.00  0.00     0.124 A 
HETATM   24  C23 UNL     1      28.740   1.618  54.305  1.00  0.00    -0.004 A 
HETATM   25  C22 UNL     1      27.661   2.069  53.714  1.00  0.00     0.012 A 
BRANCH  22  26
HETATM   26  O1  UNL     1      27.122  -1.476  53.743  1.00  0.00    -0.358 OA
HETATM   27  C1  UNL     1      26.848  -2.166  52.523  1.00  0.00     0.209 C 
ENDBRANCH  22  26
BRANCH  23  28
HETATM   28  S1  UNL     1      30.012  -0.642  53.460  1.00  0.00    -0.167 SA
HETATM   29  H25 UNL     1      29.727  -1.971  53.167  1.00  0.00     0.102 HD
ENDBRANCH  23  28
ENDBRANCH  16  21
ENDBRANCH  13  15
ENDBRANCH   1  13
BRANCH   7  30
HETATM   30  N4  UNL     1      23.567   6.807  50.896  1.00  0.00    -0.277 NA
BRANCH  30  31
HETATM   31  C15 UNL     1      22.308   6.210  50.604  1.00  0.00     0.111 C 
HETATM   32  C16 UNL     1      21.883   5.174  51.618  1.00  0.00     0.030 C 
HETATM   33  C17 UNL     1      20.756   4.472  50.928  1.00  0.00     0.034 C 
HETATM   34  C18 UNL     1      21.105   4.508  49.473  1.00  0.00     0.120 C 
HETATM   35  C19 UNL     1      22.350   5.361  49.343  1.00  0.00     0.059 C 
BRANCH  34  36
HETATM   36  O2  UNL     1      20.026   5.062  48.788  1.00  0.00    -0.396 OA
HETATM   37  H16 UNL     1      19.417   5.440  49.456  1.00  0.00     0.210 HD
ENDBRANCH  34  36
ENDBRANCH  30  31
ENDBRANCH   7  30
TORSDOF 8
ENDMDL
