MODEL 1
REMARK VINA RESULT:      -8.4      0.000      0.000
REMARK  5 active torsions:
REMARK  status: ('A' for Active; 'I' for Inactive)
REMARK    1  A    between atoms: O1_2  and  C2_3 
REMARK    2  A    between atoms: C8_11  and  N3_12 
REMARK    3  A    between atoms: N3_12  and  C9_13 
REMARK    4  A    between atoms: C17_23  and  N4_24 
REMARK    5  A    between atoms: N4_24  and  C18_25 
ROOT
HETATM    1  C2  UNL     1      23.552   3.186  49.613  1.00  0.00     0.097 A 
HETATM    2  C3  UNL     1      22.529   2.270  49.757  1.00  0.00     0.071 A 
HETATM    3  C4  UNL     1      22.506   1.474  50.883  1.00  0.00     0.071 A 
HETATM    4  N1  UNL     1      21.504   0.575  51.026  1.00  0.00    -0.259 NA
HETATM    5  C5  UNL     1      21.401  -0.247  52.098  1.00  0.00     0.142 A 
HETATM    6  C6  UNL     1      22.342  -0.197  53.111  1.00  0.00     0.089 A 
HETATM    7  C7  UNL     1      22.322  -1.025  54.287  1.00  0.00     0.103 C 
HETATM    8  N2  UNL     1      22.290  -1.694  55.217  1.00  0.00    -0.191 NA
HETATM    9  C8  UNL     1      23.372   0.714  52.982  1.00  0.00     0.067 A 
HETATM   10  C15 UNL     1      23.458   1.546  51.879  1.00  0.00     0.023 A 
HETATM   11  C16 UNL     1      24.485   2.464  51.733  1.00  0.00     0.048 A 
HETATM   12  C17 UNL     1      24.507   3.261  50.607  1.00  0.00     0.069 A 
ENDROOT
BRANCH   9  13
HETATM   13  N3  UNL     1      24.416   0.876  53.952  1.00  0.00    -0.354 N 
HETATM   14  H6  UNL     1      24.324   1.406  54.848  1.00  0.00     0.166 HD
BRANCH  13  15
HETATM   15  C9  UNL     1      25.682   0.273  53.681  1.00  0.00     0.034 A 
HETATM   16  C10 UNL     1      25.806  -0.928  53.035  1.00  0.00     0.032 A 
HETATM   17  C11 UNL     1      27.041  -1.491  52.784  1.00  0.00     0.046 A 
HETATM   18  C12 UNL     1      28.208  -0.867  53.175  1.00  0.00     0.138 A 
HETATM   19  F1  UNL     1      29.467  -1.322  52.983  1.00  0.00    -0.204 F 
HETATM   20  C13 UNL     1      28.123   0.347  53.830  1.00  0.00     0.074 A 
HETATM   21 CL1  UNL     1      29.526   1.255  54.385  1.00  0.00    -0.081 Cl
HETATM   22  C14 UNL     1      26.861   0.865  54.055  1.00  0.00     0.056 A 
ENDBRANCH  13  15
ENDBRANCH   9  13
BRANCH  12  23
HETATM   23  N4  UNL     1      25.599   4.172  50.548  1.00  0.00    -0.332 N 
HETATM   24  H11 UNL     1      25.902   5.143  50.859  1.00  0.00     0.168 HD
BRANCH  23  25
HETATM   25  C18 UNL     1      26.726   3.676  49.834  1.00  0.00     0.353 C 
HETATM   26  O2  UNL     1      27.490   4.320  49.038  1.00  0.00    -0.283 OA
ENDBRANCH  23  25
ENDBRANCH  12  23
BRANCH   1  27
HETATM   27  O1  UNL     1      23.690   4.039  48.537  1.00  0.00    -0.354 OA
HETATM   28  C1  UNL     1      22.782   5.106  48.345  1.00  0.00     0.210 C 
ENDBRANCH   1  27
TORSDOF 5
ENDMDL
MODEL 2
REMARK VINA RESULT:      -8.4      2.849      4.955
REMARK  5 active torsions:
REMARK  status: ('A' for Active; 'I' for Inactive)
REMARK    1  A    between atoms: O1_2  and  C2_3 
REMARK    2  A    between atoms: C8_11  and  N3_12 
REMARK    3  A    between atoms: N3_12  and  C9_13 
REMARK    4  A    between atoms: C17_23  and  N4_24 
REMARK    5  A    between atoms: N4_24  and  C18_25 
ROOT
HETATM    1  C2  UNL     1      20.667   0.506  52.101  1.00  0.00     0.097 A 
HETATM    2  C3  UNL     1      21.035   0.955  50.849  1.00  0.00     0.071 A 
HETATM    3  C4  UNL     1      22.257   1.579  50.701  1.00  0.00     0.071 A 
HETATM    4  N1  UNL     1      22.619   2.022  49.474  1.00  0.00    -0.259 NA
HETATM    5  C5  UNL     1      23.799   2.644  49.235  1.00  0.00     0.142 A 
HETATM    6  C6  UNL     1      24.698   2.858  50.265  1.00  0.00     0.089 A 
HETATM    7  C7  UNL     1      25.972   3.507  50.115  1.00  0.00     0.103 C 
HETATM    8  N2  UNL     1      26.984   4.028  49.977  1.00  0.00    -0.191 NA
HETATM    9  C8  UNL     1      24.344   2.414  51.524  1.00  0.00     0.067 A 
HETATM   10  C15 UNL     1      23.135   1.778  51.746  1.00  0.00     0.023 A 
HETATM   11  C16 UNL     1      22.765   1.328  53.002  1.00  0.00     0.048 A 
HETATM   12  C17 UNL     1      21.543   0.703  53.149  1.00  0.00     0.069 A 
ENDROOT
BRANCH   9  13
HETATM   13  N3  UNL     1      25.176   2.566  52.683  1.00  0.00    -0.354 N 
HETATM   14  H6  UNL     1      25.039   3.286  53.428  1.00  0.00     0.166 HD
BRANCH  13  15
HETATM   15  C9  UNL     1      26.278   1.672  52.838  1.00  0.00     0.034 A 
HETATM   16  C10 UNL     1      27.510   2.085  53.273  1.00  0.00     0.032 A 
HETATM   17  C11 UNL     1      28.561   1.201  53.415  1.00  0.00     0.046 A 
HETATM   18  C12 UNL     1      28.416  -0.140  53.125  1.00  0.00     0.138 A 
HETATM   19  F1  UNL     1      29.372  -1.093  53.227  1.00  0.00    -0.204 F 
HETATM   20  C13 UNL     1      27.188  -0.594  52.684  1.00  0.00     0.074 A 
HETATM   21 CL1  UNL     1      26.859  -2.276  52.277  1.00  0.00    -0.081 Cl
HETATM   22  C14 UNL     1      26.171   0.334  52.560  1.00  0.00     0.056 A 
ENDBRANCH  13  15
ENDBRANCH   9  13
BRANCH  12  23
HETATM   23  N4  UNL     1      21.253   0.276  54.476  1.00  0.00    -0.332 N 
HETATM   24  H11 UNL     1      20.623   0.483  55.308  1.00  0.00     0.168 HD
BRANCH  23  25
HETATM   25  C18 UNL     1      22.054  -0.815  54.919  1.00  0.00     0.353 C 
HETATM   26  O2  UNL     1      21.723  -2.048  54.982  1.00  0.00    -0.283 OA
ENDBRANCH  23  25
ENDBRANCH  12  23
BRANCH   1  27
HETATM   27  O1  UNL     1      19.476  -0.132  52.382  1.00  0.00    -0.354 OA
HETATM   28  C1  UNL     1      18.403  -0.088  51.463  1.00  0.00     0.210 C 
ENDBRANCH   1  27
TORSDOF 5
ENDMDL
MODEL 3
REMARK VINA RESULT:      -8.0      3.941      6.119
REMARK  5 active torsions:
REMARK  status: ('A' for Active; 'I' for Inactive)
REMARK    1  A    between atoms: O1_2  and  C2_3 
REMARK    2  A    between atoms: C8_11  and  N3_12 
REMARK    3  A    between atoms: N3_12  and  C9_13 
REMARK    4  A    between atoms: C17_23  and  N4_24 
REMARK    5  A    between atoms: N4_24  and  C18_25 
ROOT
HETATM    1  C2  UNL     1      25.629  -0.467  53.296  1.00  0.00     0.097 A 
HETATM    2  C3  UNL     1      24.350  -0.772  53.720  1.00  0.00     0.071 A 
HETATM    3  C4  UNL     1      23.318   0.078  53.377  1.00  0.00     0.071 A 
HETATM    4  N1  UNL     1      22.064  -0.219  53.792  1.00  0.00    -0.259 NA
HETATM    5  C5  UNL     1      20.991   0.556  53.502  1.00  0.00     0.142 A 
HETATM    6  C6  UNL     1      21.143   1.710  52.755  1.00  0.00     0.089 A 
HETATM    7  C7  UNL     1      20.071   2.599  52.396  1.00  0.00     0.103 C 
HETATM    8  N2  UNL     1      19.204   3.295  52.119  1.00  0.00    -0.191 NA
HETATM    9  C8  UNL     1      22.416   2.029  52.324  1.00  0.00     0.067 A 
HETATM   10  C15 UNL     1      23.499   1.223  52.629  1.00  0.00     0.023 A 
HETATM   11  C16 UNL     1      24.782   1.528  52.206  1.00  0.00     0.048 A 
HETATM   12  C17 UNL     1      25.813   0.677  52.548  1.00  0.00     0.069 A 
ENDROOT
BRANCH   9  13
HETATM   13  N3  UNL     1      22.723   3.193  51.542  1.00  0.00    -0.354 N 
HETATM   14  H6  UNL     1      23.056   4.104  51.930  1.00  0.00     0.166 HD
BRANCH  13  15
HETATM   15  C9  UNL     1      22.561   3.109  50.126  1.00  0.00     0.034 A 
HETATM   16  C10 UNL     1      22.315   1.928  49.479  1.00  0.00     0.032 A 
HETATM   17  C11 UNL     1      22.162   1.872  48.107  1.00  0.00     0.046 A 
HETATM   18  C12 UNL     1      22.252   3.007  47.328  1.00  0.00     0.138 A 
HETATM   19  F1  UNL     1      22.120   3.072  45.983  1.00  0.00    -0.204 F 
HETATM   20  C13 UNL     1      22.500   4.218  47.946  1.00  0.00     0.074 A 
HETATM   21 CL1  UNL     1      22.640   5.745  47.079  1.00  0.00    -0.081 Cl
HETATM   22  C14 UNL     1      22.644   4.216  49.321  1.00  0.00     0.056 A 
ENDBRANCH  13  15
ENDBRANCH   9  13
BRANCH  12  23
HETATM   23  N4  UNL     1      27.092   1.076  52.067  1.00  0.00    -0.332 N 
HETATM   24  H11 UNL     1      27.806   0.871  51.305  1.00  0.00     0.168 HD
BRANCH  23  25
HETATM   25  C18 UNL     1      27.695   2.119  52.827  1.00  0.00     0.353 C 
HETATM   26  O2  UNL     1      27.642   2.292  54.091  1.00  0.00    -0.283 OA
ENDBRANCH  23  25
ENDBRANCH  12  23
BRANCH   1  27
HETATM   27  O1  UNL     1      26.744  -1.232  53.571  1.00  0.00    -0.354 OA
HETATM   28  C1  UNL     1      27.138  -2.270  52.695  1.00  0.00     0.210 C 
ENDBRANCH   1  27
TORSDOF 5
ENDMDL
MODEL 4
REMARK VINA RESULT:      -7.9      4.435      6.801
REMARK  5 active torsions:
REMARK  status: ('A' for Active; 'I' for Inactive)
REMARK    1  A    between atoms: O1_2  and  C2_3 
REMARK    2  A    between atoms: C8_11  and  N3_12 
REMARK    3  A    between atoms: N3_12  and  C9_13 
REMARK    4  A    between atoms: C17_23  and  N4_24 
REMARK    5  A    between atoms: N4_24  and  C18_25 
ROOT
HETATM    1  C2  UNL     1      26.390   0.987  54.222  1.00  0.00     0.097 A 
HETATM    2  C3  UNL     1      25.968   2.292  54.065  1.00  0.00     0.071 A 
HETATM    3  C4  UNL     1      24.846   2.538  53.301  1.00  0.00     0.071 A 
HETATM    4  N1  UNL     1      24.431   3.818  53.145  1.00  0.00    -0.259 NA
HETATM    5  C5  UNL     1      23.340   4.153  52.414  1.00  0.00     0.142 A 
HETATM    6  C6  UNL     1      22.594   3.175  51.781  1.00  0.00     0.089 A 
HETATM    7  C7  UNL     1      21.424   3.427  50.984  1.00  0.00     0.103 C 
HETATM    8  N2  UNL     1      20.494   3.647  50.352  1.00  0.00    -0.191 NA
HETATM    9  C8  UNL     1      23.004   1.864  51.929  1.00  0.00     0.067 A 
HETATM   10  C15 UNL     1      24.119   1.542  52.682  1.00  0.00     0.023 A 
HETATM   11  C16 UNL     1      24.544   0.233  52.839  1.00  0.00     0.048 A 
HETATM   12  C17 UNL     1      25.666  -0.013  53.605  1.00  0.00     0.069 A 
ENDROOT
BRANCH   9  13
HETATM   13  N3  UNL     1      22.328   0.748  51.332  1.00  0.00    -0.354 N 
HETATM   14  H6  UNL     1      22.621   0.272  50.449  1.00  0.00     0.166 HD
BRANCH  13  15
HETATM   15  C9  UNL     1      21.164   0.243  51.986  1.00  0.00     0.034 A 
HETATM   16  C10 UNL     1      21.185  -0.237  53.269  1.00  0.00     0.032 A 
HETATM   17  C11 UNL     1      20.045  -0.720  53.880  1.00  0.00     0.046 A 
HETATM   18  C12 UNL     1      18.833  -0.742  53.224  1.00  0.00     0.138 A 
HETATM   19  F1  UNL     1      17.656  -1.190  53.721  1.00  0.00    -0.204 F 
HETATM   20  C13 UNL     1      18.771  -0.266  51.928  1.00  0.00     0.074 A 
HETATM   21 CL1  UNL     1      17.293  -0.234  50.970  1.00  0.00    -0.081 Cl
HETATM   22  C14 UNL     1      19.942   0.206  51.365  1.00  0.00     0.056 A 
ENDBRANCH  13  15
ENDBRANCH   9  13
BRANCH  12  23
HETATM   23  N4  UNL     1      26.022  -1.387  53.707  1.00  0.00    -0.332 N 
HETATM   24  H11 UNL     1      25.821  -2.269  54.267  1.00  0.00     0.168 HD
BRANCH  23  25
HETATM   25  C18 UNL     1      26.989  -1.805  52.749  1.00  0.00     0.353 C 
HETATM   26  O2  UNL     1      27.979  -2.591  52.934  1.00  0.00    -0.283 OA
ENDBRANCH  23  25
ENDBRANCH  12  23
BRANCH   1  27
HETATM   27  O1  UNL     1      27.493   0.608  54.959  1.00  0.00    -0.354 OA
HETATM   28  C1  UNL     1      28.794   0.985  54.553  1.00  0.00     0.210 C 
ENDBRANCH   1  27
TORSDOF 5
ENDMDL
MODEL 5
REMARK VINA RESULT:      -7.9      3.491      5.853
REMARK  5 active torsions:
REMARK  status: ('A' for Active; 'I' for Inactive)
REMARK    1  A    between atoms: O1_2  and  C2_3 
REMARK    2  A    between atoms: C8_11  and  N3_12 
REMARK    3  A    between atoms: N3_12  and  C9_13 
REMARK    4  A    between atoms: C17_23  and  N4_24 
REMARK    5  A    between atoms: N4_24  and  C18_25 
ROOT
HETATM    1  C2  UNL     1      19.843  -0.671  53.183  1.00  0.00     0.097 A 
HETATM    2  C3  UNL     1      20.558  -1.131  54.270  1.00  0.00     0.071 A 
HETATM    3  C4  UNL     1      21.924  -0.937  54.295  1.00  0.00     0.071 A 
HETATM    4  N1  UNL     1      22.628  -1.389  55.360  1.00  0.00    -0.259 NA
HETATM    5  C5  UNL     1      23.971  -1.242  55.470  1.00  0.00     0.142 A 
HETATM    6  C6  UNL     1      24.690  -0.611  54.470  1.00  0.00     0.089 A 
HETATM    7  C7  UNL     1      26.113  -0.407  54.492  1.00  0.00     0.103 C 
HETATM    8  N2  UNL     1      27.248  -0.254  54.526  1.00  0.00    -0.191 NA
HETATM    9  C8  UNL     1      23.988  -0.145  53.376  1.00  0.00     0.067 A 
HETATM   10  C15 UNL     1      22.616  -0.303  53.284  1.00  0.00     0.023 A 
HETATM   11  C16 UNL     1      21.897   0.157  52.193  1.00  0.00     0.048 A 
HETATM   12  C17 UNL     1      20.531  -0.036  52.169  1.00  0.00     0.069 A 
ENDROOT
BRANCH   9  13
HETATM   13  N3  UNL     1      24.601   0.528  52.266  1.00  0.00    -0.354 N 
HETATM   14  H6  UNL     1      25.232   0.076  51.566  1.00  0.00     0.166 HD
BRANCH  13  15
HETATM   15  C9  UNL     1      24.336   1.920  52.099  1.00  0.00     0.034 A 
HETATM   16  C10 UNL     1      24.207   2.781  53.156  1.00  0.00     0.032 A 
HETATM   17  C11 UNL     1      23.950   4.125  52.969  1.00  0.00     0.046 A 
HETATM   18  C12 UNL     1      23.812   4.660  51.705  1.00  0.00     0.138 A 
HETATM   19  F1  UNL     1      23.562   5.955  51.402  1.00  0.00    -0.204 F 
HETATM   20  C13 UNL     1      23.936   3.822  50.613  1.00  0.00     0.074 A 
HETATM   21 CL1  UNL     1      23.784   4.367  48.944  1.00  0.00    -0.081 Cl
HETATM   22  C14 UNL     1      24.193   2.486  50.858  1.00  0.00     0.056 A 
ENDBRANCH  13  15
ENDBRANCH   9  13
BRANCH  12  23
HETATM   23  N4  UNL     1      19.882   0.472  51.009  1.00  0.00    -0.332 N 
HETATM   24  H11 UNL     1      18.939   0.504  50.518  1.00  0.00     0.168 HD
BRANCH  23  25
HETATM   25  C18 UNL     1      20.739   1.215  50.148  1.00  0.00     0.353 C 
HETATM   26  O2  UNL     1      21.095   0.918  48.957  1.00  0.00    -0.283 OA
ENDBRANCH  23  25
ENDBRANCH  12  23
BRANCH   1  27
HETATM   27  O1  UNL     1      18.477  -0.801  53.037  1.00  0.00    -0.354 OA
HETATM   28  C1  UNL     1      17.821  -1.988  53.434  1.00  0.00     0.210 C 
ENDBRANCH   1  27
TORSDOF 5
ENDMDL
MODEL 6
REMARK VINA RESULT:      -7.8      4.303      7.086
REMARK  5 active torsions:
REMARK  status: ('A' for Active; 'I' for Inactive)
REMARK    1  A    between atoms: O1_2  and  C2_3 
REMARK    2  A    between atoms: C8_11  and  N3_12 
REMARK    3  A    between atoms: N3_12  and  C9_13 
REMARK    4  A    between atoms: C17_23  and  N4_24 
REMARK    5  A    between atoms: N4_24  and  C18_25 
ROOT
HETATM    1  C2  UNL     1      27.039  -0.215  53.347  1.00  0.00     0.097 A 
HETATM    2  C3  UNL     1      27.424   0.664  52.355  1.00  0.00     0.071 A 
HETATM    3  C4  UNL     1      26.523   1.619  51.930  1.00  0.00     0.071 A 
HETATM    4  N1  UNL     1      26.899   2.483  50.957  1.00  0.00    -0.259 NA
HETATM    5  C5  UNL     1      26.081   3.452  50.478  1.00  0.00     0.142 A 
HETATM    6  C6  UNL     1      24.800   3.596  50.978  1.00  0.00     0.089 A 
HETATM    7  C7  UNL     1      23.858   4.589  50.538  1.00  0.00     0.103 C 
HETATM    8  N2  UNL     1      23.120   5.388  50.174  1.00  0.00    -0.191 NA
HETATM    9  C8  UNL     1      24.399   2.723  51.971  1.00  0.00     0.067 A 
HETATM   10  C15 UNL     1      25.250   1.741  52.447  1.00  0.00     0.023 A 
HETATM   11  C16 UNL     1      24.864   0.857  53.442  1.00  0.00     0.048 A 
HETATM   12  C17 UNL     1      25.766  -0.097  53.868  1.00  0.00     0.069 A 
ENDROOT
BRANCH   9  13
HETATM   13  N3  UNL     1      23.101   2.755  52.582  1.00  0.00    -0.354 N 
HETATM   14  H6  UNL     1      22.889   3.172  53.516  1.00  0.00     0.166 HD
BRANCH  13  15
HETATM   15  C9  UNL     1      22.010   2.176  51.866  1.00  0.00     0.034 A 
HETATM   16  C10 UNL     1      22.167   1.122  51.006  1.00  0.00     0.032 A 
HETATM   17  C11 UNL     1      21.095   0.578  50.325  1.00  0.00     0.046 A 
HETATM   18  C12 UNL     1      19.818   1.074  50.482  1.00  0.00     0.138 A 
HETATM   19  F1  UNL     1      18.698   0.623  49.870  1.00  0.00    -0.204 F 
HETATM   20  C13 UNL     1      19.621   2.138  51.342  1.00  0.00     0.074 A 
HETATM   21 CL1  UNL     1      18.048   2.872  51.639  1.00  0.00    -0.081 Cl
HETATM   22  C14 UNL     1      20.728   2.643  51.998  1.00  0.00     0.056 A 
ENDBRANCH  13  15
ENDBRANCH   9  13
BRANCH  12  23
HETATM   23  N4  UNL     1      25.277  -0.956  54.891  1.00  0.00    -0.332 N 
HETATM   24  H11 UNL     1      25.597  -1.563  55.705  1.00  0.00     0.168 HD
BRANCH  23  25
HETATM   25  C18 UNL     1      23.862  -1.109  54.889  1.00  0.00     0.353 C 
HETATM   26  O2  UNL     1      23.129  -1.597  55.815  1.00  0.00    -0.283 OA
ENDBRANCH  23  25
ENDBRANCH  12  23
BRANCH   1  27
HETATM   27  O1  UNL     1      27.843  -1.213  53.860  1.00  0.00    -0.354 OA
HETATM   28  C1  UNL     1      29.215  -1.273  53.527  1.00  0.00     0.210 C 
ENDBRANCH   1  27
TORSDOF 5
ENDMDL
MODEL 7
REMARK VINA RESULT:      -7.8      3.406      5.664
REMARK  5 active torsions:
REMARK  status: ('A' for Active; 'I' for Inactive)
REMARK    1  A    between atoms: O1_2  and  C2_3 
REMARK    2  A    between atoms: C8_11  and  N3_12 
REMARK    3  A    between atoms: N3_12  and  C9_13 
REMARK    4  A    between atoms: C17_23  and  N4_24 
REMARK    5  A    between atoms: N4_24  and  C18_25 
ROOT
HETATM    1  C2  UNL     1      26.166  -0.460  53.934  1.00  0.00     0.097 A 
HETATM    2  C3  UNL     1      25.138  -0.917  54.735  1.00  0.00     0.071 A 
HETATM    3  C4  UNL     1      23.838  -0.751  54.303  1.00  0.00     0.071 A 
HETATM    4  N1  UNL     1      22.828  -1.197  55.087  1.00  0.00    -0.259 NA
HETATM    5  C5  UNL     1      21.523  -1.077  54.744  1.00  0.00     0.142 A 
HETATM    6  C6  UNL     1      21.165  -0.477  53.550  1.00  0.00     0.089 A 
HETATM    7  C7  UNL     1      19.812  -0.302  53.096  1.00  0.00     0.103 C 
HETATM    8  N2  UNL     1      18.727  -0.171  52.751  1.00  0.00    -0.191 NA
HETATM    9  C8  UNL     1      22.183  -0.015  52.738  1.00  0.00     0.067 A 
HETATM   10  C15 UNL     1      23.510  -0.149  53.106  1.00  0.00     0.023 A 
HETATM   11  C16 UNL     1      24.542   0.309  52.304  1.00  0.00     0.048 A 
HETATM   12  C17 UNL     1      25.842   0.142  52.735  1.00  0.00     0.069 A 
ENDROOT
BRANCH   9  13
HETATM   13  N3  UNL     1      21.961   0.626  51.473  1.00  0.00    -0.354 N 
HETATM   14  H6  UNL     1      21.699   0.134  50.590  1.00  0.00     0.166 HD
BRANCH  13  15
HETATM   15  C9  UNL     1      22.109   2.045  51.407  1.00  0.00     0.034 A 
HETATM   16  C10 UNL     1      21.485   2.895  52.282  1.00  0.00     0.032 A 
HETATM   17  C11 UNL     1      21.643   4.264  52.198  1.00  0.00     0.046 A 
HETATM   18  C12 UNL     1      22.438   4.836  51.227  1.00  0.00     0.138 A 
HETATM   19  F1  UNL     1      22.666   6.159  51.051  1.00  0.00    -0.204 F 
HETATM   20  C13 UNL     1      23.084   4.011  50.327  1.00  0.00     0.074 A 
HETATM   21 CL1  UNL     1      24.128   4.603  49.037  1.00  0.00    -0.081 Cl
HETATM   22  C14 UNL     1      22.890   2.648  50.457  1.00  0.00     0.056 A 
ENDBRANCH  13  15
ENDBRANCH   9  13
BRANCH  12  23
HETATM   23  N4  UNL     1      26.830   0.645  51.843  1.00  0.00    -0.332 N 
HETATM   24  H11 UNL     1      27.776   0.410  51.415  1.00  0.00     0.168 HD
BRANCH  23  25
HETATM   25  C18 UNL     1      26.509   1.913  51.281  1.00  0.00     0.353 C 
HETATM   26  O2  UNL     1      27.278   2.924  51.149  1.00  0.00    -0.283 OA
ENDBRANCH  23  25
ENDBRANCH  12  23
BRANCH   1  27
HETATM   27  O1  UNL     1      27.505  -0.565  54.249  1.00  0.00    -0.354 OA
HETATM   28  C1  UNL     1      28.151   0.449  54.992  1.00  0.00     0.210 C 
ENDBRANCH   1  27
TORSDOF 5
ENDMDL
MODEL 8
REMARK VINA RESULT:      -7.7      3.326      5.534
REMARK  5 active torsions:
REMARK  status: ('A' for Active; 'I' for Inactive)
REMARK    1  A    between atoms: O1_2  and  C2_3 
REMARK    2  A    between atoms: C8_11  and  N3_12 
REMARK    3  A    between atoms: N3_12  and  C9_13 
REMARK    4  A    between atoms: C17_23  and  N4_24 
REMARK    5  A    between atoms: N4_24  and  C18_25 
ROOT
HETATM    1  C2  UNL     1      26.865   1.100  52.600  1.00  0.00     0.097 A 
HETATM    2  C3  UNL     1      26.137   0.053  53.130  1.00  0.00     0.071 A 
HETATM    3  C4  UNL     1      24.760   0.104  53.067  1.00  0.00     0.071 A 
HETATM    4  N1  UNL     1      24.045  -0.922  53.586  1.00  0.00    -0.259 NA
HETATM    5  C5  UNL     1      22.691  -0.958  53.569  1.00  0.00     0.142 A 
HETATM    6  C6  UNL     1      21.971   0.082  53.008  1.00  0.00     0.089 A 
HETATM    7  C7  UNL     1      20.535   0.139  52.940  1.00  0.00     0.103 C 
HETATM    8  N2  UNL     1      19.390   0.168  52.896  1.00  0.00    -0.191 NA
HETATM    9  C8  UNL     1      22.684   1.138  52.474  1.00  0.00     0.067 A 
HETATM   10  C15 UNL     1      24.067   1.153  52.500  1.00  0.00     0.023 A 
HETATM   11  C16 UNL     1      24.798   2.204  51.971  1.00  0.00     0.048 A 
HETATM   12  C17 UNL     1      26.176   2.152  52.032  1.00  0.00     0.069 A 
ENDROOT
BRANCH   9  13
HETATM   13  N3  UNL     1      22.072   2.281  51.861  1.00  0.00    -0.354 N 
HETATM   14  H6  UNL     1      21.602   3.059  52.378  1.00  0.00     0.166 HD
BRANCH  13  15
HETATM   15  C9  UNL     1      22.101   2.373  50.436  1.00  0.00     0.034 A 
HETATM   16  C10 UNL     1      21.775   1.321  49.621  1.00  0.00     0.032 A 
HETATM   17  C11 UNL     1      21.810   1.434  48.245  1.00  0.00     0.046 A 
HETATM   18  C12 UNL     1      22.176   2.614  47.631  1.00  0.00     0.138 A 
HETATM   19  F1  UNL     1      22.246   2.839  46.298  1.00  0.00    -0.204 F 
HETATM   20  C13 UNL     1      22.512   3.697  48.421  1.00  0.00     0.074 A 
HETATM   21 CL1  UNL     1      22.998   5.261  47.774  1.00  0.00    -0.081 Cl
HETATM   22  C14 UNL     1      22.459   3.528  49.792  1.00  0.00     0.056 A 
ENDBRANCH  13  15
ENDBRANCH   9  13
BRANCH  12  23
HETATM   23  N4  UNL     1      26.836   3.277  51.462  1.00  0.00    -0.332 N 
HETATM   24  H11 UNL     1      27.567   4.020  51.674  1.00  0.00     0.168 HD
BRANCH  23  25
HETATM   25  C18 UNL     1      26.421   3.577  50.133  1.00  0.00     0.353 C 
HETATM   26  O2  UNL     1      26.039   4.705  49.673  1.00  0.00    -0.283 OA
ENDBRANCH  23  25
ENDBRANCH  12  23
BRANCH   1  27
HETATM   27  O1  UNL     1      28.243   1.170  52.599  1.00  0.00    -0.354 OA
HETATM   28  C1  UNL     1      28.985   0.758  53.729  1.00  0.00     0.210 C 
ENDBRANCH   1  27
TORSDOF 5
ENDMDL
MODEL 9
REMARK VINA RESULT:      -7.5      3.709      5.886
REMARK  5 active torsions:
REMARK  status: ('A' for Active; 'I' for Inactive)
REMARK    1  A    between atoms: O1_2  and  C2_3 
REMARK    2  A    between atoms: C8_11  and  N3_12 
REMARK    3  A    between atoms: N3_12  and  C9_13 
REMARK    4  A    between atoms: C17_23  and  N4_24 
REMARK    5  A    between atoms: N4_24  and  C18_25 
ROOT
HETATM    1  C2  UNL     1      25.823   0.224  53.814  1.00  0.00     0.097 A 
HETATM    2  C3  UNL     1      24.638  -0.343  53.390  1.00  0.00     0.071 A 
HETATM    3  C4  UNL     1      23.624   0.487  52.956  1.00  0.00     0.071 A 
HETATM    4  N1  UNL     1      22.461  -0.068  52.541  1.00  0.00    -0.259 NA
HETATM    5  C5  UNL     1      21.413   0.668  52.098  1.00  0.00     0.142 A 
HETATM    6  C6  UNL     1      21.495   2.048  52.056  1.00  0.00     0.089 A 
HETATM    7  C7  UNL     1      20.441   2.917  51.605  1.00  0.00     0.103 C 
HETATM    8  N2  UNL     1      19.590   3.593  51.242  1.00  0.00    -0.191 NA
HETATM    9  C8  UNL     1      22.674   2.631  52.477  1.00  0.00     0.067 A 
HETATM   10  C15 UNL     1      23.734   1.861  52.924  1.00  0.00     0.023 A 
HETATM   11  C16 UNL     1      24.923   2.429  53.350  1.00  0.00     0.048 A 
HETATM   12  C17 UNL     1      25.937   1.599  53.783  1.00  0.00     0.069 A 
ENDROOT
BRANCH   9  13
HETATM   13  N3  UNL     1      22.901   4.048  52.488  1.00  0.00    -0.354 N 
HETATM   14  H6  UNL     1      22.676   4.684  53.286  1.00  0.00     0.166 HD
BRANCH  13  15
HETATM   15  C9  UNL     1      23.478   4.642  51.325  1.00  0.00     0.034 A 
HETATM   16  C10 UNL     1      23.675   3.949  50.160  1.00  0.00     0.032 A 
HETATM   17  C11 UNL     1      24.234   4.546  49.048  1.00  0.00     0.046 A 
HETATM   18  C12 UNL     1      24.620   5.871  49.062  1.00  0.00     0.138 A 
HETATM   19  F1  UNL     1      25.176   6.558  48.037  1.00  0.00    -0.204 F 
HETATM   20  C13 UNL     1      24.437   6.603  50.219  1.00  0.00     0.074 A 
HETATM   21 CL1  UNL     1      24.882   8.300  50.380  1.00  0.00    -0.081 Cl
HETATM   22  C14 UNL     1      23.872   5.955  51.302  1.00  0.00     0.056 A 
ENDBRANCH  13  15
ENDBRANCH   9  13
BRANCH  12  23
HETATM   23  N4  UNL     1      27.117   2.276  54.200  1.00  0.00    -0.332 N 
HETATM   24  H11 UNL     1      27.575   2.723  55.051  1.00  0.00     0.168 HD
BRANCH  23  25
HETATM   25  C18 UNL     1      28.076   2.458  53.163  1.00  0.00     0.353 C 
HETATM   26  O2  UNL     1      29.135   1.775  52.952  1.00  0.00    -0.283 OA
ENDBRANCH  23  25
ENDBRANCH  12  23
BRANCH   1  27
HETATM   27  O1  UNL     1      26.911  -0.492  54.270  1.00  0.00    -0.354 OA
HETATM   28  C1  UNL     1      27.715  -1.229  53.370  1.00  0.00     0.210 C 
ENDBRANCH   1  27
TORSDOF 5
ENDMDL
