MODEL 1
REMARK VINA RESULT:      -7.7      0.000      0.000
REMARK  1 active torsions:
REMARK  status: ('A' for Active; 'I' for Inactive)
REMARK       I    between atoms: C2_2  and  N1_4 
REMARK    1  A    between atoms: N1_4  and  C3_5 
REMARK       I    between atoms: C6_10  and  N4_11 
ROOT
HETATM    1  C3  UNL     1      26.339   0.613  52.203  1.00  0.00     0.091 C 
HETATM    2  C4  UNL     1      26.485   1.665  51.416  1.00  0.00    -0.022 C 
HETATM    3  C5  UNL     1      26.616   2.601  50.742  1.00  0.00     0.066 C 
HETATM    4  N2  UNL     1      26.751   3.636  50.021  1.00  0.00    -0.080 NA
HETATM    5  N3  UNL     1      25.821   4.588  50.021  1.00  0.00     0.053 NA
HETATM    6  C6  UNL     1      24.709   4.467  50.807  1.00  0.00     0.743 C 
HETATM    7  N4  UNL     1      24.013   5.669  51.143  1.00  0.00    -0.207 N 
HETATM    8  C7  UNL     1      22.833   5.765  51.949  1.00  0.00     0.171 C 
HETATM    9  C8  UNL     1      21.662   6.144  51.108  1.00  0.00     0.032 C 
HETATM   10  C9  UNL     1      22.014   7.217  50.403  1.00  0.00     0.111 C 
HETATM   11  F1  UNL     1      21.077   7.748  49.547  1.00  0.00    -0.209 F 
HETATM   12  C10 UNL     1      23.328   7.928  50.431  1.00  0.00     0.162 C 
HETATM   13 CL1  UNL     1      23.625   8.693  48.838  1.00  0.00    -0.116 Cl
HETATM   14  C11 UNL     1      24.450   6.963  50.682  1.00  0.00     0.169 C 
HETATM   15  N5  UNL     1      24.205   3.313  51.295  1.00  0.00    -0.074 NA
HETATM   16  C12 UNL     1      24.374   2.875  52.544  1.00  0.00     0.136 C 
HETATM   17  C13 UNL     1      24.139   1.544  52.827  1.00  0.00     0.023 C 
HETATM   18  C14 UNL     1      24.989   0.578  52.278  1.00  0.00     0.040 C 
ENDROOT
BRANCH   1  19
HETATM   19  N1  UNL     1      27.434  -0.119  52.704  1.00  0.00    -0.320 N 
HETATM   20  C2  UNL     1      27.958   0.410  53.911  1.00  0.00     0.218 C 
HETATM   21  C1  UNL     1      29.134  -0.326  54.502  1.00  0.00     0.117 C 
HETATM   22  O1  UNL     1      27.389   1.432  54.357  1.00  0.00    -0.274 OA
HETATM   23  H4  UNL     1      27.751  -0.948  52.167  1.00  0.00     0.169 HD
ENDBRANCH   1  19
TORSDOF 1
ENDMDL
MODEL 2
REMARK VINA RESULT:      -7.6      4.045      5.060
REMARK  1 active torsions:
REMARK  status: ('A' for Active; 'I' for Inactive)
REMARK       I    between atoms: C2_2  and  N1_4 
REMARK    1  A    between atoms: N1_4  and  C3_5 
REMARK       I    between atoms: C6_10  and  N4_11 
ROOT
HETATM    1  C3  UNL     1      26.164   0.777  52.986  1.00  0.00     0.091 C 
HETATM    2  C4  UNL     1      25.001   0.161  53.110  1.00  0.00    -0.022 C 
HETATM    3  C5  UNL     1      23.979  -0.382  53.198  1.00  0.00     0.066 C 
HETATM    4  N2  UNL     1      22.856  -0.967  53.275  1.00  0.00    -0.080 NA
HETATM    5  N3  UNL     1      21.745  -0.359  52.868  1.00  0.00     0.053 NA
HETATM    6  C6  UNL     1      21.801   0.906  52.351  1.00  0.00     0.743 C 
HETATM    7  N4  UNL     1      20.721   1.314  51.508  1.00  0.00    -0.207 N 
HETATM    8  C7  UNL     1      20.584   2.588  50.869  1.00  0.00     0.171 C 
HETATM    9  C8  UNL     1      19.474   3.364  51.494  1.00  0.00     0.032 C 
HETATM   10  C9  UNL     1      18.405   2.570  51.519  1.00  0.00     0.111 C 
HETATM   11  F1  UNL     1      17.249   3.083  52.059  1.00  0.00    -0.209 F 
HETATM   12  C10 UNL     1      18.309   1.165  51.022  1.00  0.00     0.162 C 
HETATM   13 CL1  UNL     1      17.070   0.282  51.969  1.00  0.00    -0.116 Cl
HETATM   14  C11 UNL     1      19.612   0.444  51.205  1.00  0.00     0.169 C 
HETATM   15  N5  UNL     1      22.783   1.808  52.564  1.00  0.00    -0.074 NA
HETATM   16  C12 UNL     1      23.766   2.082  51.705  1.00  0.00     0.136 C 
HETATM   17  C13 UNL     1      24.897   2.729  52.162  1.00  0.00     0.023 C 
HETATM   18  C14 UNL     1      25.742   2.061  53.053  1.00  0.00     0.040 C 
ENDROOT
BRANCH   1  19
HETATM   19  N1  UNL     1      27.381   0.083  52.838  1.00  0.00    -0.320 N 
HETATM   20  C2  UNL     1      28.172   0.076  54.016  1.00  0.00     0.218 C 
HETATM   21  C1  UNL     1      29.489  -0.650  53.925  1.00  0.00     0.117 C 
HETATM   22  O1  UNL     1      27.690   0.676  55.004  1.00  0.00    -0.274 OA
HETATM   23  H4  UNL     1      27.586  -0.347  51.916  1.00  0.00     0.169 HD
ENDBRANCH   1  19
TORSDOF 1
ENDMDL
MODEL 3
REMARK VINA RESULT:      -7.5      4.547      6.522
REMARK  1 active torsions:
REMARK  status: ('A' for Active; 'I' for Inactive)
REMARK       I    between atoms: C2_2  and  N1_4 
REMARK    1  A    between atoms: N1_4  and  C3_5 
REMARK       I    between atoms: C6_10  and  N4_11 
ROOT
HETATM    1  C3  UNL     1      25.921   4.379  49.321  1.00  0.00     0.091 C 
HETATM    2  C4  UNL     1      24.665   3.977  49.399  1.00  0.00    -0.022 C 
HETATM    3  C5  UNL     1      23.559   3.634  49.485  1.00  0.00     0.066 C 
HETATM    4  N2  UNL     1      22.353   3.259  49.601  1.00  0.00    -0.080 NA
HETATM    5  N3  UNL     1      22.006   2.366  50.524  1.00  0.00     0.053 NA
HETATM    6  C6  UNL     1      22.947   1.846  51.369  1.00  0.00     0.743 C 
HETATM    7  N4  UNL     1      22.483   1.298  52.606  1.00  0.00    -0.207 N 
HETATM    8  C7  UNL     1      23.295   0.708  53.625  1.00  0.00     0.171 C 
HETATM    9  C8  UNL     1      23.062  -0.764  53.685  1.00  0.00     0.032 C 
HETATM   10  C9  UNL     1      21.746  -0.951  53.762  1.00  0.00     0.111 C 
HETATM   11  F1  UNL     1      21.293  -2.248  53.829  1.00  0.00    -0.209 F 
HETATM   12  C10 UNL     1      20.682   0.098  53.786  1.00  0.00     0.162 C 
HETATM   13 CL1  UNL     1      19.177  -0.563  53.073  1.00  0.00    -0.116 Cl
HETATM   14  C11 UNL     1      21.086   1.286  52.963  1.00  0.00     0.169 C 
HETATM   15  N5  UNL     1      24.277   1.801  51.143  1.00  0.00    -0.074 NA
HETATM   16  C12 UNL     1      25.170   2.642  51.669  1.00  0.00     0.136 C 
HETATM   17  C13 UNL     1      26.422   2.737  51.096  1.00  0.00     0.023 C 
HETATM   18  C14 UNL     1      26.536   3.278  49.811  1.00  0.00     0.040 C 
ENDROOT
BRANCH   1  19
HETATM   19  N1  UNL     1      26.285   5.648  48.828  1.00  0.00    -0.320 N 
HETATM   20  C2  UNL     1      27.636   5.721  48.405  1.00  0.00     0.218 C 
HETATM   21  C1  UNL     1      28.091   7.053  47.866  1.00  0.00     0.117 C 
HETATM   22  O1  UNL     1      28.307   4.670  48.524  1.00  0.00    -0.274 OA
HETATM   23  H4  UNL     1      25.561   6.391  48.819  1.00  0.00     0.169 HD
ENDBRANCH   1  19
TORSDOF 1
ENDMDL
MODEL 4
REMARK VINA RESULT:      -7.2      4.655      7.324
REMARK  1 active torsions:
REMARK  status: ('A' for Active; 'I' for Inactive)
REMARK       I    between atoms: C2_2  and  N1_4 
REMARK    1  A    between atoms: N1_4  and  C3_5 
REMARK       I    between atoms: C6_10  and  N4_11 
ROOT
HETATM    1  C3  UNL     1      20.007   2.603  51.310  1.00  0.00     0.091 C 
HETATM    2  C4  UNL     1      21.160   3.197  51.561  1.00  0.00    -0.022 C 
HETATM    3  C5  UNL     1      22.182   3.709  51.766  1.00  0.00     0.066 C 
HETATM    4  N2  UNL     1      23.309   4.251  51.980  1.00  0.00    -0.080 NA
HETATM    5  N3  UNL     1      24.343   3.524  52.395  1.00  0.00     0.053 NA
HETATM    6  C6  UNL     1      24.207   2.177  52.586  1.00  0.00     0.743 C 
HETATM    7  N4  UNL     1      25.400   1.389  52.551  1.00  0.00    -0.207 N 
HETATM    8  C7  UNL     1      25.480  -0.029  52.727  1.00  0.00     0.171 C 
HETATM    9  C8  UNL     1      26.133  -0.353  54.027  1.00  0.00     0.032 C 
HETATM   10  C9  UNL     1      27.270   0.338  54.079  1.00  0.00     0.111 C 
HETATM   11  F1  UNL     1      28.049   0.193  55.204  1.00  0.00    -0.209 F 
HETATM   12  C10 UNL     1      27.812   1.269  53.044  1.00  0.00     0.162 C 
HETATM   13 CL1  UNL     1      28.814   2.525  53.838  1.00  0.00    -0.116 Cl
HETATM   14  C11 UNL     1      26.698   1.972  52.324  1.00  0.00     0.169 C 
HETATM   15  N5  UNL     1      23.048   1.520  52.807  1.00  0.00    -0.074 NA
HETATM   16  C12 UNL     1      22.375   0.829  51.886  1.00  0.00     0.136 C 
HETATM   17  C13 UNL     1      21.050   0.516  52.115  1.00  0.00     0.023 C 
HETATM   18  C14 UNL     1      20.110   1.551  52.153  1.00  0.00     0.040 C 
ENDROOT
BRANCH   1  19
HETATM   19  N1  UNL     1      19.078   3.110  50.379  1.00  0.00    -0.320 N 
HETATM   20  C2  UNL     1      19.221   2.554  49.082  1.00  0.00     0.218 C 
HETATM   21  C1  UNL     1      18.258   3.054  48.036  1.00  0.00     0.117 C 
HETATM   22  O1  UNL     1      20.133   1.706  48.945  1.00  0.00    -0.274 OA
HETATM   23  H4  UNL     1      18.397   3.820  50.709  1.00  0.00     0.169 HD
ENDBRANCH   1  19
TORSDOF 1
ENDMDL
MODEL 5
REMARK VINA RESULT:      -6.9      1.596      1.863
REMARK  1 active torsions:
REMARK  status: ('A' for Active; 'I' for Inactive)
REMARK       I    between atoms: C2_2  and  N1_4 
REMARK    1  A    between atoms: N1_4  and  C3_5 
REMARK       I    between atoms: C6_10  and  N4_11 
ROOT
HETATM    1  C3  UNL     1      25.941   0.064  52.747  1.00  0.00     0.091 C 
HETATM    2  C4  UNL     1      25.835   1.075  51.903  1.00  0.00    -0.022 C 
HETATM    3  C5  UNL     1      25.741   1.977  51.177  1.00  0.00     0.066 C 
HETATM    4  N2  UNL     1      25.626   2.972  50.400  1.00  0.00    -0.080 NA
HETATM    5  N3  UNL     1      24.480   3.644  50.323  1.00  0.00     0.053 NA
HETATM    6  C6  UNL     1      23.411   3.275  51.091  1.00  0.00     0.743 C 
HETATM    7  N4  UNL     1      22.412   4.267  51.341  1.00  0.00    -0.207 N 
HETATM    8  C7  UNL     1      21.221   4.090  52.114  1.00  0.00     0.171 C 
HETATM    9  C8  UNL     1      20.022   4.103  51.227  1.00  0.00     0.032 C 
HETATM   10  C9  UNL     1      20.106   5.193  50.468  1.00  0.00     0.111 C 
HETATM   11  F1  UNL     1      19.094   5.414  49.562  1.00  0.00    -0.209 F 
HETATM   12  C10 UNL     1      21.186   6.225  50.481  1.00  0.00     0.162 C 
HETATM   13 CL1  UNL     1      21.330   6.959  48.853  1.00  0.00    -0.116 Cl
HETATM   14  C11 UNL     1      22.512   5.605  50.813  1.00  0.00     0.169 C 
HETATM   15  N5  UNL     1      23.209   2.056  51.636  1.00  0.00    -0.074 NA
HETATM   16  C12 UNL     1      23.442   1.743  52.912  1.00  0.00     0.136 C 
HETATM   17  C13 UNL     1      23.554   0.414  53.268  1.00  0.00     0.023 C 
HETATM   18  C14 UNL     1      24.646  -0.322  52.796  1.00  0.00     0.040 C 
ENDROOT
BRANCH   1  19
HETATM   19  N1  UNL     1      27.171  -0.327  53.314  1.00  0.00    -0.320 N 
HETATM   20  C2  UNL     1      27.546   0.455  54.437  1.00  0.00     0.218 C 
HETATM   21  C1  UNL     1      28.853   0.090  55.092  1.00  0.00     0.117 C 
HETATM   22  O1  UNL     1      26.750   1.365  54.764  1.00  0.00    -0.274 OA
HETATM   23  H4  UNL     1      27.677  -1.120  52.878  1.00  0.00     0.169 HD
ENDBRANCH   1  19
TORSDOF 1
ENDMDL
MODEL 6
REMARK VINA RESULT:      -6.8      6.154      8.176
REMARK  1 active torsions:
REMARK  status: ('A' for Active; 'I' for Inactive)
REMARK       I    between atoms: C2_2  and  N1_4 
REMARK    1  A    between atoms: N1_4  and  C3_5 
REMARK       I    between atoms: C6_10  and  N4_11 
ROOT
HETATM    1  C3  UNL     1      25.189   6.357  48.691  1.00  0.00     0.091 C 
HETATM    2  C4  UNL     1      26.376   5.780  48.621  1.00  0.00    -0.022 C 
HETATM    3  C5  UNL     1      27.423   5.280  48.579  1.00  0.00     0.066 C 
HETATM    4  N2  UNL     1      28.575   4.750  48.545  1.00  0.00    -0.080 NA
HETATM    5  N3  UNL     1      29.666   5.505  48.449  1.00  0.00     0.053 NA
HETATM    6  C6  UNL     1      29.560   6.867  48.395  1.00  0.00     0.743 C 
HETATM    7  N4  UNL     1      30.710   7.627  48.776  1.00  0.00    -0.207 N 
HETATM    8  C7  UNL     1      30.811   9.055  48.791  1.00  0.00     0.171 C 
HETATM    9  C8  UNL     1      31.722   9.520  47.706  1.00  0.00     0.032 C 
HETATM   10  C9  UNL     1      32.851   8.823  47.815  1.00  0.00     0.111 C 
HETATM   11  F1  UNL     1      33.849   9.088  46.906  1.00  0.00    -0.209 F 
HETATM   12  C10 UNL     1      33.171   7.767  48.823  1.00  0.00     0.162 C 
HETATM   13 CL1  UNL     1      34.331   6.600  48.116  1.00  0.00    -0.116 Cl
HETATM   14  C11 UNL     1      31.937   7.001  49.201  1.00  0.00     0.169 C 
HETATM   15  N5  UNL     1      28.468   7.563  48.013  1.00  0.00    -0.074 NA
HETATM   16  C12 UNL     1      27.608   8.151  48.846  1.00  0.00     0.136 C 
HETATM   17  C13 UNL     1      26.359   8.509  48.380  1.00  0.00     0.023 C 
HETATM   18  C14 UNL     1      25.458   7.500  48.020  1.00  0.00     0.040 C 
ENDROOT
BRANCH   1  19
HETATM   19  N1  UNL     1      24.089   5.757  49.337  1.00  0.00    -0.320 N 
HETATM   20  C2  UNL     1      23.936   6.169  50.685  1.00  0.00     0.218 C 
HETATM   21  C1  UNL     1      22.777   5.564  51.436  1.00  0.00     0.117 C 
HETATM   22  O1  UNL     1      24.780   6.992  51.108  1.00  0.00    -0.274 OA
HETATM   23  H4  UNL     1      23.510   5.091  48.792  1.00  0.00     0.169 HD
ENDBRANCH   1  19
TORSDOF 1
ENDMDL
MODEL 7
REMARK VINA RESULT:      -6.6      4.321      6.578
REMARK  1 active torsions:
REMARK  status: ('A' for Active; 'I' for Inactive)
REMARK       I    between atoms: C2_2  and  N1_4 
REMARK    1  A    between atoms: N1_4  and  C3_5 
REMARK       I    between atoms: C6_10  and  N4_11 
ROOT
HETATM    1  C3  UNL     1      27.551   7.713  49.107  1.00  0.00     0.091 C 
HETATM    2  C4  UNL     1      26.363   7.717  49.684  1.00  0.00    -0.022 C 
HETATM    3  C5  UNL     1      25.326   7.709  50.207  1.00  0.00     0.066 C 
HETATM    4  N2  UNL     1      24.199   7.682  50.787  1.00  0.00    -0.080 NA
HETATM    5  N3  UNL     1      23.511   6.547  50.880  1.00  0.00     0.053 NA
HETATM    6  C6  UNL     1      24.018   5.389  50.358  1.00  0.00     0.743 C 
HETATM    7  N4  UNL     1      23.513   4.159  50.886  1.00  0.00    -0.207 N 
HETATM    8  C7  UNL     1      23.906   2.843  50.482  1.00  0.00     0.171 C 
HETATM    9  C8  UNL     1      22.796   2.177  49.742  1.00  0.00     0.032 C 
HETATM   10  C9  UNL     1      21.700   2.290  50.490  1.00  0.00     0.111 C 
HETATM   11  F1  UNL     1      20.539   1.740  49.999  1.00  0.00    -0.209 F 
HETATM   12  C10 UNL     1      21.578   2.953  51.823  1.00  0.00     0.162 C 
HETATM   13 CL1  UNL     1      19.912   3.580  52.027  1.00  0.00    -0.116 Cl
HETATM   14  C11 UNL     1      22.514   4.123  51.924  1.00  0.00     0.169 C 
HETATM   15  N5  UNL     1      24.952   5.298  49.387  1.00  0.00    -0.074 NA
HETATM   16  C12 UNL     1      26.244   5.039  49.593  1.00  0.00     0.136 C 
HETATM   17  C13 UNL     1      27.155   5.330  48.598  1.00  0.00     0.023 C 
HETATM   18  C14 UNL     1      27.385   6.668  48.263  1.00  0.00     0.040 C 
ENDROOT
BRANCH   1  19
HETATM   19  N1  UNL     1      28.560   8.639  49.437  1.00  0.00    -0.320 N 
HETATM   20  C2  UNL     1      28.636   9.733  48.538  1.00  0.00     0.218 C 
HETATM   21  C1  UNL     1      29.697  10.763  48.834  1.00  0.00     0.117 C 
HETATM   22  O1  UNL     1      27.814   9.726  47.593  1.00  0.00    -0.274 OA
HETATM   23  H4  UNL     1      29.139   8.448  50.277  1.00  0.00     0.169 HD
ENDBRANCH   1  19
TORSDOF 1
ENDMDL
MODEL 8
REMARK VINA RESULT:      -6.6      5.313      7.793
REMARK  1 active torsions:
REMARK  status: ('A' for Active; 'I' for Inactive)
REMARK       I    between atoms: C2_2  and  N1_4 
REMARK    1  A    between atoms: N1_4  and  C3_5 
REMARK       I    between atoms: C6_10  and  N4_11 
ROOT
HETATM    1  C3  UNL     1      19.078   1.172  51.137  1.00  0.00     0.091 C 
HETATM    2  C4  UNL     1      19.862   0.778  52.125  1.00  0.00    -0.022 C 
HETATM    3  C5  UNL     1      20.555   0.452  52.998  1.00  0.00     0.066 C 
HETATM    4  N2  UNL     1      21.325   0.113  53.947  1.00  0.00    -0.080 NA
HETATM    5  N3  UNL     1      22.642   0.270  53.841  1.00  0.00     0.053 NA
HETATM    6  C6  UNL     1      23.184   0.809  52.708  1.00  0.00     0.743 C 
HETATM    7  N4  UNL     1      24.483   1.395  52.820  1.00  0.00    -0.207 N 
HETATM    8  C7  UNL     1      25.226   2.009  51.762  1.00  0.00     0.171 C 
HETATM    9  C8  UNL     1      26.399   1.164  51.395  1.00  0.00     0.032 C 
HETATM   10  C9  UNL     1      27.050   0.884  52.522  1.00  0.00     0.111 C 
HETATM   11  F1  UNL     1      28.181   0.107  52.424  1.00  0.00    -0.209 F 
HETATM   12  C10 UNL     1      26.695   1.321  53.906  1.00  0.00     0.162 C 
HETATM   13 CL1  UNL     1      27.279   0.103  55.084  1.00  0.00    -0.116 Cl
HETATM   14  C11 UNL     1      25.206   1.424  54.067  1.00  0.00     0.169 C 
HETATM   15  N5  UNL     1      22.604   0.840  51.488  1.00  0.00    -0.074 NA
HETATM   16  C12 UNL     1      21.998   1.903  50.958  1.00  0.00     0.136 C 
HETATM   17  C13 UNL     1      21.138   1.724  49.893  1.00  0.00     0.023 C 
HETATM   18  C14 UNL     1      19.939   1.034  50.103  1.00  0.00     0.040 C 
ENDROOT
BRANCH   1  19
HETATM   19  N1  UNL     1      17.744   1.578  51.340  1.00  0.00    -0.320 N 
HETATM   20  C2  UNL     1      17.616   2.955  51.652  1.00  0.00     0.218 C 
HETATM   21  C1  UNL     1      16.214   3.456  51.883  1.00  0.00     0.117 C 
HETATM   22  O1  UNL     1      18.684   3.609  51.703  1.00  0.00    -0.274 OA
HETATM   23  H4  UNL     1      16.999   0.861  51.249  1.00  0.00     0.169 HD
ENDBRANCH   1  19
TORSDOF 1
ENDMDL
MODEL 9
REMARK VINA RESULT:      -6.6      4.415      5.812
REMARK  1 active torsions:
REMARK  status: ('A' for Active; 'I' for Inactive)
REMARK       I    between atoms: C2_2  and  N1_4 
REMARK    1  A    between atoms: N1_4  and  C3_5 
REMARK       I    between atoms: C6_10  and  N4_11 
ROOT
HETATM    1  C3  UNL     1      24.825   3.956  49.695  1.00  0.00     0.091 C 
HETATM    2  C4  UNL     1      26.045   4.256  49.286  1.00  0.00    -0.022 C 
HETATM    3  C5  UNL     1      27.121   4.527  48.945  1.00  0.00     0.066 C 
HETATM    4  N2  UNL     1      28.296   4.841  48.586  1.00  0.00    -0.080 NA
HETATM    5  N3  UNL     1      28.636   6.116  48.419  1.00  0.00     0.053 NA
HETATM    6  C6  UNL     1      27.723   7.109  48.641  1.00  0.00     0.743 C 
HETATM    7  N4  UNL     1      28.233   8.415  48.923  1.00  0.00    -0.207 N 
HETATM    8  C7  UNL     1      27.454   9.587  49.183  1.00  0.00     0.171 C 
HETATM    9  C8  UNL     1      27.566  10.546  48.046  1.00  0.00     0.032 C 
HETATM   10  C9  UNL     1      28.864  10.712  47.797  1.00  0.00     0.111 C 
HETATM   11  F1  UNL     1      29.209  11.565  46.776  1.00  0.00    -0.209 F 
HETATM   12  C10 UNL     1      30.011  10.071  48.508  1.00  0.00     0.162 C 
HETATM   13 CL1  UNL     1      31.395   9.910  47.382  1.00  0.00    -0.116 Cl
HETATM   14  C11 UNL     1      29.647   8.692  48.974  1.00  0.00     0.169 C 
HETATM   15  N5  UNL     1      26.380   6.971  48.619  1.00  0.00    -0.074 NA
HETATM   16  C12 UNL     1      25.605   6.868  49.700  1.00  0.00     0.136 C 
HETATM   17  C13 UNL     1      24.325   6.370  49.565  1.00  0.00     0.023 C 
HETATM   18  C14 UNL     1      24.158   5.028  49.208  1.00  0.00     0.040 C 
ENDROOT
BRANCH   1  19
HETATM   19  N1  UNL     1      24.533   2.784  50.422  1.00  0.00    -0.320 N 
HETATM   20  C2  UNL     1      24.129   3.037  51.758  1.00  0.00     0.218 C 
HETATM   21  C1  UNL     1      23.803   1.826  52.593  1.00  0.00     0.117 C 
HETATM   22  O1  UNL     1      24.088   4.241  52.101  1.00  0.00    -0.274 OA
HETATM   23  H4  UNL     1      24.636   1.873  49.937  1.00  0.00     0.169 HD
ENDBRANCH   1  19
TORSDOF 1
ENDMDL
