MODEL 1
REMARK VINA RESULT:      -8.1      0.000      0.000
REMARK  7 active torsions:
REMARK  status: ('A' for Active; 'I' for Inactive)
REMARK    1  A    between atoms: O1_1  and  C1_2 
REMARK    2  A    between atoms: C3_5  and  C4_6 
REMARK    3  A    between atoms: C4_6  and  N1_7 
REMARK    4  A    between atoms: C5_9  and  C6_10 
REMARK    5  A    between atoms: C13_18  and  C14_19 
REMARK    6  A    between atoms: C14_19  and  C15_20 
REMARK    7  A    between atoms: C16_21  and  C17_22 
ROOT
HETATM    1  N1  UNL     1      25.007   2.667  51.319  1.00  0.00    -0.294 N 
HETATM    2  N2  UNL     1      26.309   2.202  51.582  1.00  0.00    -0.180 NA
HETATM    3  C5  UNL     1      26.279   1.166  52.369  1.00  0.00     0.066 C 
HETATM    4  C12 UNL     1      24.848   0.863  52.699  1.00  0.00     0.089 C 
HETATM    5  C13 UNL     1      24.260   2.268  52.511  1.00  0.00     0.114 C 
ENDROOT
BRANCH   1   6
HETATM    6  C4  UNL     1      24.633   3.352  50.125  1.00  0.00     0.212 C 
BRANCH   6   7
HETATM    7  C3  UNL     1      24.896   4.812  50.179  1.00  0.00     0.097 A 
HETATM    8  S1  UNL     1      26.168   5.553  49.144  1.00  0.00    -0.081 SA
HETATM    9  C2  UNL     1      25.835   7.299  49.812  1.00  0.00     0.109 A 
HETATM   10  C1  UNL     1      24.790   6.979  50.722  1.00  0.00     0.169 A 
HETATM   11  N3  UNL     1      24.363   5.740  50.867  1.00  0.00    -0.220 NA
BRANCH  10  12
HETATM   12  O1  UNL     1      24.111   7.904  51.546  1.00  0.00    -0.344 OA
HETATM   13  H1  UNL     1      24.103   8.888  51.387  1.00  0.00     0.219 HD
ENDBRANCH  10  12
ENDBRANCH   6   7
ENDBRANCH   1   6
BRANCH   5  14
HETATM   14  C14 UNL     1      22.786   2.213  52.249  1.00  0.00     0.054 C 
BRANCH  14  15
HETATM   15  C15 UNL     1      22.287   0.852  52.566  1.00  0.00    -0.027 C 
HETATM   16  C16 UNL     1      21.242   0.538  53.329  1.00  0.00    -0.016 C 
BRANCH  16  17
HETATM   17  C17 UNL     1      20.514  -0.653  53.824  1.00  0.00     0.141 C 
HETATM   18 CL1  UNL     1      21.681  -1.780  54.569  1.00  0.00    -0.126 Cl
ENDBRANCH  16  17
ENDBRANCH  14  15
ENDBRANCH   5  14
BRANCH   3  19
HETATM   19  C6  UNL     1      27.454   0.441  52.840  1.00  0.00    -0.010 A 
HETATM   20  C7  UNL     1      28.514   1.188  53.318  1.00  0.00     0.016 A 
HETATM   21  C8  UNL     1      29.601   0.463  53.750  1.00  0.00     0.043 A 
HETATM   22  C9  UNL     1      29.626  -0.902  53.709  1.00  0.00     0.116 A 
HETATM   23  F1  UNL     1      30.704  -1.571  54.139  1.00  0.00    -0.206 F 
HETATM   24  C10 UNL     1      28.555  -1.637  53.226  1.00  0.00     0.043 A 
HETATM   25  C11 UNL     1      27.460  -0.931  52.790  1.00  0.00     0.016 A 
ENDBRANCH   3  19
TORSDOF 7
ENDMDL
MODEL 2
REMARK VINA RESULT:      -8.0      4.081      6.469
REMARK  7 active torsions:
REMARK  status: ('A' for Active; 'I' for Inactive)
REMARK    1  A    between atoms: O1_1  and  C1_2 
REMARK    2  A    between atoms: C3_5  and  C4_6 
REMARK    3  A    between atoms: C4_6  and  N1_7 
REMARK    4  A    between atoms: C5_9  and  C6_10 
REMARK    5  A    between atoms: C13_18  and  C14_19 
REMARK    6  A    between atoms: C14_19  and  C15_20 
REMARK    7  A    between atoms: C16_21  and  C17_22 
ROOT
HETATM    1  N1  UNL     1      25.528   1.153  52.781  1.00  0.00    -0.294 N 
HETATM    2  N2  UNL     1      26.220   2.063  51.959  1.00  0.00    -0.180 NA
HETATM    3  C5  UNL     1      25.388   2.827  51.314  1.00  0.00     0.066 C 
HETATM    4  C12 UNL     1      23.992   2.439  51.699  1.00  0.00     0.089 C 
HETATM    5  C13 UNL     1      24.253   0.977  52.088  1.00  0.00     0.114 C 
ENDROOT
BRANCH   1   6
HETATM    6  C4  UNL     1      26.059   0.606  53.986  1.00  0.00     0.212 C 
BRANCH   6   7
HETATM    7  C3  UNL     1      27.257  -0.244  53.767  1.00  0.00     0.097 A 
HETATM    8  S1  UNL     1      28.911   0.424  54.007  1.00  0.00    -0.081 SA
HETATM    9  C2  UNL     1      29.748  -1.217  53.546  1.00  0.00     0.109 A 
HETATM   10  C1  UNL     1      28.578  -1.984  53.289  1.00  0.00     0.169 A 
HETATM   11  N3  UNL     1      27.374  -1.459  53.413  1.00  0.00    -0.220 NA
BRANCH  10  12
HETATM   12  O1  UNL     1      28.559  -3.338  52.890  1.00  0.00    -0.344 OA
HETATM   13  H1  UNL     1      28.887  -3.662  52.005  1.00  0.00     0.219 HD
ENDBRANCH  10  12
ENDBRANCH   6   7
ENDBRANCH   1   6
BRANCH   5  14
HETATM   14  C14 UNL     1      23.188   0.460  53.008  1.00  0.00     0.054 C 
BRANCH  14  15
HETATM   15  C15 UNL     1      21.884   0.480  52.301  1.00  0.00    -0.027 C 
HETATM   16  C16 UNL     1      20.693   0.168  52.808  1.00  0.00    -0.016 C 
BRANCH  16  17
HETATM   17  C17 UNL     1      19.271   0.086  52.400  1.00  0.00     0.141 C 
HETATM   18 CL1  UNL     1      18.496  -1.268  53.268  1.00  0.00    -0.126 Cl
ENDBRANCH  16  17
ENDBRANCH  14  15
ENDBRANCH   5  14
BRANCH   3  19
HETATM   19  C6  UNL     1      25.774   3.877  50.377  1.00  0.00    -0.010 A 
HETATM   20  C7  UNL     1      24.955   4.986  50.291  1.00  0.00     0.016 A 
HETATM   21  C8  UNL     1      25.358   5.950  49.394  1.00  0.00     0.043 A 
HETATM   22  C9  UNL     1      26.490   5.815  48.643  1.00  0.00     0.116 A 
HETATM   23  F1  UNL     1      26.847   6.777  47.781  1.00  0.00    -0.206 F 
HETATM   24  C10 UNL     1      27.301   4.696  48.740  1.00  0.00     0.043 A 
HETATM   25  C11 UNL     1      26.916   3.722  49.630  1.00  0.00     0.016 A 
ENDBRANCH   3  19
TORSDOF 7
ENDMDL
MODEL 3
REMARK VINA RESULT:      -8.0      3.871      6.105
REMARK  7 active torsions:
REMARK  status: ('A' for Active; 'I' for Inactive)
REMARK    1  A    between atoms: O1_1  and  C1_2 
REMARK    2  A    between atoms: C3_5  and  C4_6 
REMARK    3  A    between atoms: C4_6  and  N1_7 
REMARK    4  A    between atoms: C5_9  and  C6_10 
REMARK    5  A    between atoms: C13_18  and  C14_19 
REMARK    6  A    between atoms: C14_19  and  C15_20 
REMARK    7  A    between atoms: C16_21  and  C17_22 
ROOT
HETATM    1  N1  UNL     1      24.856   0.061  53.536  1.00  0.00    -0.294 N 
HETATM    2  N2  UNL     1      25.204   0.965  52.515  1.00  0.00    -0.180 NA
HETATM    3  C5  UNL     1      24.157   1.615  52.098  1.00  0.00     0.066 C 
HETATM    4  C12 UNL     1      22.965   1.144  52.876  1.00  0.00     0.089 C 
HETATM    5  C13 UNL     1      23.461  -0.262  53.238  1.00  0.00     0.114 C 
ENDROOT
BRANCH   1   6
HETATM    6  C4  UNL     1      25.749  -0.361  54.564  1.00  0.00     0.212 C 
BRANCH   6   7
HETATM    7  C3  UNL     1      27.157   0.044  54.322  1.00  0.00     0.097 A 
HETATM    8  S1  UNL     1      28.252  -0.989  53.335  1.00  0.00    -0.081 SA
HETATM    9  C2  UNL     1      29.719   0.199  53.539  1.00  0.00     0.109 A 
HETATM   10  C1  UNL     1      29.081   1.185  54.341  1.00  0.00     0.169 A 
HETATM   11  N3  UNL     1      27.818   1.063  54.700  1.00  0.00    -0.220 NA
BRANCH  10  12
HETATM   12  O1  UNL     1      29.690   2.361  54.830  1.00  0.00    -0.344 OA
HETATM   13  H1  UNL     1      30.196   3.004  54.259  1.00  0.00     0.219 HD
ENDBRANCH  10  12
ENDBRANCH   6   7
ENDBRANCH   1   6
BRANCH   5  14
HETATM   14  C14 UNL     1      22.747  -0.800  54.441  1.00  0.00     0.054 C 
BRANCH  14  15
HETATM   15  C15 UNL     1      21.313  -0.429  54.361  1.00  0.00    -0.027 C 
HETATM   16  C16 UNL     1      20.364  -1.043  53.657  1.00  0.00    -0.016 C 
BRANCH  16  17
HETATM   17  C17 UNL     1      18.915  -0.938  53.371  1.00  0.00     0.141 C 
HETATM   18 CL1  UNL     1      18.129  -2.489  53.778  1.00  0.00    -0.126 Cl
ENDBRANCH  16  17
ENDBRANCH  14  15
ENDBRANCH   5  14
BRANCH   3  19
HETATM   19  C6  UNL     1      24.168   2.627  51.046  1.00  0.00    -0.010 A 
HETATM   20  C7  UNL     1      25.398   3.045  50.578  1.00  0.00     0.016 A 
HETATM   21  C8  UNL     1      25.359   4.001  49.587  1.00  0.00     0.043 A 
HETATM   22  C9  UNL     1      24.183   4.498  49.103  1.00  0.00     0.116 A 
HETATM   23  F1  UNL     1      24.188   5.428  48.138  1.00  0.00    -0.206 F 
HETATM   24  C10 UNL     1      22.957   4.068  49.584  1.00  0.00     0.043 A 
HETATM   25  C11 UNL     1      22.974   3.114  50.573  1.00  0.00     0.016 A 
ENDBRANCH   3  19
TORSDOF 7
ENDMDL
MODEL 4
REMARK VINA RESULT:      -7.7      3.771      5.761
REMARK  7 active torsions:
REMARK  status: ('A' for Active; 'I' for Inactive)
REMARK    1  A    between atoms: O1_1  and  C1_2 
REMARK    2  A    between atoms: C3_5  and  C4_6 
REMARK    3  A    between atoms: C4_6  and  N1_7 
REMARK    4  A    between atoms: C5_9  and  C6_10 
REMARK    5  A    between atoms: C13_18  and  C14_19 
REMARK    6  A    between atoms: C14_19  and  C15_20 
REMARK    7  A    between atoms: C16_21  and  C17_22 
ROOT
HETATM    1  N1  UNL     1      23.950   2.076  51.986  1.00  0.00    -0.294 N 
HETATM    2  N2  UNL     1      24.814   1.168  52.627  1.00  0.00    -0.180 NA
HETATM    3  C5  UNL     1      26.047   1.371  52.265  1.00  0.00     0.066 C 
HETATM    4  C12 UNL     1      26.073   2.510  51.290  1.00  0.00     0.089 C 
HETATM    5  C13 UNL     1      24.647   2.380  50.738  1.00  0.00     0.114 C 
ENDROOT
BRANCH   1   6
HETATM    6  C4  UNL     1      22.710   2.516  52.536  1.00  0.00     0.212 C 
BRANCH   6   7
HETATM    7  C3  UNL     1      21.794   1.402  52.889  1.00  0.00     0.097 A 
HETATM    8  S1  UNL     1      20.310   1.093  51.919  1.00  0.00    -0.081 SA
HETATM    9  C2  UNL     1      19.795  -0.383  52.996  1.00  0.00     0.109 A 
HETATM   10  C1  UNL     1      20.879  -0.361  53.915  1.00  0.00     0.169 A 
HETATM   11  N3  UNL     1      21.840   0.538  53.821  1.00  0.00    -0.220 NA
BRANCH  10  12
HETATM   12  O1  UNL     1      21.057  -1.257  54.993  1.00  0.00    -0.344 OA
HETATM   13  H1  UNL     1      20.662  -1.121  55.899  1.00  0.00     0.219 HD
ENDBRANCH  10  12
ENDBRANCH   6   7
ENDBRANCH   1   6
BRANCH   5  14
HETATM   14  C14 UNL     1      24.174   3.670  50.139  1.00  0.00     0.054 C 
BRANCH  14  15
HETATM   15  C15 UNL     1      25.304   4.630  50.097  1.00  0.00    -0.027 C 
HETATM   16  C16 UNL     1      25.798   5.241  49.022  1.00  0.00    -0.016 C 
BRANCH  16  17
HETATM   17  C17 UNL     1      26.861   6.204  48.651  1.00  0.00     0.141 C 
HETATM   18 CL1  UNL     1      28.386   5.312  48.391  1.00  0.00    -0.126 Cl
ENDBRANCH  16  17
ENDBRANCH  14  15
ENDBRANCH   5  14
BRANCH   3  19
HETATM   19  C6  UNL     1      27.194   0.605  52.740  1.00  0.00    -0.010 A 
HETATM   20  C7  UNL     1      28.268   1.313  53.244  1.00  0.00     0.016 A 
HETATM   21  C8  UNL     1      29.327   0.549  53.680  1.00  0.00     0.043 A 
HETATM   22  C9  UNL     1      29.313  -0.815  53.618  1.00  0.00     0.116 A 
HETATM   23  F1  UNL     1      30.365  -1.523  54.053  1.00  0.00    -0.206 F 
HETATM   24  C10 UNL     1      28.228  -1.511  53.109  1.00  0.00     0.043 A 
HETATM   25  C11 UNL     1      27.160  -0.766  52.669  1.00  0.00     0.016 A 
ENDBRANCH   3  19
TORSDOF 7
ENDMDL
MODEL 5
REMARK VINA RESULT:      -7.6      3.722      5.474
REMARK  7 active torsions:
REMARK  status: ('A' for Active; 'I' for Inactive)
REMARK    1  A    between atoms: O1_1  and  C1_2 
REMARK    2  A    between atoms: C3_5  and  C4_6 
REMARK    3  A    between atoms: C4_6  and  N1_7 
REMARK    4  A    between atoms: C5_9  and  C6_10 
REMARK    5  A    between atoms: C13_18  and  C14_19 
REMARK    6  A    between atoms: C14_19  and  C15_20 
REMARK    7  A    between atoms: C16_21  and  C17_22 
ROOT
HETATM    1  N1  UNL     1      24.052   1.709  51.771  1.00  0.00    -0.294 N 
HETATM    2  N2  UNL     1      25.172   0.858  51.816  1.00  0.00    -0.180 NA
HETATM    3  C5  UNL     1      25.977   1.203  52.778  1.00  0.00     0.066 C 
HETATM    4  C12 UNL     1      25.393   2.392  53.480  1.00  0.00     0.089 C 
HETATM    5  C13 UNL     1      24.561   2.963  52.323  1.00  0.00     0.114 C 
ENDROOT
BRANCH   1   6
HETATM    6  C4  UNL     1      22.773   1.315  51.279  1.00  0.00     0.212 C 
BRANCH   6   7
HETATM    7  C3  UNL     1      21.976   0.542  52.265  1.00  0.00     0.097 A 
HETATM    8  S1  UNL     1      20.195   0.370  52.071  1.00  0.00    -0.081 SA
HETATM    9  C2  UNL     1      20.025  -0.678  53.645  1.00  0.00     0.109 A 
HETATM   10  C1  UNL     1      21.394  -0.699  54.032  1.00  0.00     0.169 A 
HETATM   11  N3  UNL     1      22.317  -0.084  53.319  1.00  0.00    -0.220 NA
BRANCH  10  12
HETATM   12  O1  UNL     1      21.912  -1.352  55.172  1.00  0.00    -0.344 OA
HETATM   13  H1  UNL     1      21.467  -2.123  55.621  1.00  0.00     0.219 HD
ENDBRANCH  10  12
ENDBRANCH   6   7
ENDBRANCH   1   6
BRANCH   5  14
HETATM   14  C14 UNL     1      23.453   3.838  52.827  1.00  0.00     0.054 C 
BRANCH  14  15
HETATM   15  C15 UNL     1      23.413   5.083  52.022  1.00  0.00    -0.027 C 
HETATM   16  C16 UNL     1      24.176   5.384  50.973  1.00  0.00    -0.016 C 
BRANCH  16  17
HETATM   17  C17 UNL     1      24.384   6.479  49.997  1.00  0.00     0.141 C 
HETATM   18 CL1  UNL     1      23.910   8.027  50.750  1.00  0.00    -0.126 Cl
ENDBRANCH  16  17
ENDBRANCH  14  15
ENDBRANCH   5  14
BRANCH   3  19
HETATM   19  C6  UNL     1      27.231   0.531  53.100  1.00  0.00    -0.010 A 
HETATM   20  C7  UNL     1      28.261   1.308  53.594  1.00  0.00     0.016 A 
HETATM   21  C8  UNL     1      29.425   0.632  53.882  1.00  0.00     0.043 A 
HETATM   22  C9  UNL     1      29.549  -0.715  53.692  1.00  0.00     0.116 A 
HETATM   23  F1  UNL     1      30.700  -1.335  53.985  1.00  0.00    -0.206 F 
HETATM   24  C10 UNL     1      28.507  -1.480  53.195  1.00  0.00     0.043 A 
HETATM   25  C11 UNL     1      27.336  -0.824  52.901  1.00  0.00     0.016 A 
ENDBRANCH   3  19
TORSDOF 7
ENDMDL
MODEL 6
REMARK VINA RESULT:      -7.6      1.049      1.461
REMARK  7 active torsions:
REMARK  status: ('A' for Active; 'I' for Inactive)
REMARK    1  A    between atoms: O1_1  and  C1_2 
REMARK    2  A    between atoms: C3_5  and  C4_6 
REMARK    3  A    between atoms: C4_6  and  N1_7 
REMARK    4  A    between atoms: C5_9  and  C6_10 
REMARK    5  A    between atoms: C13_18  and  C14_19 
REMARK    6  A    between atoms: C14_19  and  C15_20 
REMARK    7  A    between atoms: C16_21  and  C17_22 
ROOT
HETATM    1  N1  UNL     1      24.759   2.717  51.132  1.00  0.00    -0.294 N 
HETATM    2  N2  UNL     1      26.050   2.190  51.321  1.00  0.00    -0.180 NA
HETATM    3  C5  UNL     1      26.065   1.350  52.315  1.00  0.00     0.066 C 
HETATM    4  C12 UNL     1      24.680   1.266  52.885  1.00  0.00     0.089 C 
HETATM    5  C13 UNL     1      24.170   2.653  52.469  1.00  0.00     0.114 C 
ENDROOT
BRANCH   1   6
HETATM    6  C4  UNL     1      24.262   3.173  49.876  1.00  0.00     0.212 C 
BRANCH   6   7
HETATM    7  C3  UNL     1      24.589   4.593  49.593  1.00  0.00     0.097 A 
HETATM    8  S1  UNL     1      23.509   5.595  48.559  1.00  0.00    -0.081 SA
HETATM    9  C2  UNL     1      24.610   7.133  48.728  1.00  0.00     0.109 A 
HETATM   10  C1  UNL     1      25.619   6.578  49.562  1.00  0.00     0.169 A 
HETATM   11  N3  UNL     1      25.564   5.322  49.962  1.00  0.00    -0.220 NA
BRANCH  10  12
HETATM   12  O1  UNL     1      26.752   7.269  50.046  1.00  0.00    -0.344 OA
HETATM   13  H1  UNL     1      27.016   7.300  51.007  1.00  0.00     0.219 HD
ENDBRANCH  10  12
ENDBRANCH   6   7
ENDBRANCH   1   6
BRANCH   5  14
HETATM   14  C14 UNL     1      22.673   2.690  52.418  1.00  0.00     0.054 C 
BRANCH  14  15
HETATM   15  C15 UNL     1      22.144   1.324  52.650  1.00  0.00    -0.027 C 
HETATM   16  C16 UNL     1      20.993   0.998  53.235  1.00  0.00    -0.016 C 
BRANCH  16  17
HETATM   17  C17 UNL     1      20.207  -0.201  53.606  1.00  0.00     0.141 C 
HETATM   18 CL1  UNL     1      21.240  -1.300  54.560  1.00  0.00    -0.126 Cl
ENDBRANCH  16  17
ENDBRANCH  14  15
ENDBRANCH   5  14
BRANCH   3  19
HETATM   19  C6  UNL     1      27.244   0.626  52.778  1.00  0.00    -0.010 A 
HETATM   20  C7  UNL     1      27.220  -0.752  52.687  1.00  0.00     0.016 A 
HETATM   21  C8  UNL     1      28.353  -1.393  53.136  1.00  0.00     0.043 A 
HETATM   22  C9  UNL     1      29.424  -0.710  53.636  1.00  0.00     0.116 A 
HETATM   23  F1  UNL     1      30.508  -1.372  54.063  1.00  0.00    -0.206 F 
HETATM   24  C10 UNL     1      29.432   0.673  53.721  1.00  0.00     0.043 A 
HETATM   25  C11 UNL     1      28.311   1.331  53.278  1.00  0.00     0.016 A 
ENDBRANCH   3  19
TORSDOF 7
ENDMDL
MODEL 7
REMARK VINA RESULT:      -7.6      1.739      2.041
REMARK  7 active torsions:
REMARK  status: ('A' for Active; 'I' for Inactive)
REMARK    1  A    between atoms: O1_1  and  C1_2 
REMARK    2  A    between atoms: C3_5  and  C4_6 
REMARK    3  A    between atoms: C4_6  and  N1_7 
REMARK    4  A    between atoms: C5_9  and  C6_10 
REMARK    5  A    between atoms: C13_18  and  C14_19 
REMARK    6  A    between atoms: C14_19  and  C15_20 
REMARK    7  A    between atoms: C16_21  and  C17_22 
ROOT
HETATM    1  N1  UNL     1      24.763   2.430  51.217  1.00  0.00    -0.294 N 
HETATM    2  N2  UNL     1      26.082   2.009  51.471  1.00  0.00    -0.180 NA
HETATM    3  C5  UNL     1      26.095   1.015  52.312  1.00  0.00     0.066 C 
HETATM    4  C12 UNL     1      24.679   0.698  52.691  1.00  0.00     0.089 C 
HETATM    5  C13 UNL     1      24.054   2.078  52.445  1.00  0.00     0.114 C 
ENDROOT
BRANCH   1   6
HETATM    6  C4  UNL     1      24.346   3.044  49.999  1.00  0.00     0.212 C 
BRANCH   6   7
HETATM    7  C3  UNL     1      25.270   4.107  49.529  1.00  0.00     0.097 A 
HETATM    8  S1  UNL     1      24.631   5.682  48.936  1.00  0.00    -0.081 SA
HETATM    9  C2  UNL     1      26.366   6.362  48.575  1.00  0.00     0.109 A 
HETATM   10  C1  UNL     1      27.125   5.231  48.985  1.00  0.00     0.169 A 
HETATM   11  N3  UNL     1      26.539   4.144  49.448  1.00  0.00    -0.220 NA
BRANCH  10  12
HETATM   12  O1  UNL     1      28.534   5.134  48.950  1.00  0.00    -0.344 OA
HETATM   13  H1  UNL     1      29.083   5.308  48.136  1.00  0.00     0.219 HD
ENDBRANCH  10  12
ENDBRANCH   6   7
ENDBRANCH   1   6
BRANCH   5  14
HETATM   14  C14 UNL     1      22.576   1.975  52.223  1.00  0.00     0.054 C 
BRANCH  14  15
HETATM   15  C15 UNL     1      22.089   0.689  52.780  1.00  0.00    -0.027 C 
HETATM   16  C16 UNL     1      20.837   0.385  53.118  1.00  0.00    -0.016 C 
BRANCH  16  17
HETATM   17  C17 UNL     1      20.053  -0.743  53.672  1.00  0.00     0.141 C 
HETATM   18 CL1  UNL     1      18.477  -0.820  52.835  1.00  0.00    -0.126 Cl
ENDBRANCH  16  17
ENDBRANCH  14  15
ENDBRANCH   5  14
BRANCH   3  19
HETATM   19  C6  UNL     1      27.298   0.342  52.790  1.00  0.00    -0.010 A 
HETATM   20  C7  UNL     1      27.320  -1.038  52.733  1.00  0.00     0.016 A 
HETATM   21  C8  UNL     1      28.474  -1.629  53.195  1.00  0.00     0.043 A 
HETATM   22  C9  UNL     1      29.523  -0.899  53.676  1.00  0.00     0.116 A 
HETATM   23  F1  UNL     1      30.629  -1.514  54.117  1.00  0.00    -0.206 F 
HETATM   24  C10 UNL     1      29.484   0.485  53.727  1.00  0.00     0.043 A 
HETATM   25  C11 UNL     1      28.341   1.095  53.270  1.00  0.00     0.016 A 
ENDBRANCH   3  19
TORSDOF 7
ENDMDL
MODEL 8
REMARK VINA RESULT:      -7.4      2.482      2.761
REMARK  7 active torsions:
REMARK  status: ('A' for Active; 'I' for Inactive)
REMARK    1  A    between atoms: O1_1  and  C1_2 
REMARK    2  A    between atoms: C3_5  and  C4_6 
REMARK    3  A    between atoms: C4_6  and  N1_7 
REMARK    4  A    between atoms: C5_9  and  C6_10 
REMARK    5  A    between atoms: C13_18  and  C14_19 
REMARK    6  A    between atoms: C14_19  and  C15_20 
REMARK    7  A    between atoms: C16_21  and  C17_22 
ROOT
HETATM    1  N1  UNL     1      24.157   2.790  53.020  1.00  0.00    -0.294 N 
HETATM    2  N2  UNL     1      25.498   2.496  53.332  1.00  0.00    -0.180 NA
HETATM    3  C5  UNL     1      25.770   1.250  53.071  1.00  0.00     0.066 C 
HETATM    4  C12 UNL     1      24.532   0.598  52.531  1.00  0.00     0.089 C 
HETATM    5  C13 UNL     1      23.482   1.504  53.189  1.00  0.00     0.114 C 
ENDROOT
BRANCH   1   6
HETATM    6  C4  UNL     1      23.694   4.084  52.640  1.00  0.00     0.212 C 
BRANCH   6   7
HETATM    7  C3  UNL     1      24.097   4.472  51.264  1.00  0.00     0.097 A 
HETATM    8  S1  UNL     1      22.896   5.171  50.120  1.00  0.00    -0.081 SA
HETATM    9  C2  UNL     1      24.176   5.349  48.730  1.00  0.00     0.109 A 
HETATM   10  C1  UNL     1      25.307   4.828  49.418  1.00  0.00     0.169 A 
HETATM   11  N3  UNL     1      25.217   4.409  50.665  1.00  0.00    -0.220 NA
BRANCH  10  12
HETATM   12  O1  UNL     1      26.606   4.701  48.878  1.00  0.00    -0.344 OA
HETATM   13  H1  UNL     1      26.914   3.912  48.352  1.00  0.00     0.219 HD
ENDBRANCH  10  12
ENDBRANCH   6   7
ENDBRANCH   1   6
BRANCH   5  14
HETATM   14  C14 UNL     1      22.181   1.458  52.448  1.00  0.00     0.054 C 
BRANCH  14  15
HETATM   15  C15 UNL     1      22.453   1.336  50.996  1.00  0.00    -0.027 C 
HETATM   16  C16 UNL     1      21.555   1.219  50.019  1.00  0.00    -0.016 C 
BRANCH  16  17
HETATM   17  C17 UNL     1      21.491   1.084  48.545  1.00  0.00     0.141 C 
HETATM   18 CL1  UNL     1      22.715   2.157  47.810  1.00  0.00    -0.126 Cl
ENDBRANCH  16  17
ENDBRANCH  14  15
ENDBRANCH   5  14
BRANCH   3  19
HETATM   19  C6  UNL     1      27.068   0.619  53.279  1.00  0.00    -0.010 A 
HETATM   20  C7  UNL     1      28.093   1.413  53.757  1.00  0.00     0.016 A 
HETATM   21  C8  UNL     1      29.300   0.774  53.937  1.00  0.00     0.043 A 
HETATM   22  C9  UNL     1      29.468  -0.552  53.662  1.00  0.00     0.116 A 
HETATM   23  F1  UNL     1      30.659  -1.136  53.851  1.00  0.00    -0.206 F 
HETATM   24  C10 UNL     1      28.430  -1.335  53.183  1.00  0.00     0.043 A 
HETATM   25  C11 UNL     1      27.217  -0.717  52.996  1.00  0.00     0.016 A 
ENDBRANCH   3  19
TORSDOF 7
ENDMDL
MODEL 9
REMARK VINA RESULT:      -7.2      3.468      5.975
REMARK  7 active torsions:
REMARK  status: ('A' for Active; 'I' for Inactive)
REMARK    1  A    between atoms: O1_1  and  C1_2 
REMARK    2  A    between atoms: C3_5  and  C4_6 
REMARK    3  A    between atoms: C4_6  and  N1_7 
REMARK    4  A    between atoms: C5_9  and  C6_10 
REMARK    5  A    between atoms: C13_18  and  C14_19 
REMARK    6  A    between atoms: C14_19  and  C15_20 
REMARK    7  A    between atoms: C16_21  and  C17_22 
ROOT
HETATM    1  N1  UNL     1      24.093   2.248  50.625  1.00  0.00    -0.294 N 
HETATM    2  N2  UNL     1      22.877   1.559  50.791  1.00  0.00    -0.180 NA
HETATM    3  C5  UNL     1      22.760   1.114  52.008  1.00  0.00     0.066 C 
HETATM    4  C12 UNL     1      23.985   1.512  52.777  1.00  0.00     0.089 C 
HETATM    5  C13 UNL     1      24.973   1.617  51.608  1.00  0.00     0.114 C 
ENDROOT
BRANCH   1   6
HETATM    6  C4  UNL     1      24.290   3.299  49.682  1.00  0.00     0.212 C 
BRANCH   6   7
HETATM    7  C3  UNL     1      23.740   4.603  50.132  1.00  0.00     0.097 A 
HETATM    8  S1  UNL     1      22.016   5.024  49.831  1.00  0.00    -0.081 SA
HETATM    9  C2  UNL     1      22.181   6.719  50.668  1.00  0.00     0.109 A 
HETATM   10  C1  UNL     1      23.555   6.643  51.029  1.00  0.00     0.169 A 
HETATM   11  N3  UNL     1      24.280   5.579  50.743  1.00  0.00    -0.220 NA
BRANCH  10  12
HETATM   12  O1  UNL     1      24.280   7.648  51.706  1.00  0.00    -0.344 OA
HETATM   13  H1  UNL     1      24.425   7.660  52.693  1.00  0.00     0.219 HD
ENDBRANCH  10  12
ENDBRANCH   6   7
ENDBRANCH   1   6
BRANCH   5  14
HETATM   14  C14 UNL     1      26.137   2.495  51.955  1.00  0.00     0.054 C 
BRANCH  14  15
HETATM   15  C15 UNL     1      27.202   1.668  52.573  1.00  0.00    -0.027 C 
HETATM   16  C16 UNL     1      28.111   2.064  53.462  1.00  0.00    -0.016 C 
BRANCH  16  17
HETATM   17  C17 UNL     1      29.251   1.525  54.238  1.00  0.00     0.141 C 
HETATM   18 CL1  UNL     1      29.681  -0.085  53.596  1.00  0.00    -0.126 Cl
ENDBRANCH  16  17
ENDBRANCH  14  15
ENDBRANCH   5  14
BRANCH   3  19
HETATM   19  C6  UNL     1      21.620   0.357  52.514  1.00  0.00    -0.010 A 
HETATM   20  C7  UNL     1      21.842  -0.486  53.585  1.00  0.00     0.016 A 
HETATM   21  C8  UNL     1      20.739  -1.181  54.029  1.00  0.00     0.043 A 
HETATM   22  C9  UNL     1      19.512  -1.043  53.447  1.00  0.00     0.116 A 
HETATM   23  F1  UNL     1      18.463  -1.737  53.909  1.00  0.00    -0.206 F 
HETATM   24  C10 UNL     1      19.306  -0.193  52.372  1.00  0.00     0.043 A 
HETATM   25  C11 UNL     1      20.395   0.510  51.915  1.00  0.00     0.016 A 
ENDBRANCH   3  19
TORSDOF 7
ENDMDL
