MODEL 1
REMARK VINA RESULT:      -8.6      0.000      0.000
REMARK  9 active torsions:
REMARK  status: ('A' for Active; 'I' for Inactive)
REMARK    1  A    between atoms: C2_2  and  O1_4 
REMARK    2  A    between atoms: C2_2  and  C4_5 
REMARK    3  A    between atoms: C5_6  and  C6_7 
REMARK    4  A    between atoms: C7_8  and  N1_9 
REMARK    5  A    between atoms: N2_12  and  C10_13 
REMARK    6  A    between atoms: C10_13  and  C11_14 
REMARK    7  A    between atoms: C12_18  and  N5_19 
REMARK    8  A    between atoms: C14_21  and  C15_22 
REMARK    9  A    between atoms: C15_22  and  C16_23 
ROOT
HETATM    1  C6  UNL     1      22.100   0.466  52.552  1.00  0.00     0.021 C 
HETATM    2  C7  UNL     1      22.131  -0.381  53.582  1.00  0.00     0.019 C 
HETATM    3  C8  UNL     1      23.173  -0.789  54.511  1.00  0.00     0.077 C 
HETATM    4  C9  UNL     1      24.536  -1.005  53.946  1.00  0.00     0.128 C 
HETATM    5  N2  UNL     1      25.228   0.288  54.073  1.00  0.00    -0.384 N 
HETATM    6  C13 UNL     1      24.911   1.522  53.451  1.00  0.00     0.089 C 
HETATM    7  C14 UNL     1      24.046   2.004  52.572  1.00  0.00    -0.059 C 
HETATM    8  C21 UNL     1      22.933   1.392  51.788  1.00  0.00     0.085 C 
ENDROOT
BRANCH   5   9
HETATM    9  C10 UNL     1      26.366   0.225  54.961  1.00  0.00     0.187 C 
BRANCH   9  10
HETATM   10  C11 UNL     1      27.658   0.066  54.266  1.00  0.00     0.124 A 
HETATM   11  N3  UNL     1      28.205  -1.108  53.833  1.00  0.00    -0.104 NA
HETATM   12  O2  UNL     1      29.342  -0.856  53.271  1.00  0.00    -0.105 OA
HETATM   13  N4  UNL     1      29.573   0.416  53.307  1.00  0.00    -0.091 NA
HETATM   14  C12 UNL     1      28.571   1.067  53.912  1.00  0.00     0.159 A 
BRANCH  14  15
HETATM   15  N5  UNL     1      28.438   2.459  54.155  1.00  0.00    -0.283 NA
HETATM   16  H16 UNL     1      28.829   3.104  53.422  1.00  0.00     0.125 HD
HETATM   17  H17 UNL     1      28.775   3.211  53.522  1.00  0.00     0.125 HD
ENDBRANCH  14  15
ENDBRANCH   9  10
ENDBRANCH   5   9
BRANCH   7  18
HETATM   18  C15 UNL     1      24.213   3.434  52.311  1.00  0.00     0.042 C 
BRANCH  18  19
HETATM   19  C16 UNL     1      24.734   3.768  50.945  1.00  0.00     0.017 C 
HETATM   20  C17 UNL     1      26.184   3.334  50.871  1.00  0.00     0.008 C 
HETATM   21  C18 UNL     1      26.638   3.489  49.426  1.00  0.00     0.030 C 
HETATM   22  C19 UNL     1      26.273   4.900  49.002  1.00  0.00     0.269 C 
HETATM   23  N6  UNL     1      25.929   5.747  50.120  1.00  0.00     0.083 N 
HETATM   24  C20 UNL     1      24.746   5.285  50.817  1.00  0.00     0.274 C 
HETATM   25  H28 UNL     1      26.711   6.022  50.725  1.00  0.00     0.315 HD
ENDBRANCH  18  19
ENDBRANCH   7  18
BRANCH   2  26
HETATM   26  N1  UNL     1      20.865  -1.033  53.834  1.00  0.00    -0.401 N 
HETATM   27  H8  UNL     1      19.837  -0.875  53.885  1.00  0.00     0.156 HD
HETATM   28  H9  UNL     1      20.820  -2.061  54.069  1.00  0.00     0.156 HD
ENDBRANCH   2  26
BRANCH   1  29
HETATM   29  C5  UNL     1      20.746   0.450  52.003  1.00  0.00    -0.066 C 
HETATM   30  C4  UNL     1      19.617   0.450  51.563  1.00  0.00    -0.064 C 
BRANCH  30  31
HETATM   31  C2  UNL     1      18.246   0.444  51.054  1.00  0.00     0.114 C 
HETATM   32  C1  UNL     1      17.575   1.794  51.324  1.00  0.00     0.060 C 
HETATM   33  C3  UNL     1      17.489  -0.674  51.722  1.00  0.00     0.060 C 
BRANCH  31  34
HETATM   34  O1  UNL     1      18.189   0.242  49.682  1.00  0.00    -0.378 OA
HETATM   35  H7  UNL     1      18.172   1.138  49.218  1.00  0.00     0.211 HD
ENDBRANCH  31  34
ENDBRANCH  30  31
ENDBRANCH   1  29
TORSDOF 9
ENDMDL
MODEL 2
REMARK VINA RESULT:      -8.5      2.702      7.085
REMARK  9 active torsions:
REMARK  status: ('A' for Active; 'I' for Inactive)
REMARK    1  A    between atoms: C2_2  and  O1_4 
REMARK    2  A    between atoms: C2_2  and  C4_5 
REMARK    3  A    between atoms: C5_6  and  C6_7 
REMARK    4  A    between atoms: C7_8  and  N1_9 
REMARK    5  A    between atoms: N2_12  and  C10_13 
REMARK    6  A    between atoms: C10_13  and  C11_14 
REMARK    7  A    between atoms: C12_18  and  N5_19 
REMARK    8  A    between atoms: C14_21  and  C15_22 
REMARK    9  A    between atoms: C15_22  and  C16_23 
ROOT
HETATM    1  C6  UNL     1      25.022   3.703  50.185  1.00  0.00     0.021 C 
HETATM    2  C7  UNL     1      23.751   3.895  49.829  1.00  0.00     0.019 C 
HETATM    3  C8  UNL     1      22.515   3.176  50.102  1.00  0.00     0.077 C 
HETATM    4  C9  UNL     1      22.579   1.687  50.074  1.00  0.00     0.128 C 
HETATM    5  N2  UNL     1      22.871   1.276  51.457  1.00  0.00    -0.384 N 
HETATM    6  C13 UNL     1      24.030   1.544  52.230  1.00  0.00     0.089 C 
HETATM    7  C14 UNL     1      25.212   2.125  52.090  1.00  0.00    -0.059 C 
HETATM    8  C21 UNL     1      25.889   2.807  50.948  1.00  0.00     0.085 C 
ENDROOT
BRANCH   5   9
HETATM    9  C10 UNL     1      21.801   0.506  52.047  1.00  0.00     0.187 C 
BRANCH   9  10
HETATM   10  C11 UNL     1      22.189  -0.214  53.276  1.00  0.00     0.124 A 
HETATM   11  N3  UNL     1      23.312  -0.972  53.448  1.00  0.00    -0.104 NA
HETATM   12  O2  UNL     1      23.315  -1.444  54.652  1.00  0.00    -0.105 OA
HETATM   13  N4  UNL     1      22.261  -1.039  55.282  1.00  0.00    -0.091 NA
HETATM   14  C12 UNL     1      21.502  -0.265  54.495  1.00  0.00     0.159 A 
BRANCH  14  15
HETATM   15  N5  UNL     1      20.272   0.374  54.800  1.00  0.00    -0.283 NA
HETATM   16  H16 UNL     1      19.726  -0.020  55.608  1.00  0.00     0.125 HD
HETATM   17  H17 UNL     1      19.629   0.096  55.568  1.00  0.00     0.125 HD
ENDBRANCH  14  15
ENDBRANCH   9  10
ENDBRANCH   5   9
BRANCH   7  18
HETATM   18  C15 UNL     1      26.027   2.092  53.304  1.00  0.00     0.042 C 
BRANCH  18  19
HETATM   19  C16 UNL     1      27.355   1.413  53.152  1.00  0.00     0.017 C 
HETATM   20  C17 UNL     1      27.390   0.224  54.093  1.00  0.00     0.008 C 
HETATM   21  C18 UNL     1      28.651  -0.571  53.783  1.00  0.00     0.030 C 
HETATM   22  C19 UNL     1      29.806   0.415  53.804  1.00  0.00     0.269 C 
HETATM   23  N6  UNL     1      29.449   1.678  54.405  1.00  0.00     0.083 N 
HETATM   24  C20 UNL     1      28.422   2.374  53.656  1.00  0.00     0.274 C 
HETATM   25  H28 UNL     1      29.311   1.662  55.422  1.00  0.00     0.315 HD
ENDBRANCH  18  19
ENDBRANCH   7  18
BRANCH   2  26
HETATM   26  N1  UNL     1      23.552   5.061  48.998  1.00  0.00    -0.401 N 
HETATM   27  H8  UNL     1      22.896   5.845  48.797  1.00  0.00     0.156 HD
HETATM   28  H9  UNL     1      24.267   5.341  48.273  1.00  0.00     0.156 HD
ENDBRANCH   2  26
BRANCH   1  29
HETATM   29  C5  UNL     1      25.817   4.776  49.593  1.00  0.00    -0.066 C 
HETATM   30  C4  UNL     1      26.493   5.660  49.115  1.00  0.00    -0.064 C 
BRANCH  30  31
HETATM   31  C2  UNL     1      27.312   6.738  48.560  1.00  0.00     0.114 C 
HETATM   32  C1  UNL     1      26.528   7.500  47.488  1.00  0.00     0.060 C 
HETATM   33  C3  UNL     1      28.568   6.140  47.983  1.00  0.00     0.060 C 
BRANCH  31  34
HETATM   34  O1  UNL     1      27.681   7.672  49.519  1.00  0.00    -0.378 OA
HETATM   35  H7  UNL     1      28.686   7.755  49.528  1.00  0.00     0.211 HD
ENDBRANCH  31  34
ENDBRANCH  30  31
ENDBRANCH   1  29
TORSDOF 9
ENDMDL
MODEL 3
REMARK VINA RESULT:      -8.4      1.155      1.539
REMARK  9 active torsions:
REMARK  status: ('A' for Active; 'I' for Inactive)
REMARK    1  A    between atoms: C2_2  and  O1_4 
REMARK    2  A    between atoms: C2_2  and  C4_5 
REMARK    3  A    between atoms: C5_6  and  C6_7 
REMARK    4  A    between atoms: C7_8  and  N1_9 
REMARK    5  A    between atoms: N2_12  and  C10_13 
REMARK    6  A    between atoms: C10_13  and  C11_14 
REMARK    7  A    between atoms: C12_18  and  N5_19 
REMARK    8  A    between atoms: C14_21  and  C15_22 
REMARK    9  A    between atoms: C15_22  and  C16_23 
ROOT
HETATM    1  C6  UNL     1      22.489   0.509  52.565  1.00  0.00     0.021 C 
HETATM    2  C7  UNL     1      22.496  -0.270  53.649  1.00  0.00     0.019 C 
HETATM    3  C8  UNL     1      23.531  -0.659  54.594  1.00  0.00     0.077 C 
HETATM    4  C9  UNL     1      24.878  -0.966  54.035  1.00  0.00     0.128 C 
HETATM    5  N2  UNL     1      25.623   0.303  54.073  1.00  0.00    -0.384 N 
HETATM    6  C13 UNL     1      25.348   1.507  53.374  1.00  0.00     0.089 C 
HETATM    7  C14 UNL     1      24.495   1.965  52.472  1.00  0.00    -0.059 C 
HETATM    8  C21 UNL     1      23.350   1.349  51.737  1.00  0.00     0.085 C 
ENDROOT
BRANCH   5   9
HETATM    9  C10 UNL     1      26.766   0.252  54.954  1.00  0.00     0.187 C 
BRANCH   9  10
HETATM   10  C11 UNL     1      28.038  -0.044  54.267  1.00  0.00     0.124 A 
HETATM   11  N3  UNL     1      28.392  -1.234  53.698  1.00  0.00    -0.104 NA
HETATM   12  O2  UNL     1      29.576  -1.118  53.191  1.00  0.00    -0.105 OA
HETATM   13  N4  UNL     1      30.020   0.079  53.393  1.00  0.00    -0.091 NA
HETATM   14  C12 UNL     1      29.122   0.817  54.058  1.00  0.00     0.159 A 
BRANCH  14  15
HETATM   15  N5  UNL     1      29.220   2.170  54.474  1.00  0.00    -0.283 NA
HETATM   16  H16 UNL     1      30.103   2.445  54.976  1.00  0.00     0.125 HD
HETATM   17  H17 UNL     1      30.030   2.583  54.978  1.00  0.00     0.125 HD
ENDBRANCH  14  15
ENDBRANCH   9  10
ENDBRANCH   5   9
BRANCH   7  18
HETATM   18  C15 UNL     1      24.716   3.367  52.117  1.00  0.00     0.042 C 
BRANCH  18  19
HETATM   19  C16 UNL     1      23.592   4.011  51.362  1.00  0.00     0.017 C 
HETATM   20  C17 UNL     1      24.183   4.797  50.209  1.00  0.00     0.008 C 
HETATM   21  C18 UNL     1      23.030   5.272  49.337  1.00  0.00     0.030 C 
HETATM   22  C19 UNL     1      22.038   5.958  50.259  1.00  0.00     0.269 C 
HETATM   23  N6  UNL     1      22.593   6.244  51.561  1.00  0.00     0.083 N 
HETATM   24  C20 UNL     1      22.951   5.040  52.283  1.00  0.00     0.274 C 
HETATM   25  H28 UNL     1      23.293   6.993  51.590  1.00  0.00     0.315 HD
ENDBRANCH  18  19
ENDBRANCH   7  18
BRANCH   2  26
HETATM   26  N1  UNL     1      21.209  -0.852  53.951  1.00  0.00    -0.401 N 
HETATM   27  H8  UNL     1      20.521  -1.572  53.644  1.00  0.00     0.156 HD
HETATM   28  H9  UNL     1      20.636  -0.511  54.770  1.00  0.00     0.156 HD
ENDBRANCH   2  26
BRANCH   1  29
HETATM   29  C5  UNL     1      21.130   0.512  52.029  1.00  0.00    -0.066 C 
HETATM   30  C4  UNL     1      20.007   0.535  51.575  1.00  0.00    -0.064 C 
BRANCH  30  31
HETATM   31  C2  UNL     1      18.647   0.583  51.040  1.00  0.00     0.114 C 
HETATM   32  C1  UNL     1      17.986   1.918  51.391  1.00  0.00     0.060 C 
HETATM   33  C3  UNL     1      17.863  -0.570  51.611  1.00  0.00     0.060 C 
BRANCH  31  34
HETATM   34  O1  UNL     1      18.617   0.479  49.656  1.00  0.00    -0.378 OA
HETATM   35  H7  UNL     1      17.662   0.552  49.340  1.00  0.00     0.211 HD
ENDBRANCH  31  34
ENDBRANCH  30  31
ENDBRANCH   1  29
TORSDOF 9
ENDMDL
MODEL 4
REMARK VINA RESULT:      -8.4      3.068      8.090
REMARK  9 active torsions:
REMARK  status: ('A' for Active; 'I' for Inactive)
REMARK    1  A    between atoms: C2_2  and  O1_4 
REMARK    2  A    between atoms: C2_2  and  C4_5 
REMARK    3  A    between atoms: C5_6  and  C6_7 
REMARK    4  A    between atoms: C7_8  and  N1_9 
REMARK    5  A    between atoms: N2_12  and  C10_13 
REMARK    6  A    between atoms: C10_13  and  C11_14 
REMARK    7  A    between atoms: C12_18  and  N5_19 
REMARK    8  A    between atoms: C14_21  and  C15_22 
REMARK    9  A    between atoms: C15_22  and  C16_23 
ROOT
HETATM    1  C6  UNL     1      25.250   3.878  49.791  1.00  0.00     0.021 C 
HETATM    2  C7  UNL     1      24.045   4.208  49.320  1.00  0.00     0.019 C 
HETATM    3  C8  UNL     1      22.724   3.611  49.446  1.00  0.00     0.077 C 
HETATM    4  C9  UNL     1      22.644   2.124  49.370  1.00  0.00     0.128 C 
HETATM    5  N2  UNL     1      22.754   1.649  50.759  1.00  0.00    -0.384 N 
HETATM    6  C13 UNL     1      23.851   1.779  51.650  1.00  0.00     0.089 C 
HETATM    7  C14 UNL     1      25.091   2.240  51.646  1.00  0.00    -0.059 C 
HETATM    8  C21 UNL     1      25.944   2.881  50.601  1.00  0.00     0.085 C 
ENDROOT
BRANCH   5   9
HETATM    9  C10 UNL     1      21.560   0.976  51.214  1.00  0.00     0.187 C 
BRANCH   9  10
HETATM   10  C11 UNL     1      20.416   1.879  51.444  1.00  0.00     0.124 A 
HETATM   11  N3  UNL     1      20.293   2.787  52.456  1.00  0.00    -0.104 NA
HETATM   12  O2  UNL     1      19.158   3.396  52.334  1.00  0.00    -0.105 OA
HETATM   13  N4  UNL     1      18.529   2.941  51.300  1.00  0.00    -0.091 NA
HETATM   14  C12 UNL     1      19.244   1.990  50.686  1.00  0.00     0.159 A 
BRANCH  14  15
HETATM   15  N5  UNL     1      18.914   1.243  49.525  1.00  0.00    -0.283 NA
HETATM   16  H16 UNL     1      17.966   1.422  49.105  1.00  0.00     0.125 HD
HETATM   17  H17 UNL     1      18.017   1.314  49.004  1.00  0.00     0.125 HD
ENDBRANCH  14  15
ENDBRANCH   9  10
ENDBRANCH   5   9
BRANCH   7  18
HETATM   18  C15 UNL     1      25.774   2.093  52.932  1.00  0.00     0.042 C 
BRANCH  18  19
HETATM   19  C16 UNL     1      27.125   1.448  52.857  1.00  0.00     0.017 C 
HETATM   20  C17 UNL     1      27.062   0.127  53.599  1.00  0.00     0.008 C 
HETATM   21  C18 UNL     1      28.370  -0.607  53.342  1.00  0.00     0.030 C 
HETATM   22  C19 UNL     1      29.489   0.364  53.671  1.00  0.00     0.269 C 
HETATM   23  N6  UNL     1      29.027   1.518  54.407  1.00  0.00     0.083 N 
HETATM   24  C20 UNL     1      28.094   2.320  53.643  1.00  0.00     0.274 C 
HETATM   25  H28 UNL     1      28.756   1.343  55.380  1.00  0.00     0.315 HD
ENDBRANCH  18  19
ENDBRANCH   7  18
BRANCH   2  26
HETATM   26  N1  UNL     1      24.046   5.409  48.517  1.00  0.00    -0.401 N 
HETATM   27  H8  UNL     1      24.443   6.369  48.445  1.00  0.00     0.156 HD
HETATM   28  H9  UNL     1      23.465   5.477  47.638  1.00  0.00     0.156 HD
ENDBRANCH   2  26
BRANCH   1  29
HETATM   29  C5  UNL     1      26.201   4.881  49.317  1.00  0.00    -0.066 C 
HETATM   30  C4  UNL     1      26.979   5.713  48.906  1.00  0.00    -0.064 C 
BRANCH  30  31
HETATM   31  C2  UNL     1      27.923   6.705  48.390  1.00  0.00     0.114 C 
HETATM   32  C1  UNL     1      27.284   7.498  47.246  1.00  0.00     0.060 C 
HETATM   33  C3  UNL     1      29.163   5.991  47.921  1.00  0.00     0.060 C 
BRANCH  31  34
HETATM   34  O1  UNL     1      28.298   7.632  49.352  1.00  0.00    -0.378 OA
HETATM   35  H7  UNL     1      29.277   7.510  49.564  1.00  0.00     0.211 HD
ENDBRANCH  31  34
ENDBRANCH  30  31
ENDBRANCH   1  29
TORSDOF 9
ENDMDL
MODEL 5
REMARK VINA RESULT:      -7.9      2.845      6.364
REMARK  9 active torsions:
REMARK  status: ('A' for Active; 'I' for Inactive)
REMARK    1  A    between atoms: C2_2  and  O1_4 
REMARK    2  A    between atoms: C2_2  and  C4_5 
REMARK    3  A    between atoms: C5_6  and  C6_7 
REMARK    4  A    between atoms: C7_8  and  N1_9 
REMARK    5  A    between atoms: N2_12  and  C10_13 
REMARK    6  A    between atoms: C10_13  and  C11_14 
REMARK    7  A    between atoms: C12_18  and  N5_19 
REMARK    8  A    between atoms: C14_21  and  C15_22 
REMARK    9  A    between atoms: C15_22  and  C16_23 
ROOT
HETATM    1  C6  UNL     1      23.319   2.326  51.939  1.00  0.00     0.021 C 
HETATM    2  C7  UNL     1      22.595   2.963  51.016  1.00  0.00     0.019 C 
HETATM    3  C8  UNL     1      22.919   3.949  49.997  1.00  0.00     0.077 C 
HETATM    4  C9  UNL     1      23.877   5.026  50.377  1.00  0.00     0.128 C 
HETATM    5  N2  UNL     1      25.209   4.523  50.007  1.00  0.00    -0.384 N 
HETATM    6  C13 UNL     1      25.903   3.400  50.527  1.00  0.00     0.089 C 
HETATM    7  C14 UNL     1      25.748   2.477  51.463  1.00  0.00    -0.059 C 
HETATM    8  C21 UNL     1      24.676   2.202  52.465  1.00  0.00     0.085 C 
ENDROOT
BRANCH   5   9
HETATM    9  C10 UNL     1      25.838   5.315  48.975  1.00  0.00     0.187 C 
BRANCH   9  10
HETATM   10  C11 UNL     1      25.288   6.679  48.851  1.00  0.00     0.124 A 
HETATM   11  N3  UNL     1      24.426   7.119  47.888  1.00  0.00    -0.104 NA
HETATM   12  O2  UNL     1      24.165   8.367  48.101  1.00  0.00    -0.105 OA
HETATM   13  N4  UNL     1      24.803   8.773  49.149  1.00  0.00    -0.091 NA
HETATM   14  C12 UNL     1      25.530   7.781  49.680  1.00  0.00     0.159 A 
BRANCH  14  15
HETATM   15  N5  UNL     1      26.368   7.810  50.825  1.00  0.00    -0.283 NA
HETATM   16  H16 UNL     1      26.858   6.913  51.072  1.00  0.00     0.125 HD
HETATM   17  H17 UNL     1      26.914   7.002  51.187  1.00  0.00     0.125 HD
ENDBRANCH  14  15
ENDBRANCH   9  10
ENDBRANCH   5   9
BRANCH   7  18
HETATM   18  C15 UNL     1      26.858   1.526  51.536  1.00  0.00     0.042 C 
BRANCH  18  19
HETATM   19  C16 UNL     1      27.253   1.124  52.925  1.00  0.00     0.017 C 
HETATM   20  C17 UNL     1      28.681   1.572  53.162  1.00  0.00     0.008 C 
HETATM   21  C18 UNL     1      28.998   1.344  54.633  1.00  0.00     0.030 C 
HETATM   22  C19 UNL     1      28.620  -0.093  54.944  1.00  0.00     0.269 C 
HETATM   23  N6  UNL     1      28.400  -0.881  53.754  1.00  0.00     0.083 N 
HETATM   24  C20 UNL     1      27.280  -0.397  52.972  1.00  0.00     0.274 C 
HETATM   25  H28 UNL     1      29.241  -1.112  53.213  1.00  0.00     0.315 HD
ENDBRANCH  18  19
ENDBRANCH   7  18
BRANCH   2  26
HETATM   26  N1  UNL     1      21.196   2.602  51.026  1.00  0.00    -0.401 N 
HETATM   27  H8  UNL     1      20.243   2.933  50.766  1.00  0.00     0.156 HD
HETATM   28  H9  UNL     1      20.875   1.677  51.422  1.00  0.00     0.156 HD
ENDBRANCH   2  26
BRANCH   1  29
HETATM   29  C5  UNL     1      22.419   1.444  52.678  1.00  0.00    -0.066 C 
HETATM   30  C4  UNL     1      21.690   0.701  53.298  1.00  0.00    -0.064 C 
BRANCH  30  31
HETATM   31  C2  UNL     1      20.819  -0.216  54.033  1.00  0.00     0.114 C 
HETATM   32  C1  UNL     1      21.549  -1.533  54.309  1.00  0.00     0.060 C 
HETATM   33  C3  UNL     1      19.573  -0.453  53.220  1.00  0.00     0.060 C 
BRANCH  31  34
HETATM   34  O1  UNL     1      20.437   0.290  55.268  1.00  0.00    -0.378 OA
HETATM   35  H7  UNL     1      19.904   1.135  55.128  1.00  0.00     0.211 HD
ENDBRANCH  31  34
ENDBRANCH  30  31
ENDBRANCH   1  29
TORSDOF 9
ENDMDL
MODEL 6
REMARK VINA RESULT:      -7.7      2.530      6.040
REMARK  9 active torsions:
REMARK  status: ('A' for Active; 'I' for Inactive)
REMARK    1  A    between atoms: C2_2  and  O1_4 
REMARK    2  A    between atoms: C2_2  and  C4_5 
REMARK    3  A    between atoms: C5_6  and  C6_7 
REMARK    4  A    between atoms: C7_8  and  N1_9 
REMARK    5  A    between atoms: N2_12  and  C10_13 
REMARK    6  A    between atoms: C10_13  and  C11_14 
REMARK    7  A    between atoms: C12_18  and  N5_19 
REMARK    8  A    between atoms: C14_21  and  C15_22 
REMARK    9  A    between atoms: C15_22  and  C16_23 
ROOT
HETATM    1  C6  UNL     1      24.204   4.341  50.485  1.00  0.00     0.021 C 
HETATM    2  C7  UNL     1      25.395   4.208  49.899  1.00  0.00     0.019 C 
HETATM    3  C8  UNL     1      26.474   3.241  50.035  1.00  0.00     0.077 C 
HETATM    4  C9  UNL     1      26.801   2.780  51.414  1.00  0.00     0.128 C 
HETATM    5  N2  UNL     1      25.983   1.576  51.636  1.00  0.00    -0.384 N 
HETATM    6  C13 UNL     1      24.569   1.468  51.682  1.00  0.00     0.089 C 
HETATM    7  C14 UNL     1      23.505   2.253  51.627  1.00  0.00    -0.059 C 
HETATM    8  C21 UNL     1      23.326   3.728  51.479  1.00  0.00     0.085 C 
ENDROOT
BRANCH   5   9
HETATM    9  C10 UNL     1      26.782   0.387  51.820  1.00  0.00     0.187 C 
BRANCH   9  10
HETATM   10  C11 UNL     1      27.185   0.148  53.219  1.00  0.00     0.124 A 
HETATM   11  N3  UNL     1      26.441  -0.474  54.181  1.00  0.00    -0.104 NA
HETATM   12  O2  UNL     1      27.119  -0.499  55.281  1.00  0.00    -0.105 OA
HETATM   13  N4  UNL     1      28.266   0.068  55.099  1.00  0.00    -0.091 NA
HETATM   14  C12 UNL     1      28.390   0.502  53.838  1.00  0.00     0.159 A 
BRANCH  14  15
HETATM   15  N5  UNL     1      29.485   1.174  53.234  1.00  0.00    -0.283 NA
HETATM   16  H16 UNL     1      29.261   2.052  52.700  1.00  0.00     0.125 HD
HETATM   17  H17 UNL     1      29.416   2.049  52.678  1.00  0.00     0.125 HD
ENDBRANCH  14  15
ENDBRANCH   9  10
ENDBRANCH   5   9
BRANCH   7  18
HETATM   18  C15 UNL     1      22.238   1.529  51.733  1.00  0.00     0.042 C 
BRANCH  18  19
HETATM   19  C16 UNL     1      22.070   0.736  52.994  1.00  0.00     0.017 C 
HETATM   20  C17 UNL     1      22.167  -0.736  52.647  1.00  0.00     0.008 C 
HETATM   21  C18 UNL     1      22.201  -1.516  53.953  1.00  0.00     0.030 C 
HETATM   22  C19 UNL     1      21.022  -1.036  54.780  1.00  0.00     0.269 C 
HETATM   23  N6  UNL     1      20.073  -0.271  54.005  1.00  0.00     0.083 N 
HETATM   24  C20 UNL     1      20.646   0.954  53.487  1.00  0.00     0.274 C 
HETATM   25  H28 UNL     1      19.514  -0.808  53.334  1.00  0.00     0.315 HD
ENDBRANCH  18  19
ENDBRANCH   7  18
BRANCH   2  26
HETATM   26  N1  UNL     1      25.680   5.236  48.925  1.00  0.00    -0.401 N 
HETATM   27  H8  UNL     1      25.474   5.550  47.953  1.00  0.00     0.156 HD
HETATM   28  H9  UNL     1      26.332   6.035  49.151  1.00  0.00     0.156 HD
ENDBRANCH   2  26
BRANCH   1  29
HETATM   29  C5  UNL     1      23.562   5.528  49.923  1.00  0.00    -0.066 C 
HETATM   30  C4  UNL     1      23.048   6.523  49.464  1.00  0.00    -0.064 C 
BRANCH  30  31
HETATM   31  C2  UNL     1      22.428   7.736  48.931  1.00  0.00     0.114 C 
HETATM   32  C1  UNL     1      23.461   8.863  48.841  1.00  0.00     0.060 C 
HETATM   33  C3  UNL     1      21.285   8.128  49.830  1.00  0.00     0.060 C 
BRANCH  31  34
HETATM   34  O1  UNL     1      21.926   7.557  47.649  1.00  0.00    -0.378 OA
HETATM   35  H7  UNL     1      20.919   7.616  47.679  1.00  0.00     0.211 HD
ENDBRANCH  31  34
ENDBRANCH  30  31
ENDBRANCH   1  29
TORSDOF 9
ENDMDL
MODEL 7
REMARK VINA RESULT:      -7.7      2.688      8.245
REMARK  9 active torsions:
REMARK  status: ('A' for Active; 'I' for Inactive)
REMARK    1  A    between atoms: C2_2  and  O1_4 
REMARK    2  A    between atoms: C2_2  and  C4_5 
REMARK    3  A    between atoms: C5_6  and  C6_7 
REMARK    4  A    between atoms: C7_8  and  N1_9 
REMARK    5  A    between atoms: N2_12  and  C10_13 
REMARK    6  A    between atoms: C10_13  and  C11_14 
REMARK    7  A    between atoms: C12_18  and  N5_19 
REMARK    8  A    between atoms: C14_21  and  C15_22 
REMARK    9  A    between atoms: C15_22  and  C16_23 
ROOT
HETATM    1  C6  UNL     1      25.083   1.745  51.744  1.00  0.00     0.021 C 
HETATM    2  C7  UNL     1      25.572   2.817  51.118  1.00  0.00     0.019 C 
HETATM    3  C8  UNL     1      24.988   3.812  50.231  1.00  0.00     0.077 C 
HETATM    4  C9  UNL     1      24.023   3.322  49.207  1.00  0.00     0.128 C 
HETATM    5  N2  UNL     1      22.694   3.415  49.835  1.00  0.00    -0.384 N 
HETATM    6  C13 UNL     1      22.205   2.718  50.969  1.00  0.00     0.089 C 
HETATM    7  C14 UNL     1      22.603   1.777  51.812  1.00  0.00    -0.059 C 
HETATM    8  C21 UNL     1      23.856   0.974  51.934  1.00  0.00     0.085 C 
ENDROOT
BRANCH   5   9
HETATM    9  C10 UNL     1      21.827   4.356  49.165  1.00  0.00     0.187 C 
BRANCH   9  10
HETATM   10  C11 UNL     1      21.894   5.725  49.712  1.00  0.00     0.124 A 
HETATM   11  N3  UNL     1      21.200   6.201  50.788  1.00  0.00    -0.104 NA
HETATM   12  O2  UNL     1      21.515   7.442  50.971  1.00  0.00    -0.105 OA
HETATM   13  N4  UNL     1      22.376   7.809  50.079  1.00  0.00    -0.091 NA
HETATM   14  C12 UNL     1      22.669   6.796  49.252  1.00  0.00     0.159 A 
BRANCH  14  15
HETATM   15  N5  UNL     1      23.559   6.783  48.147  1.00  0.00    -0.283 NA
HETATM   16  H16 UNL     1      23.879   7.719  47.790  1.00  0.00     0.125 HD
HETATM   17  H17 UNL     1      23.957   7.628  47.690  1.00  0.00     0.125 HD
ENDBRANCH  14  15
ENDBRANCH   9  10
ENDBRANCH   5   9
BRANCH   7  18
HETATM   18  C15 UNL     1      21.611   1.453  52.837  1.00  0.00     0.042 C 
BRANCH  18  19
HETATM   19  C16 UNL     1      20.575   0.455  52.417  1.00  0.00     0.017 C 
HETATM   20  C17 UNL     1      19.267   1.190  52.202  1.00  0.00     0.008 C 
HETATM   21  C18 UNL     1      18.283   0.208  51.582  1.00  0.00     0.030 C 
HETATM   22  C19 UNL     1      18.291  -1.031  52.459  1.00  0.00     0.269 C 
HETATM   23  N6  UNL     1      18.933  -0.808  53.733  1.00  0.00     0.083 N 
HETATM   24  C20 UNL     1      20.337  -0.483  53.593  1.00  0.00     0.274 C 
HETATM   25  H28 UNL     1      18.414  -0.221  54.394  1.00  0.00     0.315 HD
ENDBRANCH  18  19
ENDBRANCH   7  18
BRANCH   2  26
HETATM   26  N1  UNL     1      26.977   3.043  51.369  1.00  0.00    -0.401 N 
HETATM   27  H8  UNL     1      27.889   3.247  50.909  1.00  0.00     0.156 HD
HETATM   28  H9  UNL     1      27.365   3.018  52.351  1.00  0.00     0.156 HD
ENDBRANCH   2  26
BRANCH   1  29
HETATM   29  C5  UNL     1      26.173   1.136  52.502  1.00  0.00    -0.066 C 
HETATM   30  C4  UNL     1      27.065   0.635  53.149  1.00  0.00    -0.064 C 
BRANCH  30  31
HETATM   31  C2  UNL     1      28.144   0.048  53.945  1.00  0.00     0.114 C 
HETATM   32  C1  UNL     1      29.259   1.075  54.161  1.00  0.00     0.060 C 
HETATM   33  C3  UNL     1      28.666  -1.168  53.226  1.00  0.00     0.060 C 
BRANCH  31  34
HETATM   34  O1  UNL     1      27.720  -0.346  55.206  1.00  0.00    -0.378 OA
HETATM   35  H7  UNL     1      26.715  -0.443  55.201  1.00  0.00     0.211 HD
ENDBRANCH  31  34
ENDBRANCH  30  31
ENDBRANCH   1  29
TORSDOF 9
ENDMDL
MODEL 8
REMARK VINA RESULT:      -7.6      2.585      5.724
REMARK  9 active torsions:
REMARK  status: ('A' for Active; 'I' for Inactive)
REMARK    1  A    between atoms: C2_2  and  O1_4 
REMARK    2  A    between atoms: C2_2  and  C4_5 
REMARK    3  A    between atoms: C5_6  and  C6_7 
REMARK    4  A    between atoms: C7_8  and  N1_9 
REMARK    5  A    between atoms: N2_12  and  C10_13 
REMARK    6  A    between atoms: C10_13  and  C11_14 
REMARK    7  A    between atoms: C12_18  and  N5_19 
REMARK    8  A    between atoms: C14_21  and  C15_22 
REMARK    9  A    between atoms: C15_22  and  C16_23 
ROOT
HETATM    1  C6  UNL     1      24.640   3.428  51.775  1.00  0.00     0.021 C 
HETATM    2  C7  UNL     1      25.766   3.182  51.103  1.00  0.00     0.019 C 
HETATM    3  C8  UNL     1      26.695   2.063  51.083  1.00  0.00     0.077 C 
HETATM    4  C9  UNL     1      27.023   1.433  52.394  1.00  0.00     0.128 C 
HETATM    5  N2  UNL     1      26.049   0.342  52.566  1.00  0.00    -0.384 N 
HETATM    6  C13 UNL     1      24.639   0.432  52.696  1.00  0.00     0.089 C 
HETATM    7  C14 UNL     1      23.702   1.363  52.778  1.00  0.00    -0.059 C 
HETATM    8  C21 UNL     1      23.735   2.856  52.769  1.00  0.00     0.085 C 
ENDROOT
BRANCH   5   9
HETATM    9  C10 UNL     1      26.672  -0.961  52.594  1.00  0.00     0.187 C 
BRANCH   9  10
HETATM   10  C11 UNL     1      28.056  -0.951  53.106  1.00  0.00     0.124 A 
HETATM   11  N3  UNL     1      28.773   0.150  53.477  1.00  0.00    -0.104 NA
HETATM   12  O2  UNL     1      29.944  -0.229  53.873  1.00  0.00    -0.105 OA
HETATM   13  N4  UNL     1      30.038  -1.515  53.784  1.00  0.00    -0.091 NA
HETATM   14  C12 UNL     1      28.902  -2.047  53.313  1.00  0.00     0.159 A 
BRANCH  14  15
HETATM   15  N5  UNL     1      28.597  -3.411  53.068  1.00  0.00    -0.283 NA
HETATM   16  H16 UNL     1      29.034  -3.845  52.215  1.00  0.00     0.125 HD
HETATM   17  H17 UNL     1      28.955  -3.969  52.268  1.00  0.00     0.125 HD
ENDBRANCH  14  15
ENDBRANCH   9  10
ENDBRANCH   5   9
BRANCH   7  18
HETATM   18  C15 UNL     1      22.349   0.820  52.907  1.00  0.00     0.042 C 
BRANCH  18  19
HETATM   19  C16 UNL     1      21.339   1.420  51.975  1.00  0.00     0.017 C 
HETATM   20  C17 UNL     1      20.199   1.976  52.803  1.00  0.00     0.008 C 
HETATM   21  C18 UNL     1      19.288   2.758  51.868  1.00  0.00     0.030 C 
HETATM   22  C19 UNL     1      18.966   1.839  50.703  1.00  0.00     0.269 C 
HETATM   23  N6  UNL     1      19.317   0.463  50.966  1.00  0.00     0.083 N 
HETATM   24  C20 UNL     1      20.742   0.284  51.155  1.00  0.00     0.274 C 
HETATM   25  H28 UNL     1      18.723  -0.024  51.646  1.00  0.00     0.315 HD
ENDBRANCH  18  19
ENDBRANCH   7  18
BRANCH   2  26
HETATM   26  N1  UNL     1      26.147   4.246  50.203  1.00  0.00    -0.401 N 
HETATM   27  H8  UNL     1      26.602   4.447  49.287  1.00  0.00     0.156 HD
HETATM   28  H9  UNL     1      25.952   5.256  50.440  1.00  0.00     0.156 HD
ENDBRANCH   2  26
BRANCH   1  29
HETATM   29  C5  UNL     1      24.152   4.742  51.360  1.00  0.00    -0.066 C 
HETATM   30  C4  UNL     1      23.767   5.834  51.006  1.00  0.00    -0.064 C 
BRANCH  30  31
HETATM   31  C2  UNL     1      23.322   7.163  50.588  1.00  0.00     0.114 C 
HETATM   32  C1  UNL     1      21.810   7.301  50.787  1.00  0.00     0.060 C 
HETATM   33  C3  UNL     1      23.694   7.363  49.142  1.00  0.00     0.060 C 
BRANCH  31  34
HETATM   34  O1  UNL     1      23.912   8.178  51.328  1.00  0.00    -0.378 OA
HETATM   35  H7  UNL     1      24.851   8.329  50.991  1.00  0.00     0.211 HD
ENDBRANCH  31  34
ENDBRANCH  30  31
ENDBRANCH   1  29
TORSDOF 9
ENDMDL
MODEL 9
REMARK VINA RESULT:      -7.6      2.681      7.766
REMARK  9 active torsions:
REMARK  status: ('A' for Active; 'I' for Inactive)
REMARK    1  A    between atoms: C2_2  and  O1_4 
REMARK    2  A    between atoms: C2_2  and  C4_5 
REMARK    3  A    between atoms: C5_6  and  C6_7 
REMARK    4  A    between atoms: C7_8  and  N1_9 
REMARK    5  A    between atoms: N2_12  and  C10_13 
REMARK    6  A    between atoms: C10_13  and  C11_14 
REMARK    7  A    between atoms: C12_18  and  N5_19 
REMARK    8  A    between atoms: C14_21  and  C15_22 
REMARK    9  A    between atoms: C15_22  and  C16_23 
ROOT
HETATM    1  C6  UNL     1      24.441   4.596  50.397  1.00  0.00     0.021 C 
HETATM    2  C7  UNL     1      23.680   5.498  51.019  1.00  0.00     0.019 C 
HETATM    3  C8  UNL     1      22.459   5.406  51.804  1.00  0.00     0.077 C 
HETATM    4  C9  UNL     1      21.412   4.461  51.320  1.00  0.00     0.128 C 
HETATM    5  N2  UNL     1      21.688   3.182  51.996  1.00  0.00    -0.384 N 
HETATM    6  C13 UNL     1      22.829   2.349  51.874  1.00  0.00     0.089 C 
HETATM    7  C14 UNL     1      23.954   2.292  51.178  1.00  0.00    -0.059 C 
HETATM    8  C21 UNL     1      24.554   3.164  50.125  1.00  0.00     0.085 C 
ENDROOT
BRANCH   5   9
HETATM    9  C10 UNL     1      20.622   2.782  52.885  1.00  0.00     0.187 C 
BRANCH   9  10
HETATM   10  C11 UNL     1      20.051   1.457  52.575  1.00  0.00     0.124 A 
HETATM   11  N3  UNL     1      19.417   1.100  51.420  1.00  0.00    -0.104 NA
HETATM   12  O2  UNL     1      19.054  -0.138  51.508  1.00  0.00    -0.105 OA
HETATM   13  N4  UNL     1      19.414  -0.616  52.654  1.00  0.00    -0.091 NA
HETATM   14  C12 UNL     1      20.044   0.314  53.383  1.00  0.00     0.159 A 
BRANCH  14  15
HETATM   15  N5  UNL     1      20.592   0.197  54.687  1.00  0.00    -0.283 NA
HETATM   16  H16 UNL     1      21.628   0.025  54.748  1.00  0.00     0.125 HD
HETATM   17  H17 UNL     1      21.595   0.028  54.901  1.00  0.00     0.125 HD
ENDBRANCH  14  15
ENDBRANCH   9  10
ENDBRANCH   5   9
BRANCH   7  18
HETATM   18  C15 UNL     1      24.786   1.133  51.504  1.00  0.00     0.042 C 
BRANCH  18  19
HETATM   19  C16 UNL     1      25.642   1.297  52.724  1.00  0.00     0.017 C 
HETATM   20  C17 UNL     1      27.068   1.542  52.273  1.00  0.00     0.008 C 
HETATM   21  C18 UNL     1      27.884   1.908  53.504  1.00  0.00     0.030 C 
HETATM   22  C19 UNL     1      27.619   0.831  54.541  1.00  0.00     0.269 C 
HETATM   23  N6  UNL     1      26.977  -0.335  53.980  1.00  0.00     0.083 N 
HETATM   24  C20 UNL     1      25.661  -0.039  53.454  1.00  0.00     0.274 C 
HETATM   25  H28 UNL     1      27.567  -0.918  53.377  1.00  0.00     0.315 HD
ENDBRANCH  18  19
ENDBRANCH   7  18
BRANCH   2  26
HETATM   26  N1  UNL     1      24.165   6.853  50.889  1.00  0.00    -0.401 N 
HETATM   27  H8  UNL     1      25.027   7.429  50.791  1.00  0.00     0.156 HD
HETATM   28  H9  UNL     1      23.498   7.671  50.876  1.00  0.00     0.156 HD
ENDBRANCH   2  26
BRANCH   1  29
HETATM   29  C5  UNL     1      25.552   5.308  49.770  1.00  0.00    -0.066 C 
HETATM   30  C4  UNL     1      26.459   5.915  49.246  1.00  0.00    -0.064 C 
BRANCH  30  31
HETATM   31  C2  UNL     1      27.542   6.652  48.594  1.00  0.00     0.114 C 
HETATM   32  C1  UNL     1      27.005   7.419  47.382  1.00  0.00     0.060 C 
HETATM   33  C3  UNL     1      28.609   5.673  48.179  1.00  0.00     0.060 C 
BRANCH  31  34
HETATM   34  O1  UNL     1      28.124   7.593  49.431  1.00  0.00    -0.378 OA
HETATM   35  H7  UNL     1      27.624   7.608  50.308  1.00  0.00     0.211 HD
ENDBRANCH  31  34
ENDBRANCH  30  31
ENDBRANCH   1  29
TORSDOF 9
ENDMDL
