MODEL 1
REMARK VINA RESULT:      -7.1      0.000      0.000
REMARK  3 active torsions:
REMARK  status: ('A' for Active; 'I' for Inactive)
REMARK    1  A    between atoms: O1_2  and  C2_3 
REMARK    2  A    between atoms: S1_6  and  C5_7 
REMARK    3  A    between atoms: C14_19  and  O2_20 
ROOT
HETATM    1  C2  UNL     1      22.577   3.775  52.219  1.00  0.00     0.080 C 
HETATM    2  C3  UNL     1      23.801   3.768  52.723  1.00  0.00     0.042 C 
HETATM    3  C4  UNL     1      24.856   2.767  52.848  1.00  0.00     0.043 C 
HETATM    4  S1  UNL     1      25.138   1.134  52.576  1.00  0.00    -0.142 SA
HETATM    5  C11 UNL     1      23.905   0.107  53.561  1.00  0.00     0.222 C 
HETATM    6  N1  UNL     1      22.616   0.548  53.293  1.00  0.00    -0.273 NA
HETATM    7  C12 UNL     1      21.872   0.102  52.357  1.00  0.00     0.226 C 
HETATM    8  N2  UNL     1      20.763   0.928  52.638  1.00  0.00    -0.256 NA
HETATM    9  C13 UNL     1      20.699   2.148  52.288  1.00  0.00     0.129 C 
HETATM   10  C14 UNL     1      21.851   2.692  51.556  1.00  0.00     0.217 C 
ENDROOT
BRANCH   4  11
HETATM   11  C5  UNL     1      26.885   0.523  52.985  1.00  0.00    -0.002 A 
HETATM   12  C6  UNL     1      27.741   1.547  53.335  1.00  0.00     0.018 A 
HETATM   13  C7  UNL     1      29.034   1.164  53.645  1.00  0.00     0.003 A 
HETATM   14  C8  UNL     1      29.416  -0.170  53.601  1.00  0.00     0.024 A 
HETATM   15  C9  UNL     1      28.497  -1.133  53.240  1.00  0.00     0.035 A 
HETATM   16 CL1  UNL     1      28.960  -2.832  53.175  1.00  0.00    -0.084 Cl
HETATM   17  C10 UNL     1      27.193  -0.821  52.918  1.00  0.00     0.042 A 
ENDBRANCH   4  11
BRANCH   1  18
HETATM   18  O1  UNL     1      21.796   4.948  52.276  1.00  0.00    -0.357 OA
HETATM   19  C1  UNL     1      21.535   5.743  51.153  1.00  0.00     0.209 C 
ENDBRANCH   1  18
BRANCH  10  20
HETATM   20  O2  UNL     1      22.679   1.708  50.995  1.00  0.00    -0.379 OA
HETATM   21  C15 UNL     1      22.781   2.063  49.635  1.00  0.00     0.202 C 
ENDBRANCH  10  20
TORSDOF 3
ENDMDL
MODEL 2
REMARK VINA RESULT:      -6.9      2.390      3.310
REMARK  3 active torsions:
REMARK  status: ('A' for Active; 'I' for Inactive)
REMARK    1  A    between atoms: O1_2  and  C2_3 
REMARK    2  A    between atoms: S1_6  and  C5_7 
REMARK    3  A    between atoms: C14_19  and  O2_20 
ROOT
HETATM    1  C2  UNL     1      22.454   2.519  50.972  1.00  0.00     0.080 C 
HETATM    2  C3  UNL     1      23.144   1.480  51.416  1.00  0.00     0.042 C 
HETATM    3  C4  UNL     1      24.508   1.279  51.894  1.00  0.00     0.043 C 
HETATM    4  S1  UNL     1      25.961   2.104  52.063  1.00  0.00    -0.142 SA
HETATM    5  C11 UNL     1      26.532   2.732  50.382  1.00  0.00     0.222 C 
HETATM    6  N1  UNL     1      25.503   3.442  49.779  1.00  0.00    -0.273 NA
HETATM    7  C12 UNL     1      25.308   4.697  49.912  1.00  0.00     0.226 C 
HETATM    8  N2  UNL     1      24.171   4.763  49.077  1.00  0.00    -0.256 NA
HETATM    9  C13 UNL     1      23.011   4.407  49.455  1.00  0.00     0.129 C 
HETATM   10  C14 UNL     1      22.881   3.911  50.831  1.00  0.00     0.217 C 
ENDROOT
BRANCH   4  11
HETATM   11  C5  UNL     1      27.379   1.118  52.844  1.00  0.00    -0.002 A 
HETATM   12  C6  UNL     1      28.242   1.910  53.575  1.00  0.00     0.018 A 
HETATM   13  C7  UNL     1      29.300   1.247  54.170  1.00  0.00     0.003 A 
HETATM   14  C8  UNL     1      29.458  -0.125  54.028  1.00  0.00     0.024 A 
HETATM   15  C9  UNL     1      28.549  -0.844  53.280  1.00  0.00     0.035 A 
HETATM   16 CL1  UNL     1      28.729  -2.585  53.084  1.00  0.00    -0.084 Cl
HETATM   17  C10 UNL     1      27.473  -0.246  52.658  1.00  0.00     0.042 A 
ENDBRANCH   4  11
BRANCH   1  18
HETATM   18  O1  UNL     1      21.114   2.357  50.567  1.00  0.00    -0.357 OA
HETATM   19  C1  UNL     1      20.478   1.109  50.521  1.00  0.00     0.209 C 
ENDBRANCH   1  18
BRANCH  10  20
HETATM   20  O2  UNL     1      23.953   4.268  51.663  1.00  0.00    -0.379 OA
HETATM   21  C15 UNL     1      23.346   4.831  52.803  1.00  0.00     0.202 C 
ENDBRANCH  10  20
TORSDOF 3
ENDMDL
MODEL 3
REMARK VINA RESULT:      -6.7      2.323      2.699
REMARK  3 active torsions:
REMARK  status: ('A' for Active; 'I' for Inactive)
REMARK    1  A    between atoms: O1_2  and  C2_3 
REMARK    2  A    between atoms: S1_6  and  C5_7 
REMARK    3  A    between atoms: C14_19  and  O2_20 
ROOT
HETATM    1  C2  UNL     1      24.273   4.687  49.239  1.00  0.00     0.080 C 
HETATM    2  C3  UNL     1      25.486   4.285  49.585  1.00  0.00     0.042 C 
HETATM    3  C4  UNL     1      26.014   3.264  50.485  1.00  0.00     0.043 C 
HETATM    4  S1  UNL     1      25.498   2.145  51.626  1.00  0.00    -0.142 SA
HETATM    5  C11 UNL     1      24.570   3.030  53.005  1.00  0.00     0.222 C 
HETATM    6  N1  UNL     1      23.577   3.830  52.457  1.00  0.00    -0.273 NA
HETATM    7  C12 UNL     1      22.381   3.451  52.222  1.00  0.00     0.226 C 
HETATM    8  N2  UNL     1      21.930   4.684  51.705  1.00  0.00    -0.256 NA
HETATM    9  C13 UNL     1      22.179   5.073  50.521  1.00  0.00     0.129 C 
HETATM   10  C14 UNL     1      22.976   4.172  49.677  1.00  0.00     0.217 C 
ENDROOT
BRANCH   4  11
HETATM   11  C5  UNL     1      26.860   1.084  52.409  1.00  0.00    -0.002 A 
HETATM   12  C6  UNL     1      27.823   1.838  53.051  1.00  0.00     0.018 A 
HETATM   13  C7  UNL     1      28.845   1.119  53.643  1.00  0.00     0.003 A 
HETATM   14  C8  UNL     1      28.876  -0.268  53.582  1.00  0.00     0.024 A 
HETATM   15  C9  UNL     1      27.874  -0.945  52.920  1.00  0.00     0.035 A 
HETATM   16 CL1  UNL     1      27.892  -2.704  52.829  1.00  0.00    -0.084 Cl
HETATM   17  C10 UNL     1      26.825  -0.292  52.307  1.00  0.00     0.042 A 
ENDBRANCH   4  11
BRANCH   1  18
HETATM   18  O1  UNL     1      24.114   5.744  48.319  1.00  0.00    -0.357 OA
HETATM   19  C1  UNL     1      24.835   6.942  48.405  1.00  0.00     0.209 C 
ENDBRANCH   1  18
BRANCH  10  20
HETATM   20  O2  UNL     1      23.013   2.849  50.143  1.00  0.00    -0.379 OA
HETATM   21  C15 UNL     1      22.541   2.079  49.062  1.00  0.00     0.202 C 
ENDBRANCH  10  20
TORSDOF 3
ENDMDL
MODEL 4
REMARK VINA RESULT:      -6.6      3.836      5.110
REMARK  3 active torsions:
REMARK  status: ('A' for Active; 'I' for Inactive)
REMARK    1  A    between atoms: O1_2  and  C2_3 
REMARK    2  A    between atoms: S1_6  and  C5_7 
REMARK    3  A    between atoms: C14_19  and  O2_20 
ROOT
HETATM    1  C2  UNL     1      25.805   4.869  49.265  1.00  0.00     0.080 C 
HETATM    2  C3  UNL     1      26.142   3.814  49.989  1.00  0.00     0.042 C 
HETATM    3  C4  UNL     1      25.433   2.928  50.907  1.00  0.00     0.043 C 
HETATM    4  S1  UNL     1      23.938   2.754  51.653  1.00  0.00    -0.142 SA
HETATM    5  C11 UNL     1      23.561   4.289  52.678  1.00  0.00     0.222 C 
HETATM    6  N1  UNL     1      23.713   5.421  51.889  1.00  0.00    -0.273 NA
HETATM    7  C12 UNL     1      22.786   5.954  51.192  1.00  0.00     0.226 C 
HETATM    8  N2  UNL     1      23.570   7.009  50.678  1.00  0.00    -0.256 NA
HETATM    9  C13 UNL     1      24.389   6.861  49.718  1.00  0.00     0.129 C 
HETATM   10  C14 UNL     1      24.499   5.516  49.137  1.00  0.00     0.217 C 
ENDROOT
BRANCH   4  11
HETATM   11  C5  UNL     1      23.748   1.233  52.766  1.00  0.00    -0.002 A 
HETATM   12  C6  UNL     1      24.959   0.740  53.211  1.00  0.00     0.018 A 
HETATM   13  C7  UNL     1      24.885  -0.373  54.028  1.00  0.00     0.003 A 
HETATM   14  C8  UNL     1      23.662  -0.936  54.366  1.00  0.00     0.024 A 
HETATM   15  C9  UNL     1      22.497  -0.381  53.879  1.00  0.00     0.035 A 
HETATM   16 CL1  UNL     1      20.932  -1.078  54.293  1.00  0.00    -0.084 Cl
HETATM   17  C10 UNL     1      22.497   0.727  53.058  1.00  0.00     0.042 A 
ENDBRANCH   4  11
BRANCH   1  18
HETATM   18  O1  UNL     1      26.772   5.517  48.469  1.00  0.00    -0.357 OA
HETATM   19  C1  UNL     1      28.129   5.170  48.485  1.00  0.00     0.209 C 
ENDBRANCH   1  18
BRANCH  10  20
HETATM   20  O2  UNL     1      23.415   4.680  49.441  1.00  0.00    -0.379 OA
HETATM   21  C15 UNL     1      22.938   4.247  48.188  1.00  0.00     0.202 C 
ENDBRANCH  10  20
TORSDOF 3
ENDMDL
MODEL 5
REMARK VINA RESULT:      -6.4      9.340     11.423
REMARK  3 active torsions:
REMARK  status: ('A' for Active; 'I' for Inactive)
REMARK    1  A    between atoms: O1_2  and  C2_3 
REMARK    2  A    between atoms: S1_6  and  C5_7 
REMARK    3  A    between atoms: C14_19  and  O2_20 
ROOT
HETATM    1  C2  UNL     1      33.638   4.883  47.088  1.00  0.00     0.080 C 
HETATM    2  C3  UNL     1      32.478   4.340  47.421  1.00  0.00     0.042 C 
HETATM    3  C4  UNL     1      31.139   4.856  47.686  1.00  0.00     0.043 C 
HETATM    4  S1  UNL     1      30.313   6.311  47.841  1.00  0.00    -0.142 SA
HETATM    5  C11 UNL     1      31.093   7.337  49.215  1.00  0.00     0.222 C 
HETATM    6  N1  UNL     1      32.460   7.441  48.996  1.00  0.00    -0.273 NA
HETATM    7  C12 UNL     1      33.022   8.364  48.316  1.00  0.00     0.226 C 
HETATM    8  N2  UNL     1      34.343   7.899  48.493  1.00  0.00    -0.256 NA
HETATM    9  C13 UNL     1      34.833   6.931  47.831  1.00  0.00     0.129 C 
HETATM   10  C14 UNL     1      33.957   6.289  46.842  1.00  0.00     0.217 C 
ENDROOT
BRANCH   4  11
HETATM   11  C5  UNL     1      28.455   6.168  48.186  1.00  0.00    -0.002 A 
HETATM   12  C6  UNL     1      27.769   7.334  47.910  1.00  0.00     0.018 A 
HETATM   13  C7  UNL     1      26.406   7.293  48.142  1.00  0.00     0.003 A 
HETATM   14  C8  UNL     1      25.794   6.141  48.619  1.00  0.00     0.024 A 
HETATM   15  C9  UNL     1      26.554   5.017  48.869  1.00  0.00     0.035 A 
HETATM   16 CL1  UNL     1      25.800   3.545  49.476  1.00  0.00    -0.084 Cl
HETATM   17  C10 UNL     1      27.917   4.990  48.661  1.00  0.00     0.042 A 
ENDBRANCH   4  11
BRANCH   1  18
HETATM   18  O1  UNL     1      34.776   4.068  46.915  1.00  0.00    -0.357 OA
HETATM   19  C1  UNL     1      35.271   3.709  45.655  1.00  0.00     0.209 C 
ENDBRANCH   1  18
BRANCH  10  20
HETATM   20  O2  UNL     1      32.850   7.070  46.477  1.00  0.00    -0.379 OA
HETATM   21  C15 UNL     1      32.854   7.054  45.068  1.00  0.00     0.202 C 
ENDBRANCH  10  20
TORSDOF 3
ENDMDL
MODEL 6
REMARK VINA RESULT:      -6.3      3.783      5.037
REMARK  3 active torsions:
REMARK  status: ('A' for Active; 'I' for Inactive)
REMARK    1  A    between atoms: O1_2  and  C2_3 
REMARK    2  A    between atoms: S1_6  and  C5_7 
REMARK    3  A    between atoms: C14_19  and  O2_20 
ROOT
HETATM    1  C2  UNL     1      22.687   4.821  48.151  1.00  0.00     0.080 C 
HETATM    2  C3  UNL     1      22.775   3.552  48.516  1.00  0.00     0.042 C 
HETATM    3  C4  UNL     1      23.489   2.830  49.564  1.00  0.00     0.043 C 
HETATM    4  S1  UNL     1      24.624   3.083  50.776  1.00  0.00    -0.142 SA
HETATM    5  C11 UNL     1      26.209   3.767  50.023  1.00  0.00     0.222 C 
HETATM    6  N1  UNL     1      25.910   4.873  49.238  1.00  0.00    -0.273 NA
HETATM    7  C12 UNL     1      25.874   6.078  49.658  1.00  0.00     0.226 C 
HETATM    8  N2  UNL     1      25.536   6.660  48.417  1.00  0.00    -0.256 NA
HETATM    9  C13 UNL     1      24.357   6.650  47.944  1.00  0.00     0.129 C 
HETATM   10  C14 UNL     1      23.320   5.995  48.752  1.00  0.00     0.217 C 
ENDROOT
BRANCH   4  11
HETATM   11  C5  UNL     1      25.067   1.563  51.817  1.00  0.00    -0.002 A 
HETATM   12  C6  UNL     1      26.367   1.141  51.623  1.00  0.00     0.018 A 
HETATM   13  C7  UNL     1      26.751   0.033  52.356  1.00  0.00     0.003 A 
HETATM   14  C8  UNL     1      25.867  -0.592  53.225  1.00  0.00     0.024 A 
HETATM   15  C9  UNL     1      24.583  -0.107  53.362  1.00  0.00     0.035 A 
HETATM   16 CL1  UNL     1      23.444  -0.885  54.457  1.00  0.00    -0.084 Cl
HETATM   17  C10 UNL     1      24.135   0.993  52.660  1.00  0.00     0.042 A 
ENDBRANCH   4  11
BRANCH   1  18
HETATM   18  O1  UNL     1      21.889   5.186  47.048  1.00  0.00    -0.357 OA
HETATM   19  C1  UNL     1      21.957   4.534  45.809  1.00  0.00     0.209 C 
ENDBRANCH   1  18
BRANCH  10  20
HETATM   20  O2  UNL     1      23.677   5.825  50.098  1.00  0.00    -0.379 OA
HETATM   21  C15 UNL     1      22.602   6.376  50.823  1.00  0.00     0.202 C 
ENDBRANCH  10  20
TORSDOF 3
ENDMDL
MODEL 7
REMARK VINA RESULT:      -6.3      4.582      6.145
REMARK  3 active torsions:
REMARK  status: ('A' for Active; 'I' for Inactive)
REMARK    1  A    between atoms: O1_2  and  C2_3 
REMARK    2  A    between atoms: S1_6  and  C5_7 
REMARK    3  A    between atoms: C14_19  and  O2_20 
ROOT
HETATM    1  C2  UNL     1      25.389   1.234  52.012  1.00  0.00     0.080 C 
HETATM    2  C3  UNL     1      26.371   1.740  51.282  1.00  0.00     0.042 C 
HETATM    3  C4  UNL     1      26.543   2.954  50.490  1.00  0.00     0.043 C 
HETATM    4  S1  UNL     1      25.677   4.287  49.949  1.00  0.00    -0.142 SA
HETATM    5  C11 UNL     1      24.197   3.712  48.936  1.00  0.00     0.222 C 
HETATM    6  N1  UNL     1      23.472   2.778  49.665  1.00  0.00    -0.273 NA
HETATM    7  C12 UNL     1      22.514   3.058  50.460  1.00  0.00     0.226 C 
HETATM    8  N2  UNL     1      22.235   1.727  50.837  1.00  0.00    -0.256 NA
HETATM    9  C13 UNL     1      22.930   1.087  51.687  1.00  0.00     0.129 C 
HETATM   10  C14 UNL     1      24.067   1.796  52.288  1.00  0.00     0.217 C 
ENDROOT
BRANCH   4  11
HETATM   11  C5  UNL     1      26.656   5.538  48.916  1.00  0.00    -0.002 A 
HETATM   12  C6  UNL     1      25.883   6.599  48.486  1.00  0.00     0.018 A 
HETATM   13  C7  UNL     1      26.542   7.547  47.725  1.00  0.00     0.003 A 
HETATM   14  C8  UNL     1      27.893   7.417  47.430  1.00  0.00     0.024 A 
HETATM   15  C9  UNL     1      28.593   6.326  47.899  1.00  0.00     0.035 A 
HETATM   16 CL1  UNL     1      30.308   6.139  47.536  1.00  0.00    -0.084 Cl
HETATM   17  C10 UNL     1      27.999   5.343  48.661  1.00  0.00     0.042 A 
ENDBRANCH   4  11
BRANCH   1  18
HETATM   18  O1  UNL     1      25.557  -0.009  52.657  1.00  0.00    -0.357 OA
HETATM   19  C1  UNL     1      26.038  -0.127  53.968  1.00  0.00     0.209 C 
ENDBRANCH   1  18
BRANCH  10  20
HETATM   20  O2  UNL     1      23.999   3.190  52.152  1.00  0.00    -0.379 OA
HETATM   21  C15 UNL     1      24.220   3.685  53.453  1.00  0.00     0.202 C 
ENDBRANCH  10  20
TORSDOF 3
ENDMDL
MODEL 8
REMARK VINA RESULT:      -6.2      9.505     11.499
REMARK  3 active torsions:
REMARK  status: ('A' for Active; 'I' for Inactive)
REMARK    1  A    between atoms: O1_2  and  C2_3 
REMARK    2  A    between atoms: S1_6  and  C5_7 
REMARK    3  A    between atoms: C14_19  and  O2_20 
ROOT
HETATM    1  C2  UNL     1      33.377   5.282  47.124  1.00  0.00     0.080 C 
HETATM    2  C3  UNL     1      32.293   4.701  47.615  1.00  0.00     0.042 C 
HETATM    3  C4  UNL     1      30.911   5.117  47.831  1.00  0.00     0.043 C 
HETATM    4  S1  UNL     1      29.931   6.477  47.727  1.00  0.00    -0.142 SA
HETATM    5  C11 UNL     1      30.624   7.842  48.824  1.00  0.00     0.222 C 
HETATM    6  N1  UNL     1      31.965   8.041  48.525  1.00  0.00    -0.273 NA
HETATM    7  C12 UNL     1      32.403   8.857  47.646  1.00  0.00     0.226 C 
HETATM    8  N2  UNL     1      33.772   8.581  47.851  1.00  0.00    -0.256 NA
HETATM    9  C13 UNL     1      34.351   7.554  47.378  1.00  0.00     0.129 C 
HETATM   10  C14 UNL     1      33.529   6.632  46.583  1.00  0.00     0.217 C 
ENDROOT
BRANCH   4  11
HETATM   11  C5  UNL     1      28.110   6.214  48.180  1.00  0.00    -0.002 A 
HETATM   12  C6  UNL     1      27.864   4.959  48.700  1.00  0.00     0.018 A 
HETATM   13  C7  UNL     1      26.551   4.706  49.051  1.00  0.00     0.003 A 
HETATM   14  C8  UNL     1      25.565   5.669  48.882  1.00  0.00     0.024 A 
HETATM   15  C9  UNL     1      25.895   6.900  48.355  1.00  0.00     0.035 A 
HETATM   16 CL1  UNL     1      24.661   8.138  48.130  1.00  0.00    -0.084 Cl
HETATM   17  C10 UNL     1      27.184   7.219  47.983  1.00  0.00     0.042 A 
ENDBRANCH   4  11
BRANCH   1  18
HETATM   18  O1  UNL     1      34.594   4.573  47.067  1.00  0.00    -0.357 OA
HETATM   19  C1  UNL     1      34.814   3.379  47.767  1.00  0.00     0.209 C 
ENDBRANCH   1  18
BRANCH  10  20
HETATM   20  O2  UNL     1      32.333   7.200  46.119  1.00  0.00    -0.379 OA
HETATM   21  C15 UNL     1      32.330   6.940  44.734  1.00  0.00     0.202 C 
ENDBRANCH  10  20
TORSDOF 3
ENDMDL
MODEL 9
REMARK VINA RESULT:      -6.1      4.328      5.741
REMARK  3 active torsions:
REMARK  status: ('A' for Active; 'I' for Inactive)
REMARK    1  A    between atoms: O1_2  and  C2_3 
REMARK    2  A    between atoms: S1_6  and  C5_7 
REMARK    3  A    between atoms: C14_19  and  O2_20 
ROOT
HETATM    1  C2  UNL     1      22.935   1.436  52.563  1.00  0.00     0.080 C 
HETATM    2  C3  UNL     1      24.152   1.871  52.273  1.00  0.00     0.042 C 
HETATM    3  C4  UNL     1      24.701   2.830  51.320  1.00  0.00     0.043 C 
HETATM    4  S1  UNL     1      24.227   3.807  50.038  1.00  0.00    -0.142 SA
HETATM    5  C11 UNL     1      23.459   2.745  48.686  1.00  0.00     0.222 C 
HETATM    6  N1  UNL     1      22.464   1.946  49.233  1.00  0.00    -0.273 NA
HETATM    7  C12 UNL     1      21.236   2.278  49.337  1.00  0.00     0.226 C 
HETATM    8  N2  UNL     1      20.804   1.075  49.937  1.00  0.00    -0.256 NA
HETATM    9  C13 UNL     1      20.974   0.814  51.169  1.00  0.00     0.129 C 
HETATM   10  C14 UNL     1      21.655   1.834  51.978  1.00  0.00     0.217 C 
ENDROOT
BRANCH   4  11
HETATM   11  C5  UNL     1      25.595   4.863  49.261  1.00  0.00    -0.002 A 
HETATM   12  C6  UNL     1      26.807   4.204  49.193  1.00  0.00     0.018 A 
HETATM   13  C7  UNL     1      27.847   4.925  48.635  1.00  0.00     0.003 A 
HETATM   14  C8  UNL     1      27.657   6.223  48.180  1.00  0.00     0.024 A 
HETATM   15  C9  UNL     1      26.413   6.809  48.286  1.00  0.00     0.035 A 
HETATM   16 CL1  UNL     1      26.149   8.455  47.716  1.00  0.00    -0.084 Cl
HETATM   17  C10 UNL     1      25.333   6.148  48.832  1.00  0.00     0.042 A 
ENDBRANCH   4  11
BRANCH   1  18
HETATM   18  O1  UNL     1      22.754   0.464  53.568  1.00  0.00    -0.357 OA
HETATM   19  C1  UNL     1      23.322  -0.815  53.501  1.00  0.00     0.209 C 
ENDBRANCH   1  18
BRANCH  10  20
HETATM   20  O2  UNL     1      21.666   3.107  51.389  1.00  0.00    -0.379 OA
HETATM   21  C15 UNL     1      21.075   3.949  52.352  1.00  0.00     0.202 C 
ENDBRANCH  10  20
TORSDOF 3
ENDMDL
