MODEL 1
REMARK VINA RESULT:      -8.9      0.000      0.000
REMARK  3 active torsions:
REMARK  status: ('A' for Active; 'I' for Inactive)
REMARK    1  A    between atoms: C10_12  and  C11_13 
REMARK    2  A    between atoms: C11_13  and  C12_14 
REMARK    3  A    between atoms: C12_14  and  C13_15 
ROOT
HETATM    1  C1  UNL     1      22.902   1.461  51.122  1.00  0.00     0.118 A 
HETATM    2  N1  UNL     1      21.637   1.210  51.076  1.00  0.00    -0.260 NA
HETATM    3  C2  UNL     1      20.830   0.426  51.948  1.00  0.00     0.070 A 
HETATM    4  C3  UNL     1      19.482   0.363  51.618  1.00  0.00     0.032 A 
HETATM    5  C4  UNL     1      18.624  -0.411  52.407  1.00  0.00     0.005 A 
HETATM    6  C5  UNL     1      19.083  -1.121  53.516  1.00  0.00     0.038 A 
HETATM    7  C6  UNL     1      20.419  -1.079  53.872  1.00  0.00     0.088 A 
HETATM    8  O1  UNL     1      21.176  -1.605  54.818  1.00  0.00    -0.321 OA
HETATM    9  C7  UNL     1      22.426  -1.233  54.696  1.00  0.00     0.155 A 
HETATM   10  C8  UNL     1      22.480  -0.409  53.598  1.00  0.00     0.008 A 
HETATM   11  C9  UNL     1      21.216  -0.299  53.056  1.00  0.00     0.039 A 
HETATM   12  C10 UNL     1      23.742   0.189  53.201  1.00  0.00    -0.043 A 
HETATM   13  C19 UNL     1      23.853   0.985  52.122  1.00  0.00     0.027 A 
ENDROOT
BRANCH  12  14
HETATM   14  C11 UNL     1      25.013  -0.013  53.915  1.00  0.00     0.044 C 
BRANCH  14  15
HETATM   15  C12 UNL     1      26.092   0.968  53.627  1.00  0.00     0.043 C 
BRANCH  15  16
HETATM   16  C13 UNL     1      27.442   0.296  53.554  1.00  0.00    -0.058 A 
HETATM   17  C14 UNL     1      28.619   0.953  53.844  1.00  0.00     0.007 A 
HETATM   18  C15 UNL     1      29.796   0.219  53.739  1.00  0.00     0.001 A 
HETATM   19  C16 UNL     1      29.815  -1.117  53.357  1.00  0.00     0.000 A 
HETATM   20  C17 UNL     1      28.617  -1.768  53.066  1.00  0.00     0.001 A 
HETATM   21  C18 UNL     1      27.456  -1.030  53.175  1.00  0.00     0.007 A 
ENDBRANCH  15  16
ENDBRANCH  14  15
ENDBRANCH  12  14
TORSDOF 3
ENDMDL
MODEL 2
REMARK VINA RESULT:      -8.8      1.612      2.492
REMARK  3 active torsions:
REMARK  status: ('A' for Active; 'I' for Inactive)
REMARK    1  A    between atoms: C10_12  and  C11_13 
REMARK    2  A    between atoms: C11_13  and  C12_14 
REMARK    3  A    between atoms: C12_14  and  C13_15 
ROOT
HETATM    1  C1  UNL     1      22.442  -1.488  55.170  1.00  0.00     0.118 A 
HETATM    2  N1  UNL     1      21.205  -1.488  54.801  1.00  0.00    -0.260 NA
HETATM    3  C2  UNL     1      20.590  -0.870  53.675  1.00  0.00     0.070 A 
HETATM    4  C3  UNL     1      19.221  -1.071  53.558  1.00  0.00     0.032 A 
HETATM    5  C4  UNL     1      18.533  -0.473  52.496  1.00  0.00     0.005 A 
HETATM    6  C5  UNL     1      19.184   0.318  51.550  1.00  0.00     0.038 A 
HETATM    7  C6  UNL     1      20.547   0.538  51.637  1.00  0.00     0.088 A 
HETATM    8  O1  UNL     1      21.456   1.205  50.949  1.00  0.00    -0.321 OA
HETATM    9  C7  UNL     1      22.647   1.081  51.481  1.00  0.00     0.155 A 
HETATM   10  C8  UNL     1      22.498   0.277  52.585  1.00  0.00     0.008 A 
HETATM   11  C9  UNL     1      21.170  -0.078  52.706  1.00  0.00     0.039 A 
HETATM   12  C10 UNL     1      23.653  -0.068  53.393  1.00  0.00    -0.043 A 
HETATM   13  C19 UNL     1      23.557  -0.833  54.496  1.00  0.00     0.027 A 
ENDROOT
BRANCH  12  14
HETATM   14  C11 UNL     1      25.026   0.380  53.107  1.00  0.00     0.044 C 
BRANCH  14  15
HETATM   15  C12 UNL     1      25.935  -0.631  52.507  1.00  0.00     0.043 C 
BRANCH  15  16
HETATM   16  C13 UNL     1      27.367  -0.403  52.929  1.00  0.00    -0.058 A 
HETATM   17  C14 UNL     1      27.876   0.850  53.197  1.00  0.00     0.007 A 
HETATM   18  C15 UNL     1      29.211   0.924  53.577  1.00  0.00     0.001 A 
HETATM   19  C16 UNL     1      30.022  -0.199  53.688  1.00  0.00     0.000 A 
HETATM   20  C17 UNL     1      29.494  -1.460  53.414  1.00  0.00     0.001 A 
HETATM   21  C18 UNL     1      28.168  -1.521  53.038  1.00  0.00     0.007 A 
ENDBRANCH  15  16
ENDBRANCH  14  15
ENDBRANCH  12  14
TORSDOF 3
ENDMDL
MODEL 3
REMARK VINA RESULT:      -8.7      2.186      7.398
REMARK  3 active torsions:
REMARK  status: ('A' for Active; 'I' for Inactive)
REMARK    1  A    between atoms: C10_12  and  C11_13 
REMARK    2  A    between atoms: C11_13  and  C12_14 
REMARK    3  A    between atoms: C12_14  and  C13_15 
ROOT
HETATM    1  C1  UNL     1      26.106   2.387  53.790  1.00  0.00     0.118 A 
HETATM    2  N1  UNL     1      27.361   2.120  53.938  1.00  0.00    -0.260 NA
HETATM    3  C2  UNL     1      28.066   0.902  53.722  1.00  0.00     0.070 A 
HETATM    4  C3  UNL     1      29.431   0.951  53.969  1.00  0.00     0.032 A 
HETATM    5  C4  UNL     1      30.194  -0.211  53.810  1.00  0.00     0.005 A 
HETATM    6  C5  UNL     1      29.622  -1.418  53.409  1.00  0.00     0.038 A 
HETATM    7  C6  UNL     1      28.265  -1.501  53.154  1.00  0.00     0.088 A 
HETATM    8  O1  UNL     1      27.416  -2.439  52.774  1.00  0.00    -0.321 OA
HETATM    9  C7  UNL     1      26.195  -1.974  52.680  1.00  0.00     0.155 A 
HETATM   10  C8  UNL     1      26.260  -0.644  53.020  1.00  0.00     0.008 A 
HETATM   11  C9  UNL     1      27.565  -0.321  53.328  1.00  0.00     0.039 A 
HETATM   12  C10 UNL     1      25.058   0.170  52.999  1.00  0.00    -0.043 A 
HETATM   13  C19 UNL     1      25.063   1.470  53.344  1.00  0.00     0.027 A 
ENDROOT
BRANCH  12  14
HETATM   14  C11 UNL     1      23.728  -0.331  52.616  1.00  0.00     0.044 C 
BRANCH  14  15
HETATM   15  C12 UNL     1      22.731  -0.456  53.712  1.00  0.00     0.043 C 
BRANCH  15  16
HETATM   16  C13 UNL     1      21.319  -0.390  53.182  1.00  0.00    -0.058 A 
HETATM   17  C14 UNL     1      20.244  -0.930  53.854  1.00  0.00     0.007 A 
HETATM   18  C15 UNL     1      18.994  -0.801  53.258  1.00  0.00     0.001 A 
HETATM   19  C16 UNL     1      18.808  -0.162  52.038  1.00  0.00     0.000 A 
HETATM   20  C17 UNL     1      19.905   0.379  51.369  1.00  0.00     0.001 A 
HETATM   21  C18 UNL     1      21.139   0.245  51.971  1.00  0.00     0.007 A 
ENDBRANCH  15  16
ENDBRANCH  14  15
ENDBRANCH  12  14
TORSDOF 3
ENDMDL
MODEL 4
REMARK VINA RESULT:      -8.4      3.913      5.362
REMARK  3 active torsions:
REMARK  status: ('A' for Active; 'I' for Inactive)
REMARK    1  A    between atoms: C10_12  and  C11_13 
REMARK    2  A    between atoms: C11_13  and  C12_14 
REMARK    3  A    between atoms: C12_14  and  C13_15 
ROOT
HETATM    1  C1  UNL     1      25.945   0.245  52.723  1.00  0.00     0.118 A 
HETATM    2  N1  UNL     1      25.088  -0.352  53.482  1.00  0.00    -0.260 NA
HETATM    3  C2  UNL     1      23.688  -0.135  53.625  1.00  0.00     0.070 A 
HETATM    4  C3  UNL     1      23.045  -0.964  54.534  1.00  0.00     0.032 A 
HETATM    5  C4  UNL     1      21.674  -0.796  54.757  1.00  0.00     0.005 A 
HETATM    6  C5  UNL     1      20.933   0.180  54.091  1.00  0.00     0.038 A 
HETATM    7  C6  UNL     1      21.544   1.022  53.178  1.00  0.00     0.088 A 
HETATM    8  O1  UNL     1      21.171   2.020  52.396  1.00  0.00    -0.321 OA
HETATM    9  C7  UNL     1      22.179   2.491  51.706  1.00  0.00     0.155 A 
HETATM   10  C8  UNL     1      23.278   1.746  52.064  1.00  0.00     0.008 A 
HETATM   11  C9  UNL     1      22.898   0.808  53.001  1.00  0.00     0.039 A 
HETATM   12  C10 UNL     1      24.567   2.015  51.454  1.00  0.00    -0.043 A 
HETATM   13  C19 UNL     1      25.676   1.330  51.786  1.00  0.00     0.027 A 
ENDROOT
BRANCH  12  14
HETATM   14  C11 UNL     1      24.799   3.052  50.435  1.00  0.00     0.044 C 
BRANCH  14  15
HETATM   15  C12 UNL     1      26.165   3.105  49.851  1.00  0.00     0.043 C 
BRANCH  15  16
HETATM   16  C13 UNL     1      26.451   4.456  49.241  1.00  0.00    -0.058 A 
HETATM   17  C14 UNL     1      25.490   5.438  49.117  1.00  0.00     0.007 A 
HETATM   18  C15 UNL     1      25.883   6.639  48.537  1.00  0.00     0.001 A 
HETATM   19  C16 UNL     1      27.179   6.867  48.091  1.00  0.00     0.000 A 
HETATM   20  C17 UNL     1      28.140   5.866  48.223  1.00  0.00     0.001 A 
HETATM   21  C18 UNL     1      27.739   4.679  48.800  1.00  0.00     0.007 A 
ENDBRANCH  15  16
ENDBRANCH  14  15
ENDBRANCH  12  14
TORSDOF 3
ENDMDL
MODEL 5
REMARK VINA RESULT:      -8.2      3.626      4.994
REMARK  3 active torsions:
REMARK  status: ('A' for Active; 'I' for Inactive)
REMARK    1  A    between atoms: C10_12  and  C11_13 
REMARK    2  A    between atoms: C11_13  and  C12_14 
REMARK    3  A    between atoms: C12_14  and  C13_15 
ROOT
HETATM    1  C1  UNL     1      21.195   3.021  52.015  1.00  0.00     0.118 A 
HETATM    2  N1  UNL     1      20.736   2.048  52.728  1.00  0.00    -0.260 NA
HETATM    3  C2  UNL     1      21.422   0.954  53.329  1.00  0.00     0.070 A 
HETATM    4  C3  UNL     1      20.625   0.072  54.048  1.00  0.00     0.032 A 
HETATM    5  C4  UNL     1      21.217  -1.047  54.645  1.00  0.00     0.005 A 
HETATM    6  C5  UNL     1      22.584  -1.302  54.539  1.00  0.00     0.038 A 
HETATM    7  C6  UNL     1      23.405  -0.443  53.831  1.00  0.00     0.088 A 
HETATM    8  O1  UNL     1      24.690  -0.373  53.533  1.00  0.00    -0.321 OA
HETATM    9  C7  UNL     1      24.959   0.683  52.806  1.00  0.00     0.155 A 
HETATM   10  C8  UNL     1      23.766   1.342  52.624  1.00  0.00     0.008 A 
HETATM   11  C9  UNL     1      22.764   0.643  53.265  1.00  0.00     0.039 A 
HETATM   12  C10 UNL     1      23.729   2.578  51.863  1.00  0.00    -0.043 A 
HETATM   13  C19 UNL     1      22.585   3.249  51.638  1.00  0.00     0.027 A 
ENDROOT
BRANCH  12  14
HETATM   14  C11 UNL     1      24.912   3.212  51.259  1.00  0.00     0.044 C 
BRANCH  14  15
HETATM   15  C12 UNL     1      24.946   3.259  49.774  1.00  0.00     0.043 C 
BRANCH  15  16
HETATM   16  C13 UNL     1      25.763   4.427  49.278  1.00  0.00    -0.058 A 
HETATM   17  C14 UNL     1      25.228   5.683  49.082  1.00  0.00     0.007 A 
HETATM   18  C15 UNL     1      26.089   6.674  48.623  1.00  0.00     0.001 A 
HETATM   19  C16 UNL     1      27.433   6.436  48.362  1.00  0.00     0.000 A 
HETATM   20  C17 UNL     1      27.961   5.162  48.564  1.00  0.00     0.001 A 
HETATM   21  C18 UNL     1      27.097   4.187  49.021  1.00  0.00     0.007 A 
ENDBRANCH  15  16
ENDBRANCH  14  15
ENDBRANCH  12  14
TORSDOF 3
ENDMDL
MODEL 6
REMARK VINA RESULT:      -7.8      4.341      6.426
REMARK  3 active torsions:
REMARK  status: ('A' for Active; 'I' for Inactive)
REMARK    1  A    between atoms: C10_12  and  C11_13 
REMARK    2  A    between atoms: C11_13  and  C12_14 
REMARK    3  A    between atoms: C12_14  and  C13_15 
ROOT
HETATM    1  C1  UNL     1      23.068   5.380  51.466  1.00  0.00     0.118 A 
HETATM    2  N1  UNL     1      23.781   6.218  50.791  1.00  0.00    -0.260 NA
HETATM    3  C2  UNL     1      24.968   6.004  50.035  1.00  0.00     0.070 A 
HETATM    4  C3  UNL     1      25.491   7.130  49.412  1.00  0.00     0.032 A 
HETATM    5  C4  UNL     1      26.674   7.012  48.674  1.00  0.00     0.005 A 
HETATM    6  C5  UNL     1      27.344   5.795  48.545  1.00  0.00     0.038 A 
HETATM    7  C6  UNL     1      26.849   4.655  49.153  1.00  0.00     0.088 A 
HETATM    8  O1  UNL     1      27.205   3.386  49.243  1.00  0.00    -0.321 OA
HETATM    9  C7  UNL     1      26.357   2.699  49.967  1.00  0.00     0.155 A 
HETATM   10  C8  UNL     1      25.386   3.583  50.370  1.00  0.00     0.008 A 
HETATM   11  C9  UNL     1      25.679   4.834  49.866  1.00  0.00     0.039 A 
HETATM   12  C10 UNL     1      24.277   3.122  51.186  1.00  0.00    -0.043 A 
HETATM   13  C19 UNL     1      23.313   3.951  51.625  1.00  0.00     0.027 A 
ENDROOT
BRANCH  12  14
HETATM   14  C11 UNL     1      24.096   1.728  51.621  1.00  0.00     0.044 C 
BRANCH  14  15
HETATM   15  C12 UNL     1      24.462   1.426  53.030  1.00  0.00     0.043 C 
BRANCH  15  16
HETATM   16  C13 UNL     1      25.865   0.878  53.129  1.00  0.00    -0.058 A 
HETATM   17  C14 UNL     1      26.203  -0.390  52.706  1.00  0.00     0.007 A 
HETATM   18  C15 UNL     1      27.532  -0.774  52.853  1.00  0.00     0.001 A 
HETATM   19  C16 UNL     1      28.497   0.062  53.401  1.00  0.00     0.000 A 
HETATM   20  C17 UNL     1      28.141   1.342  53.825  1.00  0.00     0.001 A 
HETATM   21  C18 UNL     1      26.820   1.711  53.674  1.00  0.00     0.007 A 
ENDBRANCH  15  16
ENDBRANCH  14  15
ENDBRANCH  12  14
TORSDOF 3
ENDMDL
MODEL 7
REMARK VINA RESULT:      -7.8      2.257      3.419
REMARK  3 active torsions:
REMARK  status: ('A' for Active; 'I' for Inactive)
REMARK    1  A    between atoms: C10_12  and  C11_13 
REMARK    2  A    between atoms: C11_13  and  C12_14 
REMARK    3  A    between atoms: C12_14  and  C13_15 
ROOT
HETATM    1  C1  UNL     1      22.415  -0.217  53.465  1.00  0.00     0.118 A 
HETATM    2  N1  UNL     1      21.329   0.435  53.216  1.00  0.00    -0.260 NA
HETATM    3  C2  UNL     1      21.144   1.681  52.553  1.00  0.00     0.070 A 
HETATM    4  C3  UNL     1      19.827   2.108  52.440  1.00  0.00     0.032 A 
HETATM    5  C4  UNL     1      19.561   3.338  51.829  1.00  0.00     0.005 A 
HETATM    6  C5  UNL     1      20.579   4.148  51.328  1.00  0.00     0.038 A 
HETATM    7  C6  UNL     1      21.901   3.752  51.424  1.00  0.00     0.088 A 
HETATM    8  O1  UNL     1      23.077   4.244  51.076  1.00  0.00    -0.321 OA
HETATM    9  C7  UNL     1      24.054   3.439  51.412  1.00  0.00     0.155 A 
HETATM   10  C8  UNL     1      23.469   2.351  52.016  1.00  0.00     0.008 A 
HETATM   11  C9  UNL     1      22.102   2.530  52.037  1.00  0.00     0.039 A 
HETATM   12  C10 UNL     1      24.294   1.256  52.494  1.00  0.00    -0.043 A 
HETATM   13  C19 UNL     1      23.774   0.180  53.111  1.00  0.00     0.027 A 
ENDROOT
BRANCH  12  14
HETATM   14  C11 UNL     1      25.760   1.210  52.367  1.00  0.00     0.044 C 
BRANCH  14  15
HETATM   15  C12 UNL     1      26.517   0.914  53.612  1.00  0.00     0.043 C 
BRANCH  15  16
HETATM   16  C13 UNL     1      27.440  -0.266  53.427  1.00  0.00    -0.058 A 
HETATM   17  C14 UNL     1      27.013  -1.477  52.926  1.00  0.00     0.007 A 
HETATM   18  C15 UNL     1      27.964  -2.485  52.805  1.00  0.00     0.001 A 
HETATM   19  C16 UNL     1      29.294  -2.307  53.168  1.00  0.00     0.000 A 
HETATM   20  C17 UNL     1      29.712  -1.077  53.674  1.00  0.00     0.001 A 
HETATM   21  C18 UNL     1      28.759  -0.085  53.789  1.00  0.00     0.007 A 
ENDBRANCH  15  16
ENDBRANCH  14  15
ENDBRANCH  12  14
TORSDOF 3
ENDMDL
MODEL 8
REMARK VINA RESULT:      -7.7      4.620      7.374
REMARK  3 active torsions:
REMARK  status: ('A' for Active; 'I' for Inactive)
REMARK    1  A    between atoms: C10_12  and  C11_13 
REMARK    2  A    between atoms: C11_13  and  C12_14 
REMARK    3  A    between atoms: C12_14  and  C13_15 
ROOT
HETATM    1  C1  UNL     1      23.407   5.784  51.482  1.00  0.00     0.118 A 
HETATM    2  N1  UNL     1      24.158   6.594  50.814  1.00  0.00    -0.260 NA
HETATM    3  C2  UNL     1      25.296   6.323  50.002  1.00  0.00     0.070 A 
HETATM    4  C3  UNL     1      25.881   7.432  49.406  1.00  0.00     0.032 A 
HETATM    5  C4  UNL     1      27.023   7.256  48.615  1.00  0.00     0.005 A 
HETATM    6  C5  UNL     1      27.589   5.999  48.408  1.00  0.00     0.038 A 
HETATM    7  C6  UNL     1      27.030   4.874  48.987  1.00  0.00     0.088 A 
HETATM    8  O1  UNL     1      27.288   3.579  49.009  1.00  0.00    -0.321 OA
HETATM    9  C7  UNL     1      26.416   2.927  49.738  1.00  0.00     0.155 A 
HETATM   10  C8  UNL     1      25.533   3.865  50.217  1.00  0.00     0.008 A 
HETATM   11  C9  UNL     1      25.905   5.110  49.755  1.00  0.00     0.039 A 
HETATM   12  C10 UNL     1      24.424   3.454  51.058  1.00  0.00    -0.043 A 
HETATM   13  C19 UNL     1      23.545   4.334  51.570  1.00  0.00     0.027 A 
ENDROOT
BRANCH  12  14
HETATM   14  C11 UNL     1      24.150   2.059  51.441  1.00  0.00     0.044 C 
BRANCH  14  15
HETATM   15  C12 UNL     1      22.784   1.775  51.954  1.00  0.00     0.043 C 
BRANCH  15  16
HETATM   16  C13 UNL     1      22.811   0.725  53.039  1.00  0.00    -0.058 A 
HETATM   17  C14 UNL     1      23.961   0.057  53.403  1.00  0.00     0.007 A 
HETATM   18  C15 UNL     1      23.851  -0.887  54.419  1.00  0.00     0.001 A 
HETATM   19  C16 UNL     1      22.647  -1.167  55.054  1.00  0.00     0.000 A 
HETATM   20  C17 UNL     1      21.492  -0.483  54.676  1.00  0.00     0.001 A 
HETATM   21  C18 UNL     1      21.614   0.451  53.668  1.00  0.00     0.007 A 
ENDBRANCH  15  16
ENDBRANCH  14  15
ENDBRANCH  12  14
TORSDOF 3
ENDMDL
MODEL 9
REMARK VINA RESULT:      -7.5      3.400      5.026
REMARK  3 active torsions:
REMARK  status: ('A' for Active; 'I' for Inactive)
REMARK    1  A    between atoms: C10_12  and  C11_13 
REMARK    2  A    between atoms: C11_13  and  C12_14 
REMARK    3  A    between atoms: C12_14  and  C13_15 
ROOT
HETATM    1  C1  UNL     1      23.745   0.560  53.118  1.00  0.00     0.118 A 
HETATM    2  N1  UNL     1      22.665  -0.009  53.536  1.00  0.00    -0.260 NA
HETATM    3  C2  UNL     1      21.366  -0.041  52.953  1.00  0.00     0.070 A 
HETATM    4  C3  UNL     1      20.411  -0.758  53.661  1.00  0.00     0.032 A 
HETATM    5  C4  UNL     1      19.101  -0.814  53.172  1.00  0.00     0.005 A 
HETATM    6  C5  UNL     1      18.726  -0.171  51.993  1.00  0.00     0.038 A 
HETATM    7  C6  UNL     1      19.654   0.551  51.263  1.00  0.00     0.088 A 
HETATM    8  O1  UNL     1      19.655   1.261  50.149  1.00  0.00    -0.321 OA
HETATM    9  C7  UNL     1      20.840   1.755  49.894  1.00  0.00     0.155 A 
HETATM   10  C8  UNL     1      21.663   1.334  50.912  1.00  0.00     0.008 A 
HETATM   11  C9  UNL     1      20.929   0.570  51.795  1.00  0.00     0.039 A 
HETATM   12  C10 UNL     1      23.066   1.707  50.912  1.00  0.00    -0.043 A 
HETATM   13  C19 UNL     1      23.907   1.340  51.896  1.00  0.00     0.027 A 
ENDROOT
BRANCH  12  14
HETATM   14  C11 UNL     1      23.705   2.518  49.864  1.00  0.00     0.044 C 
BRANCH  14  15
HETATM   15  C12 UNL     1      23.685   3.991  50.068  1.00  0.00     0.043 C 
BRANCH  15  16
HETATM   16  C13 UNL     1      24.923   4.642  49.501  1.00  0.00    -0.058 A 
HETATM   17  C14 UNL     1      24.926   5.925  48.994  1.00  0.00     0.007 A 
HETATM   18  C15 UNL     1      26.133   6.409  48.501  1.00  0.00     0.001 A 
HETATM   19  C16 UNL     1      27.300   5.654  48.504  1.00  0.00     0.000 A 
HETATM   20  C17 UNL     1      27.282   4.358  49.020  1.00  0.00     0.001 A 
HETATM   21  C18 UNL     1      26.079   3.890  49.506  1.00  0.00     0.007 A 
ENDBRANCH  15  16
ENDBRANCH  14  15
ENDBRANCH  12  14
TORSDOF 3
ENDMDL
