MODEL 1
REMARK VINA RESULT:      -8.0      0.000      0.000
REMARK  4 active torsions:
REMARK  status: ('A' for Active; 'I' for Inactive)
REMARK    1  A    between atoms: O1_2  and  C2_3 
REMARK    2  A    between atoms: C7_8  and  O2_9 
REMARK    3  A    between atoms: C11_16  and  C12_17 
REMARK    4  A    between atoms: C12_17  and  N3_18 
ROOT
HETATM    1  C2  UNL     1      18.879   0.294  51.006  1.00  0.00     0.102 A 
HETATM    2  C3  UNL     1      20.158   0.797  51.134  1.00  0.00     0.051 A 
HETATM    3  C4  UNL     1      20.953   0.552  52.241  1.00  0.00    -0.004 A 
HETATM    4  C5  UNL     1      20.383  -0.239  53.229  1.00  0.00     0.088 A 
HETATM    5  C6  UNL     1      19.113  -0.754  53.131  1.00  0.00     0.077 A 
HETATM    6  C7  UNL     1      18.336  -0.497  52.017  1.00  0.00     0.104 A 
HETATM    7  O3  UNL     1      21.036  -0.597  54.426  1.00  0.00    -0.289 OA
HETATM    8  C9  UNL     1      22.394  -0.715  54.612  1.00  0.00     0.200 A 
HETATM    9  N1  UNL     1      22.661  -1.541  55.654  1.00  0.00    -0.215 NA
HETATM   10  C10 UNL     1      23.943  -1.736  55.934  1.00  0.00     0.236 A 
HETATM   11  N2  UNL     1      24.941  -1.185  55.272  1.00  0.00    -0.241 NA
HETATM   12  C11 UNL     1      24.833  -0.333  54.202  1.00  0.00     0.112 A 
HETATM   13  C17 UNL     1      23.471  -0.149  53.932  1.00  0.00     0.110 A 
HETATM   14  N4  UNL     1      23.311   0.717  52.841  1.00  0.00    -0.380 N 
HETATM   15  C18 UNL     1      22.235   1.232  52.045  1.00  0.00     0.161 C 
HETATM   16  H16 UNL     1      24.184   1.099  52.500  1.00  0.00     0.160 HD
ENDROOT
BRANCH  12  17
HETATM   17  C12 UNL     1      25.934   0.241  53.517  1.00  0.00     0.237 A 
HETATM   18  C13 UNL     1      26.319   1.655  53.711  1.00  0.00     0.025 A 
HETATM   19  C14 UNL     1      26.840   2.090  52.542  1.00  0.00    -0.001 A 
HETATM   20  C15 UNL     1      26.806   0.984  51.556  1.00  0.00    -0.001 A 
HETATM   21  C16 UNL     1      26.267  -0.113  52.132  1.00  0.00     0.025 A 
BRANCH  17  22
HETATM   22  N3  UNL     1      27.130  -0.387  54.193  1.00  0.00     0.101 N 
HETATM   23  H10 UNL     1      27.818  -0.682  53.491  1.00  0.00     0.315 HD
HETATM   24  H11 UNL     1      26.794  -1.230  54.700  1.00  0.00     0.315 HD
ENDBRANCH  17  22
ENDBRANCH  12  17
BRANCH   6  25
HETATM   25  O2  UNL     1      17.064  -1.016  51.924  1.00  0.00    -0.353 OA
HETATM   26  C8  UNL     1      16.036  -0.403  52.678  1.00  0.00     0.210 C 
ENDBRANCH   6  25
BRANCH   1  27
HETATM   27  O1  UNL     1      18.049   0.513  49.919  1.00  0.00    -0.353 OA
HETATM   28  C1  UNL     1      17.325   1.741  49.780  1.00  0.00     0.210 C 
ENDBRANCH   1  27
TORSDOF 4
ENDMDL
MODEL 2
REMARK VINA RESULT:      -7.7      4.660      7.384
REMARK  4 active torsions:
REMARK  status: ('A' for Active; 'I' for Inactive)
REMARK    1  A    between atoms: O1_2  and  C2_3 
REMARK    2  A    between atoms: C7_8  and  O2_9 
REMARK    3  A    between atoms: C11_16  and  C12_17 
REMARK    4  A    between atoms: C12_17  and  N3_18 
ROOT
HETATM    1  C2  UNL     1      26.862  -0.066  53.353  1.00  0.00     0.102 A 
HETATM    2  C3  UNL     1      27.048   0.883  52.368  1.00  0.00     0.051 A 
HETATM    3  C4  UNL     1      26.031   1.708  51.919  1.00  0.00    -0.004 A 
HETATM    4  C5  UNL     1      24.795   1.524  52.525  1.00  0.00     0.088 A 
HETATM    5  C6  UNL     1      24.578   0.589  53.507  1.00  0.00     0.077 A 
HETATM    6  C7  UNL     1      25.608  -0.225  53.940  1.00  0.00     0.104 A 
HETATM    7  O3  UNL     1      23.642   2.268  52.201  1.00  0.00    -0.289 OA
HETATM    8  C9  UNL     1      23.609   3.549  51.702  1.00  0.00     0.200 A 
HETATM    9  N1  UNL     1      22.421   4.140  51.986  1.00  0.00    -0.215 NA
HETATM   10  C10 UNL     1      22.268   5.385  51.555  1.00  0.00     0.236 A 
HETATM   11  N2  UNL     1      23.183   6.058  50.885  1.00  0.00    -0.241 NA
HETATM   12  C11 UNL     1      24.425   5.600  50.523  1.00  0.00     0.112 A 
HETATM   13  C17 UNL     1      24.555   4.287  50.993  1.00  0.00     0.110 A 
HETATM   14  N4  UNL     1      25.814   3.777  50.648  1.00  0.00    -0.380 N 
HETATM   15  C18 UNL     1      26.575   2.584  50.880  1.00  0.00     0.161 C 
HETATM   16  H16 UNL     1      26.360   4.408  50.074  1.00  0.00     0.160 HD
ENDROOT
BRANCH  12  17
HETATM   17  C12 UNL     1      25.381   6.357  49.799  1.00  0.00     0.237 A 
HETATM   18  C13 UNL     1      24.977   7.409  48.842  1.00  0.00     0.025 A 
HETATM   19  C14 UNL     1      25.913   7.439  47.867  1.00  0.00    -0.001 A 
HETATM   20  C15 UNL     1      26.944   6.415  48.153  1.00  0.00    -0.001 A 
HETATM   21  C16 UNL     1      26.630   5.770  49.297  1.00  0.00     0.025 A 
BRANCH  17  22
HETATM   22  N3  UNL     1      25.977   7.263  50.852  1.00  0.00     0.101 N 
HETATM   23  H10 UNL     1      26.598   7.952  50.414  1.00  0.00     0.315 HD
HETATM   24  H11 UNL     1      26.542   6.668  51.491  1.00  0.00     0.315 HD
ENDBRANCH  17  22
ENDBRANCH  12  17
BRANCH   6  25
HETATM   25  O2  UNL     1      25.384  -1.160  54.926  1.00  0.00    -0.353 OA
HETATM   26  C8  UNL     1      24.073  -1.290  55.439  1.00  0.00     0.210 C 
ENDBRANCH   6  25
BRANCH   1  27
HETATM   27  O1  UNL     1      27.848  -0.912  53.833  1.00  0.00    -0.353 OA
HETATM   28  C1  UNL     1      29.227  -0.525  53.806  1.00  0.00     0.210 C 
ENDBRANCH   1  27
TORSDOF 4
ENDMDL
MODEL 3
REMARK VINA RESULT:      -7.6      2.025      3.661
REMARK  4 active torsions:
REMARK  status: ('A' for Active; 'I' for Inactive)
REMARK    1  A    between atoms: O1_2  and  C2_3 
REMARK    2  A    between atoms: C7_8  and  O2_9 
REMARK    3  A    between atoms: C11_16  and  C12_17 
REMARK    4  A    between atoms: C12_17  and  N3_18 
ROOT
HETATM    1  C2  UNL     1      19.218  -0.503  53.034  1.00  0.00     0.102 A 
HETATM    2  C3  UNL     1      20.561  -0.704  53.280  1.00  0.00     0.051 A 
HETATM    3  C4  UNL     1      21.559  -0.138  52.505  1.00  0.00    -0.004 A 
HETATM    4  C5  UNL     1      21.126   0.657  51.452  1.00  0.00     0.088 A 
HETATM    5  C6  UNL     1      19.797   0.877  51.182  1.00  0.00     0.077 A 
HETATM    6  C7  UNL     1      18.818   0.301  51.969  1.00  0.00     0.104 A 
HETATM    7  O3  UNL     1      21.992   1.317  50.556  1.00  0.00    -0.289 OA
HETATM    8  C9  UNL     1      23.273   1.740  50.820  1.00  0.00     0.200 A 
HETATM    9  N1  UNL     1      23.622   2.750  49.984  1.00  0.00    -0.215 NA
HETATM   10  C10 UNL     1      24.843   3.246  50.142  1.00  0.00     0.236 A 
HETATM   11  N2  UNL     1      25.708   2.821  51.042  1.00  0.00    -0.241 NA
HETATM   12  C11 UNL     1      25.505   1.814  51.951  1.00  0.00     0.112 A 
HETATM   13  C17 UNL     1      24.210   1.314  51.760  1.00  0.00     0.110 A 
HETATM   14  N4  UNL     1      23.956   0.281  52.673  1.00  0.00    -0.380 N 
HETATM   15  C18 UNL     1      22.854  -0.559  53.043  1.00  0.00     0.161 C 
HETATM   16  H16 UNL     1      24.757   0.041  53.243  1.00  0.00     0.160 HD
ENDROOT
BRANCH  12  17
HETATM   17  C12 UNL     1      26.464   1.385  52.903  1.00  0.00     0.237 A 
HETATM   18  C13 UNL     1      27.393   0.270  52.622  1.00  0.00     0.025 A 
HETATM   19  C14 UNL     1      27.642  -0.347  53.799  1.00  0.00    -0.001 A 
HETATM   20  C15 UNL     1      26.886   0.337  54.873  1.00  0.00    -0.001 A 
HETATM   21  C16 UNL     1      26.184   1.363  54.344  1.00  0.00     0.025 A 
BRANCH  17  22
HETATM   22  N3  UNL     1      27.482   2.501  52.898  1.00  0.00     0.101 N 
HETATM   23  H10 UNL     1      28.045   2.461  52.040  1.00  0.00     0.315 HD
HETATM   24  H11 UNL     1      28.112   2.352  53.712  1.00  0.00     0.315 HD
ENDBRANCH  17  22
ENDBRANCH  12  17
BRANCH   6  25
HETATM   25  O2  UNL     1      17.487   0.526  51.693  1.00  0.00    -0.353 OA
HETATM   26  C8  UNL     1      16.893  -0.195  50.631  1.00  0.00     0.210 C 
ENDBRANCH   6  25
BRANCH   1  27
HETATM   27  O1  UNL     1      18.188  -1.048  53.781  1.00  0.00    -0.353 OA
HETATM   28  C1  UNL     1      17.885  -2.446  53.708  1.00  0.00     0.210 C 
ENDBRANCH   1  27
TORSDOF 4
ENDMDL
MODEL 4
REMARK VINA RESULT:      -7.4      2.722      3.653
REMARK  4 active torsions:
REMARK  status: ('A' for Active; 'I' for Inactive)
REMARK    1  A    between atoms: O1_2  and  C2_3 
REMARK    2  A    between atoms: C7_8  and  O2_9 
REMARK    3  A    between atoms: C11_16  and  C12_17 
REMARK    4  A    between atoms: C12_17  and  N3_18 
ROOT
HETATM    1  C2  UNL     1      21.910   2.938  48.025  1.00  0.00     0.102 A 
HETATM    2  C3  UNL     1      22.955   2.779  48.912  1.00  0.00     0.051 A 
HETATM    3  C4  UNL     1      22.784   2.271  50.189  1.00  0.00    -0.004 A 
HETATM    4  C5  UNL     1      21.484   1.926  50.531  1.00  0.00     0.088 A 
HETATM    5  C6  UNL     1      20.423   2.072  49.671  1.00  0.00     0.077 A 
HETATM    6  C7  UNL     1      20.616   2.582  48.401  1.00  0.00     0.104 A 
HETATM    7  O3  UNL     1      21.115   1.394  51.784  1.00  0.00    -0.289 OA
HETATM    8  C9  UNL     1      21.913   0.659  52.627  1.00  0.00     0.200 A 
HETATM    9  N1  UNL     1      21.157  -0.112  53.448  1.00  0.00    -0.215 NA
HETATM   10  C10 UNL     1      21.817  -0.872  54.312  1.00  0.00     0.236 A 
HETATM   11  N2  UNL     1      23.131  -0.915  54.412  1.00  0.00    -0.241 NA
HETATM   12  C11 UNL     1      24.027  -0.200  53.658  1.00  0.00     0.112 A 
HETATM   13  C17 UNL     1      23.300   0.590  52.757  1.00  0.00     0.110 A 
HETATM   14  N4  UNL     1      24.176   1.339  51.961  1.00  0.00    -0.380 N 
HETATM   15  C18 UNL     1      24.091   2.241  50.850  1.00  0.00     0.161 C 
HETATM   16  H16 UNL     1      25.148   1.232  52.222  1.00  0.00     0.160 HD
ENDROOT
BRANCH  12  17
HETATM   17  C12 UNL     1      25.436  -0.274  53.798  1.00  0.00     0.237 A 
HETATM   18  C13 UNL     1      26.235   0.888  54.240  1.00  0.00     0.025 A 
HETATM   19  C14 UNL     1      27.442   0.792  53.639  1.00  0.00    -0.001 A 
HETATM   20  C15 UNL     1      27.465  -0.421  52.790  1.00  0.00    -0.001 A 
HETATM   21  C16 UNL     1      26.276  -1.054  52.880  1.00  0.00     0.025 A 
BRANCH  17  22
HETATM   22  N3  UNL     1      25.618  -1.125  55.033  1.00  0.00     0.101 N 
HETATM   23  H10 UNL     1      25.786  -2.102  54.767  1.00  0.00     0.315 HD
HETATM   24  H11 UNL     1      24.733  -1.079  55.576  1.00  0.00     0.315 HD
ENDBRANCH  17  22
ENDBRANCH  12  17
BRANCH   6  25
HETATM   25  O2  UNL     1      19.548   2.725  47.543  1.00  0.00    -0.353 OA
HETATM   26  C8  UNL     1      18.301   3.109  48.087  1.00  0.00     0.210 C 
ENDBRANCH   6  25
BRANCH   1  27
HETATM   27  O1  UNL     1      22.032   3.441  46.741  1.00  0.00    -0.353 OA
HETATM   28  C1  UNL     1      22.159   4.849  46.509  1.00  0.00     0.210 C 
ENDBRANCH   1  27
TORSDOF 4
ENDMDL
MODEL 5
REMARK VINA RESULT:      -7.4      4.821      7.788
REMARK  4 active torsions:
REMARK  status: ('A' for Active; 'I' for Inactive)
REMARK    1  A    between atoms: O1_2  and  C2_3 
REMARK    2  A    between atoms: C7_8  and  O2_9 
REMARK    3  A    between atoms: C11_16  and  C12_17 
REMARK    4  A    between atoms: C12_17  and  N3_18 
ROOT
HETATM    1  C2  UNL     1      24.613   0.154  53.138  1.00  0.00     0.102 A 
HETATM    2  C3  UNL     1      24.136   1.432  52.929  1.00  0.00     0.051 A 
HETATM    3  C4  UNL     1      24.850   2.395  52.237  1.00  0.00    -0.004 A 
HETATM    4  C5  UNL     1      26.091   1.997  51.759  1.00  0.00     0.088 A 
HETATM    5  C6  UNL     1      26.593   0.733  51.951  1.00  0.00     0.077 A 
HETATM    6  C7  UNL     1      25.863  -0.213  52.645  1.00  0.00     0.104 A 
HETATM    7  O3  UNL     1      26.961   2.837  51.033  1.00  0.00    -0.289 OA
HETATM    8  C9  UNL     1      26.598   3.903  50.244  1.00  0.00     0.200 A 
HETATM    9  N1  UNL     1      27.555   4.154  49.316  1.00  0.00    -0.215 NA
HETATM   10  C10 UNL     1      27.318   5.166  48.489  1.00  0.00     0.236 A 
HETATM   11  N2  UNL     1      26.235   5.916  48.523  1.00  0.00    -0.241 NA
HETATM   12  C11 UNL     1      25.185   5.787  49.397  1.00  0.00     0.112 A 
HETATM   13  C17 UNL     1      25.464   4.713  50.252  1.00  0.00     0.110 A 
HETATM   14  N4  UNL     1      24.414   4.541  51.165  1.00  0.00    -0.380 N 
HETATM   15  C18 UNL     1      24.053   3.623  52.205  1.00  0.00     0.161 C 
HETATM   16  H16 UNL     1      23.695   5.250  51.089  1.00  0.00     0.160 HD
ENDROOT
BRANCH  12  17
HETATM   17  C12 UNL     1      24.035   6.617  49.401  1.00  0.00     0.237 A 
HETATM   18  C13 UNL     1      23.777   7.582  50.491  1.00  0.00     0.025 A 
HETATM   19  C14 UNL     1      22.436   7.680  50.625  1.00  0.00    -0.001 A 
HETATM   20  C15 UNL     1      21.783   6.786  49.641  1.00  0.00    -0.001 A 
HETATM   21  C16 UNL     1      22.730   6.153  48.915  1.00  0.00     0.025 A 
BRANCH  17  22
HETATM   22  N3  UNL     1      24.327   7.620  48.309  1.00  0.00     0.101 N 
HETATM   23  H10 UNL     1      25.339   7.780  48.238  1.00  0.00     0.315 HD
HETATM   24  H11 UNL     1      23.871   8.514  48.578  1.00  0.00     0.315 HD
ENDBRANCH  17  22
ENDBRANCH  12  17
BRANCH   6  25
HETATM   25  O2  UNL     1      26.372  -1.479  52.833  1.00  0.00    -0.353 OA
HETATM   26  C8  UNL     1      27.776  -1.632  52.896  1.00  0.00     0.210 C 
ENDBRANCH   6  25
BRANCH   1  27
HETATM   27  O1  UNL     1      23.935  -0.841  53.823  1.00  0.00    -0.353 OA
HETATM   28  C1  UNL     1      22.548  -0.696  54.151  1.00  0.00     0.210 C 
ENDBRANCH   1  27
TORSDOF 4
ENDMDL
MODEL 6
REMARK VINA RESULT:      -7.3      3.558      7.759
REMARK  4 active torsions:
REMARK  status: ('A' for Active; 'I' for Inactive)
REMARK    1  A    between atoms: O1_2  and  C2_3 
REMARK    2  A    between atoms: C7_8  and  O2_9 
REMARK    3  A    between atoms: C11_16  and  C12_17 
REMARK    4  A    between atoms: C12_17  and  N3_18 
ROOT
HETATM    1  C2  UNL     1      25.880  -0.102  53.594  1.00  0.00     0.102 A 
HETATM    2  C3  UNL     1      24.525  -0.058  53.338  1.00  0.00     0.051 A 
HETATM    3  C4  UNL     1      23.834   1.128  53.154  1.00  0.00    -0.004 A 
HETATM    4  C5  UNL     1      24.593   2.287  53.241  1.00  0.00     0.088 A 
HETATM    5  C6  UNL     1      25.943   2.276  53.494  1.00  0.00     0.077 A 
HETATM    6  C7  UNL     1      26.613   1.081  53.675  1.00  0.00     0.104 A 
HETATM    7  O3  UNL     1      24.068   3.585  53.082  1.00  0.00    -0.289 OA
HETATM    8  C9  UNL     1      22.965   3.936  52.339  1.00  0.00     0.200 A 
HETATM    9  N1  UNL     1      23.032   5.240  51.973  1.00  0.00    -0.215 NA
HETATM   10  C10 UNL     1      22.019   5.699  51.248  1.00  0.00     0.236 A 
HETATM   11  N2  UNL     1      20.982   4.974  50.877  1.00  0.00    -0.241 NA
HETATM   12  C11 UNL     1      20.772   3.649  51.167  1.00  0.00     0.112 A 
HETATM   13  C17 UNL     1      21.856   3.196  51.930  1.00  0.00     0.110 A 
HETATM   14  N4  UNL     1      21.685   1.842  52.249  1.00  0.00    -0.380 N 
HETATM   15  C18 UNL     1      22.427   0.806  52.906  1.00  0.00     0.161 C 
HETATM   16  H16 UNL     1      20.798   1.465  51.939  1.00  0.00     0.160 HD
ENDROOT
BRANCH  12  17
HETATM   17  C12 UNL     1      19.640   2.904  50.748  1.00  0.00     0.237 A 
HETATM   18  C13 UNL     1      18.514   2.621  51.664  1.00  0.00     0.025 A 
HETATM   19  C14 UNL     1      18.001   1.423  51.303  1.00  0.00    -0.001 A 
HETATM   20  C15 UNL     1      18.772   0.892  50.156  1.00  0.00    -0.001 A 
HETATM   21  C16 UNL     1      19.746   1.767  49.826  1.00  0.00     0.025 A 
BRANCH  17  22
HETATM   22  N3  UNL     1      18.915   3.860  49.830  1.00  0.00     0.101 N 
HETATM   23  H10 UNL     1      19.394   4.768  49.815  1.00  0.00     0.315 HD
HETATM   24  H11 UNL     1      17.960   3.998  50.215  1.00  0.00     0.315 HD
ENDBRANCH  17  22
ENDBRANCH  12  17
BRANCH   6  25
HETATM   25  O2  UNL     1      27.966   1.077  53.928  1.00  0.00    -0.353 OA
HETATM   26  C8  UNL     1      28.686   2.279  53.735  1.00  0.00     0.210 C 
ENDBRANCH   6  25
BRANCH   1  27
HETATM   27  O1  UNL     1      26.612  -1.262  53.785  1.00  0.00    -0.353 OA
HETATM   28  C1  UNL     1      27.079  -2.030  52.670  1.00  0.00     0.210 C 
ENDBRANCH   1  27
TORSDOF 4
ENDMDL
MODEL 7
REMARK VINA RESULT:      -7.1      3.261      4.217
REMARK  4 active torsions:
REMARK  status: ('A' for Active; 'I' for Inactive)
REMARK    1  A    between atoms: O1_2  and  C2_3 
REMARK    2  A    between atoms: C7_8  and  O2_9 
REMARK    3  A    between atoms: C11_16  and  C12_17 
REMARK    4  A    between atoms: C12_17  and  N3_18 
ROOT
HETATM    1  C2  UNL     1      21.792   5.701  50.696  1.00  0.00     0.102 A 
HETATM    2  C3  UNL     1      22.866   5.131  51.348  1.00  0.00     0.051 A 
HETATM    3  C4  UNL     1      22.774   3.939  52.046  1.00  0.00    -0.004 A 
HETATM    4  C5  UNL     1      21.522   3.341  52.052  1.00  0.00     0.088 A 
HETATM    5  C6  UNL     1      20.434   3.882  51.413  1.00  0.00     0.077 A 
HETATM    6  C7  UNL     1      20.548   5.074  50.722  1.00  0.00     0.104 A 
HETATM    7  O3  UNL     1      21.233   2.126  52.708  1.00  0.00    -0.289 OA
HETATM    8  C9  UNL     1      22.119   1.106  52.965  1.00  0.00     0.200 A 
HETATM    9  N1  UNL     1      21.459  -0.070  53.116  1.00  0.00    -0.215 NA
HETATM   10  C10 UNL     1      22.210  -1.135  53.369  1.00  0.00     0.236 A 
HETATM   11  N2  UNL     1      23.524  -1.110  53.478  1.00  0.00    -0.241 NA
HETATM   12  C11 UNL     1      24.328  -0.006  53.352  1.00  0.00     0.112 A 
HETATM   13  C17 UNL     1      23.508   1.098  53.085  1.00  0.00     0.110 A 
HETATM   14  N4  UNL     1      24.289   2.253  52.946  1.00  0.00    -0.380 N 
HETATM   15  C18 UNL     1      24.091   3.632  52.608  1.00  0.00     0.161 C 
HETATM   16  H16 UNL     1      25.272   2.098  53.129  1.00  0.00     0.160 HD
ENDROOT
BRANCH  12  17
HETATM   17  C12 UNL     1      25.740  -0.021  53.478  1.00  0.00     0.237 A 
HETATM   18  C13 UNL     1      26.425   0.606  54.629  1.00  0.00     0.025 A 
HETATM   19  C14 UNL     1      27.619   1.056  54.184  1.00  0.00    -0.001 A 
HETATM   20  C15 UNL     1      27.747   0.744  52.741  1.00  0.00    -0.001 A 
HETATM   21  C16 UNL     1      26.633   0.107  52.320  1.00  0.00     0.025 A 
BRANCH  17  22
HETATM   22  N3  UNL     1      26.042  -1.460  53.825  1.00  0.00     0.101 N 
HETATM   23  H10 UNL     1      26.077  -2.029  52.971  1.00  0.00     0.315 HD
HETATM   24  H11 UNL     1      25.265  -1.807  54.421  1.00  0.00     0.315 HD
ENDBRANCH  17  22
ENDBRANCH  12  17
BRANCH   6  25
HETATM   25  O2  UNL     1      19.453   5.611  50.083  1.00  0.00    -0.353 OA
HETATM   26  C8  UNL     1      18.393   4.745  49.729  1.00  0.00     0.210 C 
ENDBRANCH   6  25
BRANCH   1  27
HETATM   27  O1  UNL     1      21.837   6.889  49.986  1.00  0.00    -0.353 OA
HETATM   28  C1  UNL     1      22.877   7.846  50.218  1.00  0.00     0.210 C 
ENDBRANCH   1  27
TORSDOF 4
ENDMDL
MODEL 8
REMARK VINA RESULT:      -6.9      1.943      2.551
REMARK  4 active torsions:
REMARK  status: ('A' for Active; 'I' for Inactive)
REMARK    1  A    between atoms: O1_2  and  C2_3 
REMARK    2  A    between atoms: C7_8  and  O2_9 
REMARK    3  A    between atoms: C11_16  and  C12_17 
REMARK    4  A    between atoms: C12_17  and  N3_18 
ROOT
HETATM    1  C2  UNL     1      17.044  -0.872  51.882  1.00  0.00     0.102 A 
HETATM    2  C3  UNL     1      17.985   0.129  51.740  1.00  0.00     0.051 A 
HETATM    3  C4  UNL     1      19.154   0.169  52.480  1.00  0.00    -0.004 A 
HETATM    4  C5  UNL     1      19.330  -0.868  53.386  1.00  0.00     0.088 A 
HETATM    5  C6  UNL     1      18.413  -1.878  53.550  1.00  0.00     0.077 A 
HETATM    6  C7  UNL     1      17.252  -1.898  52.801  1.00  0.00     0.104 A 
HETATM    7  O3  UNL     1      20.456  -0.998  54.225  1.00  0.00    -0.289 OA
HETATM    8  C9  UNL     1      21.722  -0.524  53.974  1.00  0.00     0.200 A 
HETATM    9  N1  UNL     1      22.642  -1.230  54.676  1.00  0.00    -0.215 NA
HETATM   10  C10 UNL     1      23.908  -0.865  54.516  1.00  0.00     0.236 A 
HETATM   11  N2  UNL     1      24.305   0.119  53.734  1.00  0.00    -0.241 NA
HETATM   12  C11 UNL     1      23.500   0.921  52.965  1.00  0.00     0.112 A 
HETATM   13  C17 UNL     1      22.174   0.510  53.155  1.00  0.00     0.110 A 
HETATM   14  N4  UNL     1      21.312   1.302  52.385  1.00  0.00    -0.380 N 
HETATM   15  C18 UNL     1      19.912   1.355  52.077  1.00  0.00     0.161 C 
HETATM   16  H16 UNL     1      21.783   2.054  51.898  1.00  0.00     0.160 HD
ENDROOT
BRANCH  12  17
HETATM   17  C12 UNL     1      23.967   1.971  52.136  1.00  0.00     0.237 A 
HETATM   18  C13 UNL     1      24.082   3.360  52.632  1.00  0.00     0.025 A 
HETATM   19  C14 UNL     1      23.852   4.177  51.580  1.00  0.00    -0.001 A 
HETATM   20  C15 UNL     1      23.578   3.356  50.378  1.00  0.00    -0.001 A 
HETATM   21  C16 UNL     1      23.643   2.047  50.706  1.00  0.00     0.025 A 
BRANCH  17  22
HETATM   22  N3  UNL     1      25.444   1.682  52.007  1.00  0.00     0.101 N 
HETATM   23  H10 UNL     1      25.613   1.056  51.211  1.00  0.00     0.315 HD
HETATM   24  H11 UNL     1      25.744   1.197  52.876  1.00  0.00     0.315 HD
ENDBRANCH  17  22
ENDBRANCH  12  17
BRANCH   6  25
HETATM   25  O2  UNL     1      16.337  -2.913  52.970  1.00  0.00    -0.353 OA
HETATM   26  C8  UNL     1      16.794  -4.145  53.492  1.00  0.00     0.210 C 
ENDBRANCH   6  25
BRANCH   1  27
HETATM   27  O1  UNL     1      15.862  -0.953  51.166  1.00  0.00    -0.353 OA
HETATM   28  C1  UNL     1      14.969   0.164  51.090  1.00  0.00     0.210 C 
ENDBRANCH   1  27
TORSDOF 4
ENDMDL
MODEL 9
REMARK VINA RESULT:      -6.8      7.522      9.837
REMARK  4 active torsions:
REMARK  status: ('A' for Active; 'I' for Inactive)
REMARK    1  A    between atoms: O1_2  and  C2_3 
REMARK    2  A    between atoms: C7_8  and  O2_9 
REMARK    3  A    between atoms: C11_16  and  C12_17 
REMARK    4  A    between atoms: C12_17  and  N3_18 
ROOT
HETATM    1  C2  UNL     1      24.620   4.425  50.367  1.00  0.00     0.102 A 
HETATM    2  C3  UNL     1      25.809   4.367  49.668  1.00  0.00     0.051 A 
HETATM    3  C4  UNL     1      26.512   5.497  49.287  1.00  0.00    -0.004 A 
HETATM    4  C5  UNL     1      25.945   6.710  49.654  1.00  0.00     0.088 A 
HETATM    5  C6  UNL     1      24.764   6.802  50.349  1.00  0.00     0.077 A 
HETATM    6  C7  UNL     1      24.078   5.660  50.719  1.00  0.00     0.104 A 
HETATM    7  O3  UNL     1      26.513   7.966  49.356  1.00  0.00    -0.289 OA
HETATM    8  C9  UNL     1      27.849   8.236  49.172  1.00  0.00     0.200 A 
HETATM    9  N1  UNL     1      28.108   9.544  49.417  1.00  0.00    -0.215 NA
HETATM   10  C10 UNL     1      29.370   9.929  49.273  1.00  0.00     0.236 A 
HETATM   11  N2  UNL     1      30.355   9.129  48.914  1.00  0.00    -0.241 NA
HETATM   12  C11 UNL     1      30.253   7.790  48.633  1.00  0.00     0.112 A 
HETATM   13  C17 UNL     1      28.912   7.416  48.795  1.00  0.00     0.110 A 
HETATM   14  N4  UNL     1      28.759   6.051  48.519  1.00  0.00    -0.380 N 
HETATM   15  C18 UNL     1      27.714   5.070  48.570  1.00  0.00     0.161 C 
HETATM   16  H16 UNL     1      29.609   5.609  48.192  1.00  0.00     0.160 HD
ENDROOT
BRANCH  12  17
HETATM   17  C12 UNL     1      31.339   6.964  48.248  1.00  0.00     0.237 A 
HETATM   18  C13 UNL     1      31.543   6.554  46.842  1.00  0.00     0.025 A 
HETATM   19  C14 UNL     1      32.114   5.329  46.865  1.00  0.00    -0.001 A 
HETATM   20  C15 UNL     1      32.293   4.904  48.273  1.00  0.00    -0.001 A 
HETATM   21  C16 UNL     1      31.832   5.871  49.095  1.00  0.00     0.025 A 
BRANCH  17  22
HETATM   22  N3  UNL     1      32.532   7.883  48.364  1.00  0.00     0.101 N 
HETATM   23  H10 UNL     1      33.290   7.555  47.755  1.00  0.00     0.315 HD
HETATM   24  H11 UNL     1      32.861   7.843  49.349  1.00  0.00     0.315 HD
ENDBRANCH  17  22
ENDBRANCH  12  17
BRANCH   6  25
HETATM   25  O2  UNL     1      22.895   5.758  51.417  1.00  0.00    -0.353 OA
HETATM   26  C8  UNL     1      21.862   6.555  50.871  1.00  0.00     0.210 C 
ENDBRANCH   6  25
BRANCH   1  27
HETATM   27  O1  UNL     1      23.883   3.324  50.768  1.00  0.00    -0.353 OA
HETATM   28  C1  UNL     1      23.066   2.605  49.837  1.00  0.00     0.210 C 
ENDBRANCH   1  27
TORSDOF 4
ENDMDL
