MODEL 1
REMARK VINA RESULT:      -8.6      0.000      0.000
REMARK  4 active torsions:
REMARK  status: ('A' for Active; 'I' for Inactive)
REMARK    1  A    between atoms: C6_6  and  C7_7 
REMARK    2  A    between atoms: C7_7  and  O1_8 
REMARK    3  A    between atoms: C8_9  and  N1_10 
REMARK    4  A    between atoms: N1_10  and  C9_11 
ROOT
HETATM    1  C1  UNL     1      21.771  -1.529  53.947  1.00  0.00     0.018 C 
HETATM    2  C2  UNL     1      22.798  -0.909  53.803  1.00  0.00    -0.078 C 
HETATM    3  C3  UNL     1      24.022  -0.178  53.609  1.00  0.00     0.019 A 
HETATM    4  C4  UNL     1      25.227  -0.838  53.729  1.00  0.00     0.021 A 
HETATM    5  C5  UNL     1      26.364  -0.057  53.525  1.00  0.00     0.013 A 
HETATM    6  C6  UNL     1      26.341   1.289  53.220  1.00  0.00    -0.008 A 
HETATM    7  C8  UNL     1      25.084   1.858  53.122  1.00  0.00     0.043 A 
HETATM    8  C20 UNL     1      23.901   1.165  53.307  1.00  0.00     0.050 A 
ENDROOT
BRANCH   7   9
HETATM    9  N1  UNL     1      24.972   3.243  52.813  1.00  0.00    -0.343 N 
HETATM   10  H7  UNL     1      25.614   3.871  53.384  1.00  0.00     0.167 HD
BRANCH   9  11
HETATM   11  C9  UNL     1      24.070   3.753  51.813  1.00  0.00     0.117 C 
HETATM   12  N2  UNL     1      23.087   4.477  52.315  1.00  0.00    -0.228 NA
HETATM   13  C10 UNL     1      22.339   5.506  51.613  1.00  0.00     0.235 C 
HETATM   14  N3  UNL     1      22.031   5.378  50.329  1.00  0.00    -0.242 NA
HETATM   15  C11 UNL     1      22.985   5.056  49.329  1.00  0.00     0.055 C 
HETATM   16  C12 UNL     1      23.311   3.735  49.563  1.00  0.00     0.021 C 
HETATM   17  C19 UNL     1      23.689   5.675  48.211  1.00  0.00     0.029 C 
HETATM   18  C13 UNL     1      24.478   3.329  50.452  1.00  0.00     0.103 C 
HETATM   19  C14 UNL     1      25.582   4.199  49.943  1.00  0.00    -0.012 C 
HETATM   20  C15 UNL     1      26.283   4.633  48.889  1.00  0.00    -0.004 C 
HETATM   21  C16 UNL     1      27.410   5.604  48.826  1.00  0.00     0.195 C 
HETATM   22  O2  UNL     1      27.067   6.730  48.026  1.00  0.00    -0.384 OA
HETATM   23  C17 UNL     1      25.876   7.265  48.601  1.00  0.00     0.195 C 
HETATM   24  C18 UNL     1      24.724   6.431  48.341  1.00  0.00     0.001 C 
ENDBRANCH   9  11
ENDBRANCH   7   9
BRANCH   6  25
HETATM   25  C7  UNL     1      27.578   2.068  53.013  1.00  0.00     0.205 C 
BRANCH  25  26
HETATM   26  O1  UNL     1      27.907   2.873  54.105  1.00  0.00    -0.396 OA
HETATM   27  H6  UNL     1      27.715   3.813  53.812  1.00  0.00     0.209 HD
ENDBRANCH  25  26
ENDBRANCH   6  25
TORSDOF 4
ENDMDL
MODEL 2
REMARK VINA RESULT:      -8.1      2.648      4.033
REMARK  4 active torsions:
REMARK  status: ('A' for Active; 'I' for Inactive)
REMARK    1  A    between atoms: C6_6  and  C7_7 
REMARK    2  A    between atoms: C7_7  and  O1_8 
REMARK    3  A    between atoms: C8_9  and  N1_10 
REMARK    4  A    between atoms: N1_10  and  C9_11 
ROOT
HETATM    1  C1  UNL     1      21.759  -1.502  53.831  1.00  0.00     0.018 C 
HETATM    2  C2  UNL     1      22.758  -0.849  53.640  1.00  0.00    -0.078 C 
HETATM    3  C3  UNL     1      23.945  -0.076  53.391  1.00  0.00     0.019 A 
HETATM    4  C4  UNL     1      25.163  -0.718  53.309  1.00  0.00     0.021 A 
HETATM    5  C5  UNL     1      26.261   0.104  53.063  1.00  0.00     0.013 A 
HETATM    6  C6  UNL     1      26.191   1.473  52.905  1.00  0.00    -0.008 A 
HETATM    7  C8  UNL     1      24.925   2.021  53.005  1.00  0.00     0.043 A 
HETATM    8  C20 UNL     1      23.778   1.288  53.246  1.00  0.00     0.050 A 
ENDROOT
BRANCH   7   9
HETATM    9  N1  UNL     1      24.766   3.428  52.856  1.00  0.00    -0.343 N 
HETATM   10  H7  UNL     1      25.160   4.000  53.662  1.00  0.00     0.167 HD
BRANCH   9  11
HETATM   11  C9  UNL     1      24.129   4.028  51.713  1.00  0.00     0.117 C 
HETATM   12  N2  UNL     1      24.826   3.904  50.599  1.00  0.00    -0.228 NA
HETATM   13  C10 UNL     1      24.291   3.931  49.248  1.00  0.00     0.235 C 
HETATM   14  N3  UNL     1      23.288   4.736  48.921  1.00  0.00    -0.242 NA
HETATM   15  C11 UNL     1      22.077   4.807  49.656  1.00  0.00     0.055 C 
HETATM   16  C12 UNL     1      22.418   5.427  50.841  1.00  0.00     0.021 C 
HETATM   17  C19 UNL     1      20.672   4.428  49.542  1.00  0.00     0.029 C 
HETATM   18  C13 UNL     1      22.830   4.644  52.081  1.00  0.00     0.103 C 
HETATM   19  C14 UNL     1      21.763   3.601  52.167  1.00  0.00    -0.012 C 
HETATM   20  C15 UNL     1      20.455   3.325  52.190  1.00  0.00    -0.004 C 
HETATM   21  C16 UNL     1      19.757   2.012  52.291  1.00  0.00     0.195 C 
HETATM   22  O2  UNL     1      18.954   1.772  51.141  1.00  0.00    -0.384 OA
HETATM   23  C17 UNL     1      19.838   1.872  50.025  1.00  0.00     0.195 C 
HETATM   24  C18 UNL     1      20.228   3.238  49.759  1.00  0.00     0.001 C 
ENDBRANCH   9  11
ENDBRANCH   7   9
BRANCH   6  25
HETATM   25  C7  UNL     1      27.390   2.295  52.646  1.00  0.00     0.205 C 
BRANCH  25  26
HETATM   26  O1  UNL     1      27.336   2.972  51.426  1.00  0.00    -0.396 OA
HETATM   27  H6  UNL     1      27.801   3.846  51.585  1.00  0.00     0.209 HD
ENDBRANCH  25  26
ENDBRANCH   6  25
TORSDOF 4
ENDMDL
MODEL 3
REMARK VINA RESULT:      -8.0      1.985      6.629
REMARK  4 active torsions:
REMARK  status: ('A' for Active; 'I' for Inactive)
REMARK    1  A    between atoms: C6_6  and  C7_7 
REMARK    2  A    between atoms: C7_7  and  O1_8 
REMARK    3  A    between atoms: C8_9  and  N1_10 
REMARK    4  A    between atoms: N1_10  and  C9_11 
ROOT
HETATM    1  C1  UNL     1      28.656   5.331  48.256  1.00  0.00     0.018 C 
HETATM    2  C2  UNL     1      27.524   5.627  48.555  1.00  0.00    -0.078 C 
HETATM    3  C3  UNL     1      26.168   5.963  48.899  1.00  0.00     0.019 A 
HETATM    4  C4  UNL     1      25.447   6.793  48.065  1.00  0.00     0.021 A 
HETATM    5  C5  UNL     1      24.142   7.066  48.471  1.00  0.00     0.013 A 
HETATM    6  C6  UNL     1      23.560   6.566  49.618  1.00  0.00    -0.008 A 
HETATM    7  C8  UNL     1      24.365   5.744  50.385  1.00  0.00     0.043 A 
HETATM    8  C20 UNL     1      25.670   5.416  50.066  1.00  0.00     0.050 A 
ENDROOT
BRANCH   7   9
HETATM    9  N1  UNL     1      23.841   5.188  51.587  1.00  0.00    -0.343 N 
HETATM   10  H7  UNL     1      23.810   5.867  52.405  1.00  0.00     0.167 HD
BRANCH   9  11
HETATM   11  C9  UNL     1      23.390   3.824  51.688  1.00  0.00     0.117 C 
HETATM   12  N2  UNL     1      22.840   3.371  50.578  1.00  0.00    -0.228 NA
HETATM   13  C10 UNL     1      22.748   1.977  50.177  1.00  0.00     0.235 C 
HETATM   14  N3  UNL     1      22.532   1.017  51.068  1.00  0.00    -0.242 NA
HETATM   15  C11 UNL     1      23.295   0.872  52.254  1.00  0.00     0.055 C 
HETATM   16  C12 UNL     1      22.920   1.935  53.050  1.00  0.00     0.021 C 
HETATM   17  C19 UNL     1      24.306  -0.005  52.837  1.00  0.00     0.029 C 
HETATM   18  C13 UNL     1      23.661   3.266  53.036  1.00  0.00     0.103 C 
HETATM   19  C14 UNL     1      25.088   2.834  53.145  1.00  0.00    -0.012 C 
HETATM   20  C15 UNL     1      26.001   2.110  53.802  1.00  0.00    -0.004 C 
HETATM   21  C16 UNL     1      27.459   1.945  53.540  1.00  0.00     0.195 C 
HETATM   22  O2  UNL     1      27.775   0.586  53.262  1.00  0.00    -0.384 OA
HETATM   23  C17 UNL     1      26.945   0.212  52.163  1.00  0.00     0.195 C 
HETATM   24  C18 UNL     1      25.562   0.057  52.553  1.00  0.00     0.001 C 
ENDBRANCH   9  11
ENDBRANCH   7   9
BRANCH   6  25
HETATM   25  C7  UNL     1      22.170   6.890  49.998  1.00  0.00     0.205 C 
BRANCH  25  26
HETATM   26  O1  UNL     1      22.059   7.375  51.302  1.00  0.00    -0.396 OA
HETATM   27  H6  UNL     1      21.476   6.716  51.783  1.00  0.00     0.209 HD
ENDBRANCH  25  26
ENDBRANCH   6  25
TORSDOF 4
ENDMDL
MODEL 4
REMARK VINA RESULT:      -7.8      3.290      5.545
REMARK  4 active torsions:
REMARK  status: ('A' for Active; 'I' for Inactive)
REMARK    1  A    between atoms: C6_6  and  C7_7 
REMARK    2  A    between atoms: C7_7  and  O1_8 
REMARK    3  A    between atoms: C8_9  and  N1_10 
REMARK    4  A    between atoms: N1_10  and  C9_11 
ROOT
HETATM    1  C1  UNL     1      17.036   1.421  49.375  1.00  0.00     0.018 C 
HETATM    2  C2  UNL     1      17.750   1.140  50.308  1.00  0.00    -0.078 C 
HETATM    3  C3  UNL     1      18.614   0.794  51.404  1.00  0.00     0.019 A 
HETATM    4  C4  UNL     1      18.423  -0.404  52.060  1.00  0.00     0.021 A 
HETATM    5  C5  UNL     1      19.304  -0.664  53.109  1.00  0.00     0.013 A 
HETATM    6  C6  UNL     1      20.316   0.187  53.506  1.00  0.00    -0.008 A 
HETATM    7  C8  UNL     1      20.425   1.362  52.785  1.00  0.00     0.043 A 
HETATM    8  C20 UNL     1      19.599   1.706  51.730  1.00  0.00     0.050 A 
ENDROOT
BRANCH   7   9
HETATM    9  N1  UNL     1      21.442   2.296  53.133  1.00  0.00    -0.343 N 
HETATM   10  H7  UNL     1      21.396   2.638  54.138  1.00  0.00     0.167 HD
BRANCH   9  11
HETATM   11  C9  UNL     1      22.450   2.738  52.204  1.00  0.00     0.117 C 
HETATM   12  N2  UNL     1      22.514   4.051  52.086  1.00  0.00    -0.228 NA
HETATM   13  C10 UNL     1      23.674   4.815  51.662  1.00  0.00     0.235 C 
HETATM   14  N3  UNL     1      24.492   4.360  50.721  1.00  0.00    -0.242 NA
HETATM   15  C11 UNL     1      25.063   3.061  50.750  1.00  0.00     0.055 C 
HETATM   16  C12 UNL     1      24.010   2.207  50.493  1.00  0.00     0.021 C 
HETATM   17  C19 UNL     1      26.347   2.406  50.971  1.00  0.00     0.029 C 
HETATM   18  C13 UNL     1      23.172   1.589  51.605  1.00  0.00     0.103 C 
HETATM   19  C14 UNL     1      24.218   1.081  52.545  1.00  0.00    -0.012 C 
HETATM   20  C15 UNL     1      25.328   0.355  52.712  1.00  0.00    -0.004 C 
HETATM   21  C16 UNL     1      26.123   0.094  53.945  1.00  0.00     0.195 C 
HETATM   22  O2  UNL     1      27.450   0.589  53.808  1.00  0.00    -0.384 OA
HETATM   23  C17 UNL     1      27.316   1.974  53.489  1.00  0.00     0.195 C 
HETATM   24  C18 UNL     1      26.847   2.178  52.137  1.00  0.00     0.001 C 
ENDBRANCH   9  11
ENDBRANCH   7   9
BRANCH   6  25
HETATM   25  C7  UNL     1      21.221  -0.140  54.626  1.00  0.00     0.205 C 
BRANCH  25  26
HETATM   26  O1  UNL     1      21.121  -1.470  55.039  1.00  0.00    -0.396 OA
HETATM   27  H6  UNL     1      20.210  -1.556  55.447  1.00  0.00     0.209 HD
ENDBRANCH  25  26
ENDBRANCH   6  25
TORSDOF 4
ENDMDL
MODEL 5
REMARK VINA RESULT:      -7.7      1.910      6.746
REMARK  4 active torsions:
REMARK  status: ('A' for Active; 'I' for Inactive)
REMARK    1  A    between atoms: C6_6  and  C7_7 
REMARK    2  A    between atoms: C7_7  and  O1_8 
REMARK    3  A    between atoms: C8_9  and  N1_10 
REMARK    4  A    between atoms: N1_10  and  C9_11 
ROOT
HETATM    1  C1  UNL     1      21.783   8.860  49.354  1.00  0.00     0.018 C 
HETATM    2  C2  UNL     1      22.743   8.131  49.266  1.00  0.00    -0.078 C 
HETATM    3  C3  UNL     1      23.898   7.279  49.172  1.00  0.00     0.019 A 
HETATM    4  C4  UNL     1      24.782   7.455  48.129  1.00  0.00     0.021 A 
HETATM    5  C5  UNL     1      25.875   6.589  48.113  1.00  0.00     0.013 A 
HETATM    6  C6  UNL     1      26.104   5.605  49.053  1.00  0.00    -0.008 A 
HETATM    7  C8  UNL     1      25.160   5.509  50.059  1.00  0.00     0.043 A 
HETATM    8  C20 UNL     1      24.045   6.322  50.158  1.00  0.00     0.050 A 
ENDROOT
BRANCH   7   9
HETATM    9  N1  UNL     1      25.321   4.518  51.068  1.00  0.00    -0.343 N 
HETATM   10  H7  UNL     1      26.241   4.579  51.598  1.00  0.00     0.167 HD
BRANCH   9  11
HETATM   11  C9  UNL     1      24.323   3.518  51.350  1.00  0.00     0.117 C 
HETATM   12  N2  UNL     1      23.692   3.089  50.273  1.00  0.00    -0.228 NA
HETATM   13  C10 UNL     1      23.033   1.803  50.125  1.00  0.00     0.235 C 
HETATM   14  N3  UNL     1      22.379   1.244  51.135  1.00  0.00    -0.242 NA
HETATM   15  C11 UNL     1      22.941   1.072  52.425  1.00  0.00     0.055 C 
HETATM   16  C12 UNL     1      23.016   2.347  52.951  1.00  0.00     0.021 C 
HETATM   17  C19 UNL     1      23.445   0.017  53.298  1.00  0.00     0.029 C 
HETATM   18  C13 UNL     1      24.256   3.218  52.802  1.00  0.00     0.103 C 
HETATM   19  C14 UNL     1      25.352   2.279  53.192  1.00  0.00    -0.012 C 
HETATM   20  C15 UNL     1      25.829   1.415  54.095  1.00  0.00    -0.004 C 
HETATM   21  C16 UNL     1      27.087   0.616  54.081  1.00  0.00     0.195 C 
HETATM   22  O2  UNL     1      26.804  -0.778  54.105  1.00  0.00    -0.384 OA
HETATM   23  C17 UNL     1      25.954  -1.020  52.984  1.00  0.00     0.195 C 
HETATM   24  C18 UNL     1      24.619  -0.504  53.192  1.00  0.00     0.001 C 
ENDBRANCH   9  11
ENDBRANCH   7   9
BRANCH   6  25
HETATM   25  C7  UNL     1      27.281   4.715  48.987  1.00  0.00     0.205 C 
BRANCH  25  26
HETATM   26  O1  UNL     1      28.492   5.409  48.999  1.00  0.00    -0.396 OA
HETATM   27  H6  UNL     1      29.158   4.791  48.576  1.00  0.00     0.209 HD
ENDBRANCH  25  26
ENDBRANCH   6  25
TORSDOF 4
ENDMDL
MODEL 6
REMARK VINA RESULT:      -7.6      1.850      2.633
REMARK  4 active torsions:
REMARK  status: ('A' for Active; 'I' for Inactive)
REMARK    1  A    between atoms: C6_6  and  C7_7 
REMARK    2  A    between atoms: C7_7  and  O1_8 
REMARK    3  A    between atoms: C8_9  and  N1_10 
REMARK    4  A    between atoms: N1_10  and  C9_11 
ROOT
HETATM    1  C1  UNL     1      18.078  -1.238  53.342  1.00  0.00     0.018 C 
HETATM    2  C2  UNL     1      19.263  -1.042  53.477  1.00  0.00    -0.078 C 
HETATM    3  C3  UNL     1      20.676  -0.818  53.618  1.00  0.00     0.019 A 
HETATM    4  C4  UNL     1      21.465  -1.812  54.158  1.00  0.00     0.021 A 
HETATM    5  C5  UNL     1      22.824  -1.515  54.258  1.00  0.00     0.013 A 
HETATM    6  C6  UNL     1      23.393  -0.323  53.857  1.00  0.00    -0.008 A 
HETATM    7  C8  UNL     1      22.518   0.608  53.328  1.00  0.00     0.043 A 
HETATM    8  C20 UNL     1      21.157   0.405  53.190  1.00  0.00     0.050 A 
ENDROOT
BRANCH   7   9
HETATM    9  N1  UNL     1      23.025   1.865  52.893  1.00  0.00    -0.343 N 
HETATM   10  H7  UNL     1      23.865   2.212  53.444  1.00  0.00     0.167 HD
BRANCH   9  11
HETATM   11  C9  UNL     1      22.451   2.605  51.798  1.00  0.00     0.117 C 
HETATM   12  N2  UNL     1      21.530   3.471  52.178  1.00  0.00    -0.228 NA
HETATM   13  C10 UNL     1      21.135   4.669  51.457  1.00  0.00     0.235 C 
HETATM   14  N3  UNL     1      21.079   4.688  50.131  1.00  0.00    -0.242 NA
HETATM   15  C11 UNL     1      22.145   4.255  49.302  1.00  0.00     0.055 C 
HETATM   16  C12 UNL     1      22.178   2.883  49.455  1.00  0.00     0.021 C 
HETATM   17  C19 UNL     1      23.161   4.798  48.406  1.00  0.00     0.029 C 
HETATM   18  C13 UNL     1      23.048   2.201  50.502  1.00  0.00     0.103 C 
HETATM   19  C14 UNL     1      24.369   2.872  50.304  1.00  0.00    -0.012 C 
HETATM   20  C15 UNL     1      25.335   3.231  49.451  1.00  0.00    -0.004 C 
HETATM   21  C16 UNL     1      26.605   3.968  49.703  1.00  0.00     0.195 C 
HETATM   22  O2  UNL     1      26.638   5.189  48.973  1.00  0.00    -0.384 OA
HETATM   23  C17 UNL     1      25.467   5.906  49.365  1.00  0.00     0.195 C 
HETATM   24  C18 UNL     1      24.264   5.329  48.807  1.00  0.00     0.001 C 
ENDBRANCH   9  11
ENDBRANCH   7   9
BRANCH   6  25
HETATM   25  C7  UNL     1      24.841  -0.063  53.986  1.00  0.00     0.205 C 
BRANCH  25  26
HETATM   26  O1  UNL     1      25.465  -0.893  54.920  1.00  0.00    -0.396 OA
HETATM   27  H6  UNL     1      25.297  -1.828  54.600  1.00  0.00     0.209 HD
ENDBRANCH  25  26
ENDBRANCH   6  25
TORSDOF 4
ENDMDL
MODEL 7
REMARK VINA RESULT:      -7.6      2.836      4.550
REMARK  4 active torsions:
REMARK  status: ('A' for Active; 'I' for Inactive)
REMARK    1  A    between atoms: C6_6  and  C7_7 
REMARK    2  A    between atoms: C7_7  and  O1_8 
REMARK    3  A    between atoms: C8_9  and  N1_10 
REMARK    4  A    between atoms: N1_10  and  C9_11 
ROOT
HETATM    1  C1  UNL     1      28.665   0.405  54.779  1.00  0.00     0.018 C 
HETATM    2  C2  UNL     1      27.510   0.258  54.456  1.00  0.00    -0.078 C 
HETATM    3  C3  UNL     1      26.129   0.100  54.086  1.00  0.00     0.019 A 
HETATM    4  C4  UNL     1      25.324  -0.737  54.830  1.00  0.00     0.021 A 
HETATM    5  C5  UNL     1      23.999  -0.833  54.405  1.00  0.00     0.013 A 
HETATM    6  C6  UNL     1      23.477  -0.158  53.321  1.00  0.00    -0.008 A 
HETATM    7  C8  UNL     1      24.365   0.656  52.641  1.00  0.00     0.043 A 
HETATM    8  C20 UNL     1      25.694   0.815  52.987  1.00  0.00     0.050 A 
ENDROOT
BRANCH   7   9
HETATM    9  N1  UNL     1      23.906   1.386  51.508  1.00  0.00    -0.343 N 
HETATM   10  H7  UNL     1      23.469   0.784  50.748  1.00  0.00     0.167 HD
BRANCH   9  11
HETATM   11  C9  UNL     1      24.022   2.818  51.399  1.00  0.00     0.117 C 
HETATM   12  N2  UNL     1      24.914   3.204  50.507  1.00  0.00    -0.228 NA
HETATM   13  C10 UNL     1      24.928   4.479  49.809  1.00  0.00     0.235 C 
HETATM   14  N3  UNL     1      24.562   5.600  50.416  1.00  0.00    -0.242 NA
HETATM   15  C11 UNL     1      23.344   5.736  51.130  1.00  0.00     0.055 C 
HETATM   16  C12 UNL     1      23.512   4.970  52.266  1.00  0.00     0.021 C 
HETATM   17  C19 UNL     1      22.045   6.390  51.017  1.00  0.00     0.029 C 
HETATM   18  C13 UNL     1      23.096   3.506  52.331  1.00  0.00     0.103 C 
HETATM   19  C14 UNL     1      21.714   3.544  51.762  1.00  0.00    -0.012 C 
HETATM   20  C15 UNL     1      20.496   4.094  51.794  1.00  0.00    -0.004 C 
HETATM   21  C16 UNL     1      19.296   3.807  50.958  1.00  0.00     0.195 C 
HETATM   22  O2  UNL     1      18.901   4.959  50.221  1.00  0.00    -0.384 OA
HETATM   23  C17 UNL     1      20.049   5.349  49.469  1.00  0.00     0.195 C 
HETATM   24  C18 UNL     1      21.072   5.940  50.302  1.00  0.00     0.001 C 
ENDBRANCH   9  11
ENDBRANCH   7   9
BRANCH   6  25
HETATM   25  C7  UNL     1      22.064  -0.297  52.917  1.00  0.00     0.205 C 
BRANCH  25  26
HETATM   26  O1  UNL     1      21.245   0.707  53.437  1.00  0.00    -0.396 OA
HETATM   27  H6  UNL     1      20.807   1.133  52.641  1.00  0.00     0.209 HD
ENDBRANCH  25  26
ENDBRANCH   6  25
TORSDOF 4
ENDMDL
MODEL 8
REMARK VINA RESULT:      -7.5      2.821      3.915
REMARK  4 active torsions:
REMARK  status: ('A' for Active; 'I' for Inactive)
REMARK    1  A    between atoms: C6_6  and  C7_7 
REMARK    2  A    between atoms: C7_7  and  O1_8 
REMARK    3  A    between atoms: C8_9  and  N1_10 
REMARK    4  A    between atoms: N1_10  and  C9_11 
ROOT
HETATM    1  C1  UNL     1      27.211  -0.342  52.729  1.00  0.00     0.018 C 
HETATM    2  C2  UNL     1      26.032  -0.232  52.969  1.00  0.00    -0.078 C 
HETATM    3  C3  UNL     1      24.633  -0.088  53.272  1.00  0.00     0.019 A 
HETATM    4  C4  UNL     1      24.041  -0.969  54.152  1.00  0.00     0.021 A 
HETATM    5  C5  UNL     1      22.683  -0.759  54.392  1.00  0.00     0.013 A 
HETATM    6  C6  UNL     1      21.936   0.247  53.814  1.00  0.00    -0.008 A 
HETATM    7  C8  UNL     1      22.621   1.076  52.946  1.00  0.00     0.043 A 
HETATM    8  C20 UNL     1      23.965   0.947  52.646  1.00  0.00     0.050 A 
ENDROOT
BRANCH   7   9
HETATM    9  N1  UNL     1      21.922   2.138  52.305  1.00  0.00    -0.343 N 
HETATM   10  H7  UNL     1      21.765   2.992  52.920  1.00  0.00     0.167 HD
BRANCH   9  11
HETATM   11  C9  UNL     1      21.467   2.066  50.940  1.00  0.00     0.117 C 
HETATM   12  N2  UNL     1      20.155   2.139  50.821  1.00  0.00    -0.228 NA
HETATM   13  C10 UNL     1      19.427   2.587  49.646  1.00  0.00     0.235 C 
HETATM   14  N3  UNL     1      19.854   2.303  48.422  1.00  0.00    -0.242 NA
HETATM   15  C11 UNL     1      21.181   2.548  47.986  1.00  0.00     0.055 C 
HETATM   16  C12 UNL     1      21.952   1.621  48.658  1.00  0.00     0.021 C 
HETATM   17  C19 UNL     1      21.925   3.443  47.105  1.00  0.00     0.029 C 
HETATM   18  C13 UNL     1      22.605   1.924  50.000  1.00  0.00     0.103 C 
HETATM   19  C14 UNL     1      23.244   3.253  49.749  1.00  0.00    -0.012 C 
HETATM   20  C15 UNL     1      24.044   3.991  48.972  1.00  0.00    -0.004 C 
HETATM   21  C16 UNL     1      24.444   5.421  49.099  1.00  0.00     0.195 C 
HETATM   22  O2  UNL     1      24.017   6.171  47.968  1.00  0.00    -0.384 OA
HETATM   23  C17 UNL     1      22.606   5.972  47.882  1.00  0.00     0.195 C 
HETATM   24  C18 UNL     1      22.271   4.643  47.423  1.00  0.00     0.001 C 
ENDBRANCH   9  11
ENDBRANCH   7   9
BRANCH   6  25
HETATM   25  C7  UNL     1      20.499   0.422  54.106  1.00  0.00     0.205 C 
BRANCH  25  26
HETATM   26  O1  UNL     1      19.673  -0.009  53.065  1.00  0.00    -0.396 OA
HETATM   27  H6  UNL     1      20.273  -0.511  52.439  1.00  0.00     0.209 HD
ENDBRANCH  25  26
ENDBRANCH   6  25
TORSDOF 4
ENDMDL
MODEL 9
REMARK VINA RESULT:      -7.4      2.550      6.773
REMARK  4 active torsions:
REMARK  status: ('A' for Active; 'I' for Inactive)
REMARK    1  A    between atoms: C6_6  and  C7_7 
REMARK    2  A    between atoms: C7_7  and  O1_8 
REMARK    3  A    between atoms: C8_9  and  N1_10 
REMARK    4  A    between atoms: N1_10  and  C9_11 
ROOT
HETATM    1  C1  UNL     1      22.909   7.951  47.096  1.00  0.00     0.018 C 
HETATM    2  C2  UNL     1      23.495   7.052  47.653  1.00  0.00    -0.078 C 
HETATM    3  C3  UNL     1      24.185   5.992  48.337  1.00  0.00     0.019 A 
HETATM    4  C4  UNL     1      25.471   6.205  48.787  1.00  0.00     0.021 A 
HETATM    5  C5  UNL     1      26.066   5.126  49.440  1.00  0.00     0.013 A 
HETATM    6  C6  UNL     1      25.456   3.906  49.647  1.00  0.00    -0.008 A 
HETATM    7  C8  UNL     1      24.167   3.793  49.158  1.00  0.00     0.043 A 
HETATM    8  C20 UNL     1      23.495   4.805  48.499  1.00  0.00     0.050 A 
ENDROOT
BRANCH   7   9
HETATM    9  N1  UNL     1      23.467   2.565  49.329  1.00  0.00    -0.343 N 
HETATM   10  H7  UNL     1      23.895   1.742  48.809  1.00  0.00     0.167 HD
BRANCH   9  11
HETATM   11  C9  UNL     1      22.282   2.445  50.138  1.00  0.00     0.117 C 
HETATM   12  N2  UNL     1      21.219   2.063  49.456  1.00  0.00    -0.228 NA
HETATM   13  C10 UNL     1      20.053   1.386  49.999  1.00  0.00     0.235 C 
HETATM   14  N3  UNL     1      19.583   1.684  51.203  1.00  0.00    -0.242 NA
HETATM   15  C11 UNL     1      20.394   1.725  52.366  1.00  0.00     0.055 C 
HETATM   16  C12 UNL     1      21.184   2.846  52.206  1.00  0.00     0.021 C 
HETATM   17  C19 UNL     1      20.634   0.974  53.593  1.00  0.00     0.029 C 
HETATM   18  C13 UNL     1      22.560   2.786  51.555  1.00  0.00     0.103 C 
HETATM   19  C14 UNL     1      23.193   1.629  52.257  1.00  0.00    -0.012 C 
HETATM   20  C15 UNL     1      23.504   1.048  53.421  1.00  0.00    -0.004 C 
HETATM   21  C16 UNL     1      24.205  -0.239  53.689  1.00  0.00     0.195 C 
HETATM   22  O2  UNL     1      23.363  -1.137  54.403  1.00  0.00    -0.384 OA
HETATM   23  C17 UNL     1      22.184  -1.276  53.611  1.00  0.00     0.195 C 
HETATM   24  C18 UNL     1      21.357  -0.091  53.655  1.00  0.00     0.001 C 
ENDBRANCH   9  11
ENDBRANCH   7   9
BRANCH   6  25
HETATM   25  C7  UNL     1      26.136   2.798  50.347  1.00  0.00     0.205 C 
BRANCH  25  26
HETATM   26  O1  UNL     1      27.166   3.230  51.184  1.00  0.00    -0.396 OA
HETATM   27  H6  UNL     1      27.364   2.453  51.787  1.00  0.00     0.209 HD
ENDBRANCH  25  26
ENDBRANCH   6  25
TORSDOF 4
ENDMDL
