MODEL 1
REMARK VINA RESULT:      -8.3      0.000      0.000
REMARK  5 active torsions:
REMARK  status: ('A' for Active; 'I' for Inactive)
REMARK    1  A    between atoms: C2_2  and  C3_3 
REMARK    2  A    between atoms: C4_4  and  C5_5 
REMARK    3  A    between atoms: C5_5  and  N1_6 
REMARK    4  A    between atoms: C12_15  and  C13_16 
REMARK    5  A    between atoms: C18_22  and  O2_23 
ROOT
HETATM    1  C1  UNL     1      20.614   3.117  51.732  1.00  0.00     0.076 C 
HETATM    2  C2  UNL     1      21.043   1.639  51.661  1.00  0.00     0.157 C 
HETATM    3  N2  UNL     1      22.219   1.630  50.847  1.00  0.00    -0.365 N 
HETATM    4  C9  UNL     1      23.583   1.627  51.249  1.00  0.00     0.087 C 
HETATM    5  C10 UNL     1      24.167   1.091  52.313  1.00  0.00     0.033 C 
HETATM    6  C11 UNL     1      23.444   0.346  53.343  1.00  0.00     0.029 A 
HETATM    7  C12 UNL     1      24.288  -0.458  54.081  1.00  0.00    -0.007 A 
HETATM    8  C19 UNL     1      23.766  -1.252  55.102  1.00  0.00     0.032 A 
HETATM    9  C20 UNL     1      22.408  -1.184  55.318  1.00  0.00     0.120 A 
HETATM   10  N3  UNL     1      21.559  -0.405  54.610  1.00  0.00    -0.236 NA
HETATM   11  C21 UNL     1      22.083   0.366  53.615  1.00  0.00     0.178 A 
HETATM   12  O3  UNL     1      21.167   1.126  52.944  1.00  0.00    -0.298 OA
HETATM   13  H14 UNL     1      22.024   1.632  49.800  1.00  0.00     0.162 HD
ENDROOT
BRANCH   2  14
HETATM   14  C3  UNL     1      19.889   0.945  51.020  1.00  0.00     0.031 C 
HETATM   15  C4  UNL     1      18.618   0.604  51.241  1.00  0.00     0.004 C 
BRANCH  15  16
HETATM   16  C5  UNL     1      17.583  -0.126  50.429  1.00  0.00     0.302 C 
BRANCH  16  17
HETATM   17  N1  UNL     1      16.364  -0.175  51.164  1.00  0.00     0.116 N 
HETATM   18  C6  UNL     1      15.485  -1.180  50.640  1.00  0.00     0.301 C 
HETATM   19  C7  UNL     1      15.224  -2.070  51.854  1.00  0.00     0.200 C 
HETATM   20  O1  UNL     1      16.408  -1.896  52.572  1.00  0.00    -0.361 OA
HETATM   21  C8  UNL     1      16.569  -0.499  52.550  1.00  0.00     0.440 C 
ENDBRANCH  16  17
ENDBRANCH  15  16
ENDBRANCH   2  14
BRANCH   7  22
HETATM   22  C13 UNL     1      25.736  -0.462  53.785  1.00  0.00     0.010 A 
HETATM   23  C14 UNL     1      26.075  -1.568  52.992  1.00  0.00     0.015 A 
HETATM   24  C15 UNL     1      27.367  -1.802  52.579  1.00  0.00     0.002 A 
HETATM   25  C16 UNL     1      28.341  -0.909  52.968  1.00  0.00     0.022 A 
HETATM   26  C17 UNL     1      28.012   0.175  53.746  1.00  0.00     0.044 A 
HETATM   27 BR1  UNL     1      29.305   1.461  54.327  1.00  0.00    -0.048 Br
HETATM   28  C18 UNL     1      26.725   0.419  54.163  1.00  0.00     0.094 A 
BRANCH  28  29
HETATM   29  O2  UNL     1      26.241   1.457  54.940  1.00  0.00    -0.358 OA
HETATM   30  H20 UNL     1      25.255   1.655  55.086  1.00  0.00     0.217 HD
ENDBRANCH  28  29
ENDBRANCH   7  22
TORSDOF 5
ENDMDL
MODEL 2
REMARK VINA RESULT:      -7.8      4.573      8.666
REMARK  5 active torsions:
REMARK  status: ('A' for Active; 'I' for Inactive)
REMARK    1  A    between atoms: C2_2  and  C3_3 
REMARK    2  A    between atoms: C4_4  and  C5_5 
REMARK    3  A    between atoms: C5_5  and  N1_6 
REMARK    4  A    between atoms: C12_15  and  C13_16 
REMARK    5  A    between atoms: C18_22  and  O2_23 
ROOT
HETATM    1  C1  UNL     1      22.044   7.382  50.614  1.00  0.00     0.076 C 
HETATM    2  C2  UNL     1      22.924   6.117  50.596  1.00  0.00     0.157 C 
HETATM    3  N2  UNL     1      22.869   5.606  51.932  1.00  0.00    -0.365 N 
HETATM    4  C9  UNL     1      22.040   4.579  52.461  1.00  0.00     0.087 C 
HETATM    5  C10 UNL     1      21.553   3.484  51.892  1.00  0.00     0.033 C 
HETATM    6  C11 UNL     1      21.808   3.114  50.500  1.00  0.00     0.029 A 
HETATM    7  C12 UNL     1      21.577   1.773  50.276  1.00  0.00    -0.007 A 
HETATM    8  C19 UNL     1      21.783   1.241  49.004  1.00  0.00     0.032 A 
HETATM    9  C20 UNL     1      22.215   2.106  48.024  1.00  0.00     0.120 A 
HETATM   10  N3  UNL     1      22.449   3.424  48.216  1.00  0.00    -0.236 NA
HETATM   11  C21 UNL     1      22.244   3.931  49.465  1.00  0.00     0.178 A 
HETATM   12  O3  UNL     1      22.499   5.267  49.584  1.00  0.00    -0.298 OA
HETATM   13  H14 UNL     1      23.546   6.076  52.605  1.00  0.00     0.162 HD
ENDROOT
BRANCH   2  14
HETATM   14  C3  UNL     1      24.280   6.608  50.218  1.00  0.00     0.031 C 
HETATM   15  C4  UNL     1      25.388   6.233  49.576  1.00  0.00     0.004 C 
BRANCH  15  16
HETATM   16  C5  UNL     1      26.703   6.908  49.295  1.00  0.00     0.302 C 
BRANCH  16  17
HETATM   17  N1  UNL     1      27.331   6.261  48.192  1.00  0.00     0.116 N 
HETATM   18  C6  UNL     1      28.479   6.997  47.749  1.00  0.00     0.301 C 
HETATM   19  C7  UNL     1      29.605   5.970  47.856  1.00  0.00     0.200 C 
HETATM   20  O1  UNL     1      29.135   5.167  48.897  1.00  0.00    -0.361 OA
HETATM   21  C8  UNL     1      27.798   4.942  48.521  1.00  0.00     0.440 C 
ENDBRANCH  16  17
ENDBRANCH  15  16
ENDBRANCH   2  14
BRANCH   7  22
HETATM   22  C13 UNL     1      21.107   0.919  51.386  1.00  0.00     0.010 A 
HETATM   23  C14 UNL     1      19.715   0.755  51.327  1.00  0.00     0.015 A 
HETATM   24  C15 UNL     1      19.028   0.001  52.252  1.00  0.00     0.002 A 
HETATM   25  C16 UNL     1      19.750  -0.601  53.258  1.00  0.00     0.022 A 
HETATM   26  C17 UNL     1      21.114  -0.442  53.319  1.00  0.00     0.044 A 
HETATM   27 BR1  UNL     1      22.190  -1.246  54.684  1.00  0.00    -0.048 Br
HETATM   28  C18 UNL     1      21.810   0.307  52.401  1.00  0.00     0.094 A 
BRANCH  28  29
HETATM   29  O2  UNL     1      23.170   0.559  52.328  1.00  0.00    -0.358 OA
HETATM   30  H20 UNL     1      23.774   0.691  53.134  1.00  0.00     0.217 HD
ENDBRANCH  28  29
ENDBRANCH   7  22
TORSDOF 5
ENDMDL
MODEL 3
REMARK VINA RESULT:      -7.7      5.278      8.825
REMARK  5 active torsions:
REMARK  status: ('A' for Active; 'I' for Inactive)
REMARK    1  A    between atoms: C2_2  and  C3_3 
REMARK    2  A    between atoms: C4_4  and  C5_5 
REMARK    3  A    between atoms: C5_5  and  N1_6 
REMARK    4  A    between atoms: C12_15  and  C13_16 
REMARK    5  A    between atoms: C18_22  and  O2_23 
ROOT
HETATM    1  C1  UNL     1      22.826   7.401  50.815  1.00  0.00     0.076 C 
HETATM    2  C2  UNL     1      23.639   6.119  50.550  1.00  0.00     0.157 C 
HETATM    3  N2  UNL     1      24.079   5.683  51.840  1.00  0.00    -0.365 N 
HETATM    4  C9  UNL     1      23.503   4.705  52.695  1.00  0.00     0.087 C 
HETATM    5  C10 UNL     1      22.843   3.590  52.408  1.00  0.00     0.033 C 
HETATM    6  C11 UNL     1      22.570   3.139  51.044  1.00  0.00     0.029 A 
HETATM    7  C12 UNL     1      22.275   1.792  50.999  1.00  0.00    -0.007 A 
HETATM    8  C19 UNL     1      22.001   1.187  49.773  1.00  0.00     0.032 A 
HETATM    9  C20 UNL     1      22.043   1.989  48.654  1.00  0.00     0.120 A 
HETATM   10  N3  UNL     1      22.329   3.310  48.670  1.00  0.00    -0.236 NA
HETATM   11  C21 UNL     1      22.595   3.889  49.875  1.00  0.00     0.178 A 
HETATM   12  O3  UNL     1      22.875   5.225  49.815  1.00  0.00    -0.298 OA
HETATM   13  H14 UNL     1      24.955   6.176  52.190  1.00  0.00     0.162 HD
ENDROOT
BRANCH   2  14
HETATM   14  C3  UNL     1      24.762   6.562  49.674  1.00  0.00     0.031 C 
HETATM   15  C4  UNL     1      25.968   7.131  49.725  1.00  0.00     0.004 C 
BRANCH  15  16
HETATM   16  C5  UNL     1      26.983   7.507  48.682  1.00  0.00     0.302 C 
BRANCH  16  17
HETATM   17  N1  UNL     1      27.929   8.406  49.253  1.00  0.00     0.116 N 
HETATM   18  C6  UNL     1      28.487   9.271  48.255  1.00  0.00     0.301 C 
HETATM   19  C7  UNL     1      28.163  10.664  48.791  1.00  0.00     0.200 C 
HETATM   20  O1  UNL     1      26.994  10.408  49.510  1.00  0.00    -0.361 OA
HETATM   21  C8  UNL     1      27.341   9.262  50.248  1.00  0.00     0.440 C 
ENDBRANCH  16  17
ENDBRANCH  15  16
ENDBRANCH   2  14
BRANCH   7  22
HETATM   22  C13 UNL     1      22.245   1.010  52.252  1.00  0.00     0.010 A 
HETATM   23  C14 UNL     1      20.937   0.925  52.750  1.00  0.00     0.015 A 
HETATM   24  C15 UNL     1      20.640   0.248  53.912  1.00  0.00     0.002 A 
HETATM   25  C16 UNL     1      21.675  -0.356  54.589  1.00  0.00     0.022 A 
HETATM   26  C17 UNL     1      22.959  -0.274  54.104  1.00  0.00     0.044 A 
HETATM   27 BR1  UNL     1      24.452  -1.086  54.985  1.00  0.00    -0.048 Br
HETATM   28  C18 UNL     1      23.266   0.398  52.946  1.00  0.00     0.094 A 
BRANCH  28  29
HETATM   29  O2  UNL     1      24.497   0.568  52.334  1.00  0.00    -0.358 OA
HETATM   30  H20 UNL     1      25.129  -0.191  52.093  1.00  0.00     0.217 HD
ENDBRANCH  28  29
ENDBRANCH   7  22
TORSDOF 5
ENDMDL
MODEL 4
REMARK VINA RESULT:      -7.5      4.145      8.650
REMARK  5 active torsions:
REMARK  status: ('A' for Active; 'I' for Inactive)
REMARK    1  A    between atoms: C2_2  and  C3_3 
REMARK    2  A    between atoms: C4_4  and  C5_5 
REMARK    3  A    between atoms: C5_5  and  N1_6 
REMARK    4  A    between atoms: C12_15  and  C13_16 
REMARK    5  A    between atoms: C18_22  and  O2_23 
ROOT
HETATM    1  C1  UNL     1      21.837   0.051  54.100  1.00  0.00     0.076 C 
HETATM    2  C2  UNL     1      22.796   0.551  53.002  1.00  0.00     0.157 C 
HETATM    3  N2  UNL     1      22.282   0.008  51.782  1.00  0.00    -0.365 N 
HETATM    4  C9  UNL     1      21.439   0.623  50.817  1.00  0.00     0.087 C 
HETATM    5  C10 UNL     1      21.348   1.889  50.433  1.00  0.00     0.033 C 
HETATM    6  C11 UNL     1      22.171   2.964  50.988  1.00  0.00     0.029 A 
HETATM    7  C12 UNL     1      22.207   4.063  50.155  1.00  0.00    -0.007 A 
HETATM    8  C19 UNL     1      22.957   5.180  50.520  1.00  0.00     0.032 A 
HETATM    9  C20 UNL     1      23.634   5.118  51.718  1.00  0.00     0.120 A 
HETATM   10  N3  UNL     1      23.616   4.054  52.551  1.00  0.00    -0.236 NA
HETATM   11  C21 UNL     1      22.879   2.968  52.182  1.00  0.00     0.178 A 
HETATM   12  O3  UNL     1      22.907   1.933  53.072  1.00  0.00    -0.298 OA
HETATM   13  H14 UNL     1      22.579  -0.997  51.595  1.00  0.00     0.162 HD
ENDROOT
BRANCH   2  14
HETATM   14  C3  UNL     1      24.123  -0.017  53.376  1.00  0.00     0.031 C 
HETATM   15  C4  UNL     1      25.427   0.267  53.353  1.00  0.00     0.004 C 
BRANCH  15  16
HETATM   16  C5  UNL     1      26.658  -0.474  53.799  1.00  0.00     0.302 C 
BRANCH  16  17
HETATM   17  N1  UNL     1      27.808   0.155  53.241  1.00  0.00     0.116 N 
HETATM   18  C6  UNL     1      27.530   1.514  52.882  1.00  0.00     0.301 C 
HETATM   19  C7  UNL     1      28.575   2.297  53.673  1.00  0.00     0.200 C 
HETATM   20  O1  UNL     1      28.764   1.456  54.770  1.00  0.00    -0.361 OA
HETATM   21  C8  UNL     1      28.912   0.197  54.161  1.00  0.00     0.440 C 
ENDBRANCH  16  17
ENDBRANCH  15  16
ENDBRANCH   2  14
BRANCH   7  22
HETATM   22  C13 UNL     1      21.442   4.046  48.891  1.00  0.00     0.010 A 
HETATM   23  C14 UNL     1      22.244   3.590  47.835  1.00  0.00     0.015 A 
HETATM   24  C15 UNL     1      21.767   3.483  46.548  1.00  0.00     0.002 A 
HETATM   25  C16 UNL     1      20.457   3.839  46.313  1.00  0.00     0.022 A 
HETATM   26  C17 UNL     1      19.668   4.287  47.346  1.00  0.00     0.044 A 
HETATM   27 BR1  UNL     1      17.841   4.801  47.104  1.00  0.00    -0.048 Br
HETATM   28  C18 UNL     1      20.135   4.398  48.634  1.00  0.00     0.094 A 
BRANCH  28  29
HETATM   29  O2  UNL     1      19.470   4.827  49.771  1.00  0.00    -0.358 OA
HETATM   30  H20 UNL     1      19.713   5.659  50.300  1.00  0.00     0.217 HD
ENDBRANCH  28  29
ENDBRANCH   7  22
TORSDOF 5
ENDMDL
MODEL 5
REMARK VINA RESULT:      -7.4      6.506      9.578
REMARK  5 active torsions:
REMARK  status: ('A' for Active; 'I' for Inactive)
REMARK    1  A    between atoms: C2_2  and  C3_3 
REMARK    2  A    between atoms: C4_4  and  C5_5 
REMARK    3  A    between atoms: C5_5  and  N1_6 
REMARK    4  A    between atoms: C12_15  and  C13_16 
REMARK    5  A    between atoms: C18_22  and  O2_23 
ROOT
HETATM    1  C1  UNL     1      24.871   2.574  49.214  1.00  0.00     0.076 C 
HETATM    2  C2  UNL     1      25.497   3.642  50.132  1.00  0.00     0.157 C 
HETATM    3  N2  UNL     1      26.845   3.784  49.672  1.00  0.00    -0.365 N 
HETATM    4  C9  UNL     1      27.386   4.754  48.784  1.00  0.00     0.087 C 
HETATM    5  C10 UNL     1      27.055   6.023  48.588  1.00  0.00     0.033 C 
HETATM    6  C11 UNL     1      25.982   6.701  49.314  1.00  0.00     0.029 A 
HETATM    7  C12 UNL     1      26.115   8.074  49.260  1.00  0.00    -0.007 A 
HETATM    8  C19 UNL     1      25.184   8.882  49.911  1.00  0.00     0.032 A 
HETATM    9  C20 UNL     1      24.164   8.248  50.586  1.00  0.00     0.120 A 
HETATM   10  N3  UNL     1      24.012   6.907  50.654  1.00  0.00    -0.236 NA
HETATM   11  C21 UNL     1      24.929   6.128  50.013  1.00  0.00     0.178 A 
HETATM   12  O3  UNL     1      24.710   4.784  50.125  1.00  0.00    -0.298 OA
HETATM   13  H14 UNL     1      27.515   3.051  50.054  1.00  0.00     0.162 HD
ENDROOT
BRANCH   2  14
HETATM   14  C3  UNL     1      25.411   3.056  51.501  1.00  0.00     0.031 C 
HETATM   15  C4  UNL     1      25.551   1.902  52.157  1.00  0.00     0.004 C 
BRANCH  15  16
HETATM   16  C5  UNL     1      25.415   1.507  53.601  1.00  0.00     0.302 C 
BRANCH  16  17
HETATM   17  N1  UNL     1      26.102   0.277  53.815  1.00  0.00     0.116 N 
HETATM   18  C6  UNL     1      27.216   0.147  52.922  1.00  0.00     0.301 C 
HETATM   19  C7  UNL     1      28.395  -0.048  53.872  1.00  0.00     0.200 C 
HETATM   20  O1  UNL     1      27.950   0.650  54.996  1.00  0.00    -0.361 OA
HETATM   21  C8  UNL     1      26.636   0.170  55.146  1.00  0.00     0.440 C 
ENDBRANCH  16  17
ENDBRANCH  15  16
ENDBRANCH   2  14
BRANCH   7  22
HETATM   22  C13 UNL     1      27.237   8.669  48.506  1.00  0.00     0.010 A 
HETATM   23  C14 UNL     1      27.014   8.566  47.126  1.00  0.00     0.015 A 
HETATM   24  C15 UNL     1      27.916   9.046  46.202  1.00  0.00     0.002 A 
HETATM   25  C16 UNL     1      29.066   9.641  46.671  1.00  0.00     0.022 A 
HETATM   26  C17 UNL     1      29.288   9.743  48.024  1.00  0.00     0.044 A 
HETATM   27 BR1  UNL     1      30.858  10.556  48.756  1.00  0.00    -0.048 Br
HETATM   28  C18 UNL     1      28.395   9.268  48.954  1.00  0.00     0.094 A 
BRANCH  28  29
HETATM   29  O2  UNL     1      28.474   9.297  50.336  1.00  0.00    -0.358 OA
HETATM   30  H20 UNL     1      28.546  10.145  50.891  1.00  0.00     0.217 HD
ENDBRANCH  28  29
ENDBRANCH   7  22
TORSDOF 5
ENDMDL
MODEL 6
REMARK VINA RESULT:      -7.1     22.256     26.668
REMARK  5 active torsions:
REMARK  status: ('A' for Active; 'I' for Inactive)
REMARK    1  A    between atoms: C2_2  and  C3_3 
REMARK    2  A    between atoms: C4_4  and  C5_5 
REMARK    3  A    between atoms: C5_5  and  N1_6 
REMARK    4  A    between atoms: C12_15  and  C13_16 
REMARK    5  A    between atoms: C18_22  and  O2_23 
ROOT
HETATM    1  C1  UNL     1      44.003   0.147  69.307  1.00  0.00     0.076 C 
HETATM    2  C2  UNL     1      43.216   1.302  68.659  1.00  0.00     0.157 C 
HETATM    3  N2  UNL     1      42.707   2.068  69.755  1.00  0.00    -0.365 N 
HETATM    4  C9  UNL     1      43.241   3.247  70.344  1.00  0.00     0.087 C 
HETATM    5  C10 UNL     1      43.924   4.247  69.803  1.00  0.00     0.033 C 
HETATM    6  C11 UNL     1      44.276   4.314  68.385  1.00  0.00     0.029 A 
HETATM    7  C12 UNL     1      44.583   5.601  67.994  1.00  0.00    -0.007 A 
HETATM    8  C19 UNL     1      44.930   5.853  66.667  1.00  0.00     0.032 A 
HETATM    9  C20 UNL     1      44.946   4.777  65.806  1.00  0.00     0.120 A 
HETATM   10  N3  UNL     1      44.650   3.508  66.164  1.00  0.00    -0.236 NA
HETATM   11  C21 UNL     1      44.312   3.276  67.464  1.00  0.00     0.178 A 
HETATM   12  O3  UNL     1      44.027   1.971  67.753  1.00  0.00    -0.298 OA
HETATM   13  H14 UNL     1      41.809   1.681  70.177  1.00  0.00     0.162 HD
ENDROOT
BRANCH   2  14
HETATM   14  C3  UNL     1      42.141   0.629  67.874  1.00  0.00     0.031 C 
HETATM   15  C4  UNL     1      40.933   0.079  68.012  1.00  0.00     0.004 C 
BRANCH  15  16
HETATM   16  C5  UNL     1      39.975  -0.573  67.053  1.00  0.00     0.302 C 
BRANCH  16  17
HETATM   17  N1  UNL     1      38.933  -1.204  67.792  1.00  0.00     0.116 N 
HETATM   18  C6  UNL     1      38.849  -0.674  69.121  1.00  0.00     0.301 C 
HETATM   19  C7  UNL     1      37.405  -0.183  69.202  1.00  0.00     0.200 C 
HETATM   20  O1  UNL     1      37.154   0.129  67.865  1.00  0.00    -0.361 OA
HETATM   21  C8  UNL     1      37.640  -1.009  67.196  1.00  0.00     0.440 C 
ENDBRANCH  16  17
ENDBRANCH  15  16
ENDBRANCH   2  14
BRANCH   7  22
HETATM   22  C13 UNL     1      44.548   6.694  68.987  1.00  0.00     0.010 A 
HETATM   23  C14 UNL     1      43.225   7.073  69.257  1.00  0.00     0.015 A 
HETATM   24  C15 UNL     1      42.920   8.076  70.150  1.00  0.00     0.002 A 
HETATM   25  C16 UNL     1      43.963   8.712  70.786  1.00  0.00     0.022 A 
HETATM   26  C17 UNL     1      45.260   8.343  70.523  1.00  0.00     0.044 A 
HETATM   27 BR1  UNL     1      46.764   9.177  71.365  1.00  0.00    -0.048 Br
HETATM   28  C18 UNL     1      45.576   7.344  69.634  1.00  0.00     0.094 A 
BRANCH  28  29
HETATM   29  O2  UNL     1      46.821   6.862  69.267  1.00  0.00    -0.358 OA
HETATM   30  H20 UNL     1      47.565   6.635  69.920  1.00  0.00     0.217 HD
ENDBRANCH  28  29
ENDBRANCH   7  22
TORSDOF 5
ENDMDL
MODEL 7
REMARK VINA RESULT:      -7.0      3.311      4.520
REMARK  5 active torsions:
REMARK  status: ('A' for Active; 'I' for Inactive)
REMARK    1  A    between atoms: C2_2  and  C3_3 
REMARK    2  A    between atoms: C4_4  and  C5_5 
REMARK    3  A    between atoms: C5_5  and  N1_6 
REMARK    4  A    between atoms: C12_15  and  C13_16 
REMARK    5  A    between atoms: C18_22  and  O2_23 
ROOT
HETATM    1  C1  UNL     1      20.609   3.229  46.733  1.00  0.00     0.076 C 
HETATM    2  C2  UNL     1      20.207   3.135  48.218  1.00  0.00     0.157 C 
HETATM    3  N2  UNL     1      20.322   1.747  48.548  1.00  0.00    -0.365 N 
HETATM    4  C9  UNL     1      21.401   1.066  49.174  1.00  0.00     0.087 C 
HETATM    5  C10 UNL     1      22.269   1.481  50.087  1.00  0.00     0.033 C 
HETATM    6  C11 UNL     1      22.265   2.828  50.655  1.00  0.00     0.029 A 
HETATM    7  C12 UNL     1      22.947   2.882  51.852  1.00  0.00    -0.007 A 
HETATM    8  C19 UNL     1      23.033   4.090  52.543  1.00  0.00     0.032 A 
HETATM    9  C20 UNL     1      22.417   5.183  51.976  1.00  0.00     0.120 A 
HETATM   10  N3  UNL     1      21.742   5.158  50.805  1.00  0.00    -0.236 NA
HETATM   11  C21 UNL     1      21.666   3.970  50.140  1.00  0.00     0.178 A 
HETATM   12  O3  UNL     1      20.970   4.020  48.965  1.00  0.00    -0.298 OA
HETATM   13  H14 UNL     1      19.476   1.163  48.273  1.00  0.00     0.162 HD
ENDROOT
BRANCH   2  14
HETATM   14  C3  UNL     1      18.799   3.625  48.257  1.00  0.00     0.031 C 
HETATM   15  C4  UNL     1      17.722   3.654  49.045  1.00  0.00     0.004 C 
BRANCH  15  16
HETATM   16  C5  UNL     1      16.339   4.224  48.890  1.00  0.00     0.302 C 
BRANCH  16  17
HETATM   17  N1  UNL     1      15.422   3.429  49.635  1.00  0.00     0.116 N 
HETATM   18  C6  UNL     1      16.112   2.539  50.522  1.00  0.00     0.301 C 
HETATM   19  C7  UNL     1      15.539   2.906  51.889  1.00  0.00     0.200 C 
HETATM   20  O1  UNL     1      15.221   4.250  51.693  1.00  0.00    -0.361 OA
HETATM   21  C8  UNL     1      14.549   4.222  50.458  1.00  0.00     0.440 C 
ENDBRANCH  16  17
ENDBRANCH  15  16
ENDBRANCH   2  14
BRANCH   7  22
HETATM   22  C13 UNL     1      23.586   1.660  52.383  1.00  0.00     0.010 A 
HETATM   23  C14 UNL     1      22.684   0.935  53.175  1.00  0.00     0.015 A 
HETATM   24  C15 UNL     1      23.036  -0.245  53.790  1.00  0.00     0.002 A 
HETATM   25  C16 UNL     1      24.319  -0.711  53.607  1.00  0.00     0.022 A 
HETATM   26  C17 UNL     1      25.206  -0.003  52.831  1.00  0.00     0.044 A 
HETATM   27 BR1  UNL     1      27.005  -0.581  52.527  1.00  0.00    -0.048 Br
HETATM   28  C18 UNL     1      24.865   1.176  52.213  1.00  0.00     0.094 A 
BRANCH  28  29
HETATM   29  O2  UNL     1      25.638   1.996  51.408  1.00  0.00    -0.358 OA
HETATM   30  H20 UNL     1      26.654   2.009  51.407  1.00  0.00     0.217 HD
ENDBRANCH  28  29
ENDBRANCH   7  22
TORSDOF 5
ENDMDL
MODEL 8
REMARK VINA RESULT:      -7.0      4.087      9.170
REMARK  5 active torsions:
REMARK  status: ('A' for Active; 'I' for Inactive)
REMARK    1  A    between atoms: C2_2  and  C3_3 
REMARK    2  A    between atoms: C4_4  and  C5_5 
REMARK    3  A    between atoms: C5_5  and  N1_6 
REMARK    4  A    between atoms: C12_15  and  C13_16 
REMARK    5  A    between atoms: C18_22  and  O2_23 
ROOT
HETATM    1  C1  UNL     1      21.976   0.360  53.803  1.00  0.00     0.076 C 
HETATM    2  C2  UNL     1      22.338   1.051  52.474  1.00  0.00     0.157 C 
HETATM    3  N2  UNL     1      21.535   0.400  51.484  1.00  0.00    -0.365 N 
HETATM    4  C9  UNL     1      20.289   0.810  50.936  1.00  0.00     0.087 C 
HETATM    5  C10 UNL     1      19.805   2.023  50.707  1.00  0.00     0.033 C 
HETATM    6  C11 UNL     1      20.534   3.255  51.007  1.00  0.00     0.029 A 
HETATM    7  C12 UNL     1      20.033   4.330  50.302  1.00  0.00    -0.007 A 
HETATM    8  C19 UNL     1      20.618   5.587  50.455  1.00  0.00     0.032 A 
HETATM    9  C20 UNL     1      21.685   5.682  51.320  1.00  0.00     0.120 A 
HETATM   10  N3  UNL     1      22.194   4.645  52.022  1.00  0.00    -0.236 NA
HETATM   11  C21 UNL     1      21.613   3.422  51.863  1.00  0.00     0.178 A 
HETATM   12  O3  UNL     1      22.180   2.423  52.603  1.00  0.00    -0.298 OA
HETATM   13  H14 UNL     1      21.943  -0.516  51.128  1.00  0.00     0.162 HD
ENDROOT
BRANCH   2  14
HETATM   14  C3  UNL     1      23.796   0.790  52.301  1.00  0.00     0.031 C 
HETATM   15  C4  UNL     1      24.821   0.157  52.874  1.00  0.00     0.004 C 
BRANCH  15  16
HETATM   16  C5  UNL     1      26.277   0.010  52.524  1.00  0.00     0.302 C 
BRANCH  16  17
HETATM   17  N1  UNL     1      26.966  -0.566  53.630  1.00  0.00     0.116 N 
HETATM   18  C6  UNL     1      28.379  -0.610  53.391  1.00  0.00     0.301 C 
HETATM   19  C7  UNL     1      28.950   0.169  54.574  1.00  0.00     0.200 C 
HETATM   20  O1  UNL     1      27.898   1.044  54.850  1.00  0.00    -0.361 OA
HETATM   21  C8  UNL     1      26.785   0.185  54.843  1.00  0.00     0.440 C 
ENDBRANCH  16  17
ENDBRANCH  15  16
ENDBRANCH   2  14
BRANCH   7  22
HETATM   22  C13 UNL     1      18.878   4.138  49.401  1.00  0.00     0.010 A 
HETATM   23  C14 UNL     1      19.306   3.719  48.133  1.00  0.00     0.015 A 
HETATM   24  C15 UNL     1      18.421   3.471  47.108  1.00  0.00     0.002 A 
HETATM   25  C16 UNL     1      17.078   3.648  47.358  1.00  0.00     0.022 A 
HETATM   26  C17 UNL     1      16.655   4.059  48.599  1.00  0.00     0.044 A 
HETATM   27 BR1  UNL     1      14.809   4.327  49.028  1.00  0.00    -0.048 Br
HETATM   28  C18 UNL     1      17.530   4.309  49.630  1.00  0.00     0.094 A 
BRANCH  28  29
HETATM   29  O2  UNL     1      17.262   4.724  50.923  1.00  0.00    -0.358 OA
HETATM   30  H20 UNL     1      16.417   5.212  51.207  1.00  0.00     0.217 HD
ENDBRANCH  28  29
ENDBRANCH   7  22
TORSDOF 5
ENDMDL
MODEL 9
REMARK VINA RESULT:      -7.0      4.002      5.381
REMARK  5 active torsions:
REMARK  status: ('A' for Active; 'I' for Inactive)
REMARK    1  A    between atoms: C2_2  and  C3_3 
REMARK    2  A    between atoms: C4_4  and  C5_5 
REMARK    3  A    between atoms: C5_5  and  N1_6 
REMARK    4  A    between atoms: C12_15  and  C13_16 
REMARK    5  A    between atoms: C18_22  and  O2_23 
ROOT
HETATM    1  C1  UNL     1      24.066   6.143  49.499  1.00  0.00     0.076 C 
HETATM    2  C2  UNL     1      23.847   4.624  49.360  1.00  0.00     0.157 C 
HETATM    3  N2  UNL     1      25.147   4.082  49.106  1.00  0.00    -0.365 N 
HETATM    4  C9  UNL     1      26.065   3.498  50.022  1.00  0.00     0.087 C 
HETATM    5  C10 UNL     1      25.851   2.791  51.124  1.00  0.00     0.033 C 
HETATM    6  C11 UNL     1      24.519   2.465  51.630  1.00  0.00     0.029 A 
HETATM    7  C12 UNL     1      24.550   1.394  52.500  1.00  0.00    -0.007 A 
HETATM    8  C19 UNL     1      23.363   0.935  53.071  1.00  0.00     0.032 A 
HETATM    9  C20 UNL     1      22.204   1.593  52.724  1.00  0.00     0.120 A 
HETATM   10  N3  UNL     1      22.146   2.643  51.874  1.00  0.00    -0.236 NA
HETATM   11  C21 UNL     1      23.313   3.081  51.324  1.00  0.00     0.178 A 
HETATM   12  O3  UNL     1      23.178   4.145  50.477  1.00  0.00    -0.298 OA
HETATM   13  H14 UNL     1      25.451   4.139  48.087  1.00  0.00     0.162 HD
ENDROOT
BRANCH   2  14
HETATM   14  C3  UNL     1      22.923   4.483  48.198  1.00  0.00     0.031 C 
HETATM   15  C4  UNL     1      22.157   3.587  47.573  1.00  0.00     0.004 C 
BRANCH  15  16
HETATM   16  C5  UNL     1      21.264   3.648  46.365  1.00  0.00     0.302 C 
BRANCH  16  17
HETATM   17  N1  UNL     1      20.905   5.005  46.119  1.00  0.00     0.116 N 
HETATM   18  C6  UNL     1      21.239   5.392  44.779  1.00  0.00     0.301 C 
HETATM   19  C7  UNL     1      19.899   5.859  44.215  1.00  0.00     0.200 C 
HETATM   20  O1  UNL     1      19.011   5.078  44.956  1.00  0.00    -0.361 OA
HETATM   21  C8  UNL     1      19.494   5.236  46.267  1.00  0.00     0.440 C 
ENDBRANCH  16  17
ENDBRANCH  15  16
ENDBRANCH   2  14
BRANCH   7  22
HETATM   22  C13 UNL     1      25.841   0.753  52.822  1.00  0.00     0.010 A 
HETATM   23  C14 UNL     1      25.899  -0.540  52.284  1.00  0.00     0.015 A 
HETATM   24  C15 UNL     1      27.000  -1.351  52.446  1.00  0.00     0.002 A 
HETATM   25  C16 UNL     1      28.067  -0.856  53.162  1.00  0.00     0.022 A 
HETATM   26  C17 UNL     1      28.014   0.412  53.691  1.00  0.00     0.044 A 
HETATM   27 BR1  UNL     1      29.453   1.175  54.696  1.00  0.00    -0.048 Br
HETATM   28  C18 UNL     1      26.920   1.230  53.535  1.00  0.00     0.094 A 
BRANCH  28  29
HETATM   29  O2  UNL     1      26.718   2.518  54.002  1.00  0.00    -0.358 OA
HETATM   30  H20 UNL     1      27.292   2.970  54.708  1.00  0.00     0.217 HD
ENDBRANCH  28  29
ENDBRANCH   7  22
TORSDOF 5
ENDMDL
