MODEL 1
REMARK VINA RESULT:     -10.0      0.000      0.000
REMARK  5 active torsions:
REMARK  status: ('A' for Active; 'I' for Inactive)
REMARK    1  A    between atoms: C7_7  and  C8_8 
REMARK       I    between atoms: C8_8  and  N1_10 
REMARK    2  A    between atoms: N1_10  and  C9_11 
REMARK    3  A    between atoms: C13_15  and  N2_16 
REMARK    4  A    between atoms: C16_20  and  C17_21 
REMARK    5  A    between atoms: C21_26  and  O2_27 
ROOT
HETATM    1  C9  UNL     1      25.978   2.579  50.815  1.00  0.00     0.037 A 
HETATM    2  C10 UNL     1      24.577   2.596  50.765  1.00  0.00     0.029 A 
HETATM    3  C11 UNL     1      23.930   3.617  50.052  1.00  0.00     0.005 A 
HETATM    4  C12 UNL     1      24.745   4.548  49.441  1.00  0.00     0.032 A 
HETATM    5  C13 UNL     1      26.120   4.544  49.482  1.00  0.00     0.059 A 
HETATM    6  C22 UNL     1      26.730   3.531  50.188  1.00  0.00     0.061 A 
ENDROOT
BRANCH   5   7
HETATM    7  N2  UNL     1      26.877   5.557  48.835  1.00  0.00    -0.250 N 
HETATM    8  C14 UNL     1      26.217   6.691  48.231  1.00  0.00     0.232 A 
HETATM    9  N3  UNL     1      26.949   7.580  47.649  1.00  0.00    -0.252 NA
HETATM   10  C15 UNL     1      28.362   7.476  47.584  1.00  0.00     0.149 A 
HETATM   11  C16 UNL     1      29.075   6.492  48.096  1.00  0.00     0.080 A 
HETATM   12  N5  UNL     1      28.267   5.523  48.733  1.00  0.00    -0.291 N 
HETATM   13  H18 UNL     1      28.693   4.706  49.170  1.00  0.00     0.187 HD
BRANCH  11  14
HETATM   14  C17 UNL     1      30.511   6.483  47.974  1.00  0.00     0.046 A 
HETATM   15  C18 UNL     1      31.125   6.937  46.833  1.00  0.00     0.020 A 
HETATM   16  C19 UNL     1      32.491   6.945  46.655  1.00  0.00     0.020 A 
HETATM   17  C20 UNL     1      33.348   6.483  47.651  1.00  0.00     0.119 A 
HETATM   18  N4  UNL     1      32.755   6.042  48.761  1.00  0.00    -0.236 NA
HETATM   19  C21 UNL     1      31.428   6.045  48.904  1.00  0.00     0.174 A 
BRANCH  19  20
HETATM   20  O2  UNL     1      30.978   5.556  50.112  1.00  0.00    -0.344 OA
HETATM   21  H17 UNL     1      30.753   4.605  50.309  1.00  0.00     0.219 HD
ENDBRANCH  19  20
ENDBRANCH  11  14
ENDBRANCH   5   7
BRANCH   1  22
HETATM   22  N1  UNL     1      26.458   1.479  51.587  1.00  0.00    -0.323 N 
HETATM   23  C8  UNL     1      26.423   0.859  52.873  1.00  0.00     0.256 C 
HETATM   24  O1  UNL     1      25.759   1.317  53.839  1.00  0.00    -0.267 OA
HETATM   25  H8  UNL     1      27.030   1.047  50.797  1.00  0.00     0.169 HD
BRANCH  23  26
HETATM   26  C7  UNL     1      27.244  -0.369  52.955  1.00  0.00     0.038 A 
HETATM   27  C2  UNL     1      28.522  -0.074  53.434  1.00  0.00    -0.046 A 
HETATM   28  C1  UNL     1      29.007   1.273  53.827  1.00  0.00     0.049 C 
HETATM   29  C3  UNL     1      29.429  -1.123  53.563  1.00  0.00     0.007 A 
HETATM   30  C4  UNL     1      29.087  -2.416  53.229  1.00  0.00     0.001 A 
HETATM   31  C5  UNL     1      27.812  -2.659  52.760  1.00  0.00     0.001 A 
HETATM   32  C6  UNL     1      26.879  -1.652  52.616  1.00  0.00     0.017 A 
ENDBRANCH  23  26
ENDBRANCH   1  22
TORSDOF 5
ENDMDL
MODEL 2
REMARK VINA RESULT:      -9.7      2.009      8.146
REMARK  5 active torsions:
REMARK  status: ('A' for Active; 'I' for Inactive)
REMARK    1  A    between atoms: C7_7  and  C8_8 
REMARK       I    between atoms: C8_8  and  N1_10 
REMARK    2  A    between atoms: N1_10  and  C9_11 
REMARK    3  A    between atoms: C13_15  and  N2_16 
REMARK    4  A    between atoms: C16_20  and  C17_21 
REMARK    5  A    between atoms: C21_26  and  O2_27 
ROOT
HETATM    1  C9  UNL     1      28.685   5.915  47.982  1.00  0.00     0.037 A 
HETATM    2  C10 UNL     1      28.115   7.150  47.640  1.00  0.00     0.029 A 
HETATM    3  C11 UNL     1      26.792   7.422  48.023  1.00  0.00     0.005 A 
HETATM    4  C12 UNL     1      26.141   6.427  48.723  1.00  0.00     0.032 A 
HETATM    5  C13 UNL     1      26.688   5.212  49.064  1.00  0.00     0.059 A 
HETATM    6  C22 UNL     1      27.987   4.970  48.677  1.00  0.00     0.061 A 
ENDROOT
BRANCH   5   7
HETATM    7  N2  UNL     1      25.932   4.240  49.773  1.00  0.00    -0.250 N 
HETATM    8  C14 UNL     1      24.561   3.969  49.409  1.00  0.00     0.232 A 
HETATM    9  N3  UNL     1      23.916   3.083  50.089  1.00  0.00    -0.252 NA
HETATM   10  C15 UNL     1      24.505   2.378  51.169  1.00  0.00     0.149 A 
HETATM   11  C16 UNL     1      25.744   2.536  51.593  1.00  0.00     0.080 A 
HETATM   12  N5  UNL     1      26.444   3.508  50.843  1.00  0.00    -0.291 N 
HETATM   13  H18 UNL     1      27.413   3.730  51.069  1.00  0.00     0.187 HD
BRANCH  11  14
HETATM   14  C17 UNL     1      26.246   1.765  52.703  1.00  0.00     0.046 A 
HETATM   15  C18 UNL     1      25.487   0.772  53.272  1.00  0.00     0.020 A 
HETATM   16  C19 UNL     1      25.909   0.009  54.338  1.00  0.00     0.020 A 
HETATM   17  C20 UNL     1      27.162   0.206  54.913  1.00  0.00     0.119 A 
HETATM   18  N4  UNL     1      27.902   1.170  54.362  1.00  0.00    -0.236 NA
HETATM   19  C21 UNL     1      27.466   1.895  53.329  1.00  0.00     0.174 A 
BRANCH  19  20
HETATM   20  O2  UNL     1      28.353   2.849  52.880  1.00  0.00    -0.344 OA
HETATM   21  H17 UNL     1      29.140   3.196  53.383  1.00  0.00     0.219 HD
ENDBRANCH  19  20
ENDBRANCH  11  14
ENDBRANCH   5   7
BRANCH   1  22
HETATM   22  N1  UNL     1      30.026   5.812  47.505  1.00  0.00    -0.323 N 
HETATM   23  C8  UNL     1      31.367   5.481  47.870  1.00  0.00     0.256 C 
HETATM   24  O1  UNL     1      31.692   5.106  49.026  1.00  0.00    -0.267 OA
HETATM   25  H8  UNL     1      29.800   6.116  46.508  1.00  0.00     0.169 HD
BRANCH  23  26
HETATM   26  C7  UNL     1      32.331   5.622  46.755  1.00  0.00     0.038 A 
HETATM   27  C2  UNL     1      32.581   4.383  46.163  1.00  0.00    -0.046 A 
HETATM   28  C1  UNL     1      31.968   3.092  46.567  1.00  0.00     0.049 C 
HETATM   29  C3  UNL     1      33.479   4.339  45.099  1.00  0.00     0.007 A 
HETATM   30  C4  UNL     1      34.106   5.476  44.638  1.00  0.00     0.001 A 
HETATM   31  C5  UNL     1      33.827   6.678  45.255  1.00  0.00     0.001 A 
HETATM   32  C6  UNL     1      32.945   6.772  46.312  1.00  0.00     0.017 A 
ENDBRANCH  23  26
ENDBRANCH   1  22
TORSDOF 5
ENDMDL
MODEL 3
REMARK VINA RESULT:      -9.6      4.335     10.257
REMARK  5 active torsions:
REMARK  status: ('A' for Active; 'I' for Inactive)
REMARK    1  A    between atoms: C7_7  and  C8_8 
REMARK       I    between atoms: C8_8  and  N1_10 
REMARK    2  A    between atoms: N1_10  and  C9_11 
REMARK    3  A    between atoms: C13_15  and  N2_16 
REMARK    4  A    between atoms: C16_20  and  C17_21 
REMARK    5  A    between atoms: C21_26  and  O2_27 
ROOT
HETATM    1  C9  UNL     1      26.046   2.076  52.049  1.00  0.00     0.037 A 
HETATM    2  C10 UNL     1      27.263   1.741  52.661  1.00  0.00     0.029 A 
HETATM    3  C11 UNL     1      27.276   0.761  53.666  1.00  0.00     0.005 A 
HETATM    4  C12 UNL     1      26.059   0.190  53.979  1.00  0.00     0.032 A 
HETATM    5  C13 UNL     1      24.859   0.509  53.388  1.00  0.00     0.059 A 
HETATM    6  C22 UNL     1      24.874   1.474  52.405  1.00  0.00     0.061 A 
ENDROOT
BRANCH   5   7
HETATM    7  N2  UNL     1      23.652  -0.121  53.790  1.00  0.00    -0.250 N 
HETATM    8  C14 UNL     1      23.625  -0.979  54.953  1.00  0.00     0.232 A 
HETATM    9  N3  UNL     1      22.506  -1.534  55.272  1.00  0.00    -0.252 NA
HETATM   10  C15 UNL     1      21.318  -1.331  54.525  1.00  0.00     0.149 A 
HETATM   11  C16 UNL     1      21.216  -0.574  53.450  1.00  0.00     0.080 A 
HETATM   12  N5  UNL     1      22.447   0.031  53.107  1.00  0.00    -0.291 N 
HETATM   13  H18 UNL     1      22.509   0.642  52.293  1.00  0.00     0.187 HD
BRANCH  11  14
HETATM   14  C17 UNL     1      19.957  -0.435  52.763  1.00  0.00     0.046 A 
HETATM   15  C18 UNL     1      18.812  -1.001  53.268  1.00  0.00     0.020 A 
HETATM   16  C19 UNL     1      17.583  -0.910  52.653  1.00  0.00     0.020 A 
HETATM   17  C20 UNL     1      17.429  -0.218  51.454  1.00  0.00     0.119 A 
HETATM   18  N4  UNL     1      18.539   0.334  50.961  1.00  0.00    -0.236 NA
HETATM   19  C21 UNL     1      19.717   0.227  51.579  1.00  0.00     0.174 A 
BRANCH  19  20
HETATM   20  O2  UNL     1      20.763   0.855  50.937  1.00  0.00    -0.344 OA
HETATM   21  H17 UNL     1      21.166   1.728  51.196  1.00  0.00     0.219 HD
ENDBRANCH  19  20
ENDBRANCH  11  14
ENDBRANCH   5   7
BRANCH   1  22
HETATM   22  N1  UNL     1      26.223   3.091  51.062  1.00  0.00    -0.323 N 
HETATM   23  C8  UNL     1      25.689   3.651  49.862  1.00  0.00     0.256 C 
HETATM   24  O1  UNL     1      24.653   3.210  49.300  1.00  0.00    -0.267 OA
HETATM   25  H8  UNL     1      27.099   3.508  51.506  1.00  0.00     0.169 HD
BRANCH  23  26
HETATM   26  C7  UNL     1      26.473   4.797  49.348  1.00  0.00     0.038 A 
HETATM   27  C2  UNL     1      25.840   6.002  49.656  1.00  0.00    -0.046 A 
HETATM   28  C1  UNL     1      24.565   6.142  50.405  1.00  0.00     0.049 C 
HETATM   29  C3  UNL     1      26.445   7.183  49.233  1.00  0.00     0.007 A 
HETATM   30  C4  UNL     1      27.631   7.173  48.531  1.00  0.00     0.001 A 
HETATM   31  C5  UNL     1      28.220   5.957  48.251  1.00  0.00     0.001 A 
HETATM   32  C6  UNL     1      27.658   4.761  48.649  1.00  0.00     0.017 A 
ENDBRANCH  23  26
ENDBRANCH   1  22
TORSDOF 5
ENDMDL
MODEL 4
REMARK VINA RESULT:      -9.4      5.395      7.458
REMARK  5 active torsions:
REMARK  status: ('A' for Active; 'I' for Inactive)
REMARK    1  A    between atoms: C7_7  and  C8_8 
REMARK       I    between atoms: C8_8  and  N1_10 
REMARK    2  A    between atoms: N1_10  and  C9_11 
REMARK    3  A    between atoms: C13_15  and  N2_16 
REMARK    4  A    between atoms: C16_20  and  C17_21 
REMARK    5  A    between atoms: C21_26  and  O2_27 
ROOT
HETATM    1  C9  UNL     1      23.697   0.120  53.407  1.00  0.00     0.037 A 
HETATM    2  C10 UNL     1      23.202  -0.767  54.375  1.00  0.00     0.029 A 
HETATM    3  C11 UNL     1      21.834  -0.745  54.686  1.00  0.00     0.005 A 
HETATM    4  C12 UNL     1      21.064   0.169  53.997  1.00  0.00     0.032 A 
HETATM    5  C13 UNL     1      21.536   1.045  53.047  1.00  0.00     0.059 A 
HETATM    6  C22 UNL     1      22.882   1.003  52.760  1.00  0.00     0.061 A 
ENDROOT
BRANCH   5   7
HETATM    7  N2  UNL     1      20.668   1.965  52.402  1.00  0.00    -0.250 N 
HETATM    8  C14 UNL     1      19.273   1.643  52.206  1.00  0.00     0.232 A 
HETATM    9  N3  UNL     1      18.528   2.509  51.608  1.00  0.00    -0.252 NA
HETATM   10  C15 UNL     1      19.031   3.751  51.142  1.00  0.00     0.149 A 
HETATM   11  C16 UNL     1      20.280   4.157  51.262  1.00  0.00     0.080 A 
HETATM   12  N5  UNL     1      21.090   3.203  51.919  1.00  0.00    -0.291 N 
HETATM   13  H18 UNL     1      22.080   3.390  52.075  1.00  0.00     0.187 HD
BRANCH  11  14
HETATM   14  C17 UNL     1      20.689   5.441  50.752  1.00  0.00     0.046 A 
HETATM   15  C18 UNL     1      20.010   6.038  49.718  1.00  0.00     0.020 A 
HETATM   16  C19 UNL     1      20.358   7.259  49.184  1.00  0.00     0.020 A 
HETATM   17  C20 UNL     1      21.446   7.976  49.677  1.00  0.00     0.119 A 
HETATM   18  N4  UNL     1      22.107   7.399  50.682  1.00  0.00    -0.236 NA
HETATM   19  C21 UNL     1      21.747   6.214  51.179  1.00  0.00     0.174 A 
BRANCH  19  20
HETATM   20  O2  UNL     1      22.535   5.760  52.214  1.00  0.00    -0.344 OA
HETATM   21  H17 UNL     1      22.559   6.137  53.136  1.00  0.00     0.219 HD
ENDBRANCH  19  20
ENDBRANCH  11  14
ENDBRANCH   5   7
BRANCH   1  22
HETATM   22  N1  UNL     1      25.104  -0.037  53.228  1.00  0.00    -0.323 N 
HETATM   23  C8  UNL     1      26.226   0.352  52.434  1.00  0.00     0.256 C 
HETATM   24  O1  UNL     1      26.136   1.143  51.460  1.00  0.00    -0.267 OA
HETATM   25  H8  UNL     1      25.234  -0.705  54.050  1.00  0.00     0.169 HD
BRANCH  23  26
HETATM   26  C7  UNL     1      27.497  -0.268  52.869  1.00  0.00     0.038 A 
HETATM   27  C2  UNL     1      28.370   0.701  53.367  1.00  0.00    -0.046 A 
HETATM   28  C1  UNL     1      28.081   2.154  53.468  1.00  0.00     0.049 C 
HETATM   29  C3  UNL     1      29.622   0.284  53.812  1.00  0.00     0.007 A 
HETATM   30  C4  UNL     1      29.998  -1.041  53.767  1.00  0.00     0.001 A 
HETATM   31  C5  UNL     1      29.101  -1.963  53.267  1.00  0.00     0.001 A 
HETATM   32  C6  UNL     1      27.849  -1.597  52.815  1.00  0.00     0.017 A 
ENDBRANCH  23  26
ENDBRANCH   1  22
TORSDOF 5
ENDMDL
MODEL 5
REMARK VINA RESULT:      -9.2      1.382      1.869
REMARK  5 active torsions:
REMARK  status: ('A' for Active; 'I' for Inactive)
REMARK    1  A    between atoms: C7_7  and  C8_8 
REMARK       I    between atoms: C8_8  and  N1_10 
REMARK    2  A    between atoms: N1_10  and  C9_11 
REMARK    3  A    between atoms: C13_15  and  N2_16 
REMARK    4  A    between atoms: C16_20  and  C17_21 
REMARK    5  A    between atoms: C21_26  and  O2_27 
ROOT
HETATM    1  C9  UNL     1      26.097   2.770  50.946  1.00  0.00     0.037 A 
HETATM    2  C10 UNL     1      24.740   2.423  50.864  1.00  0.00     0.029 A 
HETATM    3  C11 UNL     1      23.876   3.220  50.098  1.00  0.00     0.005 A 
HETATM    4  C12 UNL     1      24.444   4.310  49.471  1.00  0.00     0.032 A 
HETATM    5  C13 UNL     1      25.771   4.662  49.543  1.00  0.00     0.059 A 
HETATM    6  C22 UNL     1      26.599   3.863  50.301  1.00  0.00     0.061 A 
ENDROOT
BRANCH   5   7
HETATM    7  N2  UNL     1      26.262   5.815  48.875  1.00  0.00    -0.250 N 
HETATM    8  C14 UNL     1      25.373   6.647  48.098  1.00  0.00     0.232 A 
HETATM    9  N3  UNL     1      25.869   7.678  47.504  1.00  0.00    -0.252 NA
HETATM   10  C15 UNL     1      27.244   8.015  47.590  1.00  0.00     0.149 A 
HETATM   11  C16 UNL     1      28.151   7.337  48.266  1.00  0.00     0.080 A 
HETATM   12  N5  UNL     1      27.599   6.209  48.914  1.00  0.00    -0.291 N 
HETATM   13  H18 UNL     1      28.193   5.596  49.471  1.00  0.00     0.187 HD
BRANCH  11  14
HETATM   14  C17 UNL     1      29.526   7.767  48.289  1.00  0.00     0.046 A 
HETATM   15  C18 UNL     1      30.444   7.239  47.414  1.00  0.00     0.020 A 
HETATM   16  C19 UNL     1      31.772   7.604  47.393  1.00  0.00     0.020 A 
HETATM   17  C20 UNL     1      32.271   8.554  48.281  1.00  0.00     0.119 A 
HETATM   18  N4  UNL     1      31.381   9.070  49.132  1.00  0.00    -0.236 NA
HETATM   19  C21 UNL     1      30.100   8.695  49.129  1.00  0.00     0.174 A 
BRANCH  19  20
HETATM   20  O2  UNL     1      29.315   9.324  50.072  1.00  0.00    -0.344 OA
HETATM   21  H17 UNL     1      28.715  10.102  49.906  1.00  0.00     0.219 HD
ENDBRANCH  19  20
ENDBRANCH  11  14
ENDBRANCH   5   7
BRANCH   1  22
HETATM   22  N1  UNL     1      26.819   1.855  51.770  1.00  0.00    -0.323 N 
HETATM   23  C8  UNL     1      26.916   1.301  53.083  1.00  0.00     0.256 C 
HETATM   24  O1  UNL     1      26.146   1.624  54.023  1.00  0.00    -0.267 OA
HETATM   25  H8  UNL     1      27.491   1.541  51.003  1.00  0.00     0.169 HD
BRANCH  23  26
HETATM   26  C7  UNL     1      28.012   0.316  53.225  1.00  0.00     0.038 A 
HETATM   27  C2  UNL     1      27.534  -0.981  53.026  1.00  0.00    -0.046 A 
HETATM   28  C1  UNL     1      26.130  -1.344  52.703  1.00  0.00     0.049 C 
HETATM   29  C3  UNL     1      28.439  -2.034  53.135  1.00  0.00     0.007 A 
HETATM   30  C4  UNL     1      29.767  -1.814  53.430  1.00  0.00     0.001 A 
HETATM   31  C5  UNL     1      30.193  -0.514  53.617  1.00  0.00     0.001 A 
HETATM   32  C6  UNL     1      29.333   0.560  53.520  1.00  0.00     0.017 A 
ENDBRANCH  23  26
ENDBRANCH   1  22
TORSDOF 5
ENDMDL
MODEL 6
REMARK VINA RESULT:      -9.2      1.713      8.266
REMARK  5 active torsions:
REMARK  status: ('A' for Active; 'I' for Inactive)
REMARK    1  A    between atoms: C7_7  and  C8_8 
REMARK       I    between atoms: C8_8  and  N1_10 
REMARK    2  A    between atoms: N1_10  and  C9_11 
REMARK    3  A    between atoms: C13_15  and  N2_16 
REMARK    4  A    between atoms: C16_20  and  C17_21 
REMARK    5  A    between atoms: C21_26  and  O2_27 
ROOT
HETATM    1  C9  UNL     1      27.895   6.312  48.199  1.00  0.00     0.037 A 
HETATM    2  C10 UNL     1      26.952   7.250  47.752  1.00  0.00     0.029 A 
HETATM    3  C11 UNL     1      25.600   7.072  48.083  1.00  0.00     0.005 A 
HETATM    4  C12 UNL     1      25.298   5.960  48.843  1.00  0.00     0.032 A 
HETATM    5  C13 UNL     1      26.211   5.033  49.288  1.00  0.00     0.059 A 
HETATM    6  C22 UNL     1      27.531   5.231  48.949  1.00  0.00     0.061 A 
ENDROOT
BRANCH   5   7
HETATM    7  N2  UNL     1      25.802   3.908  50.052  1.00  0.00    -0.250 N 
HETATM    8  C14 UNL     1      24.418   3.495  50.066  1.00  0.00     0.232 A 
HETATM    9  N3  UNL     1      24.096   2.472  50.781  1.00  0.00    -0.252 NA
HETATM   10  C15 UNL     1      25.048   1.751  51.546  1.00  0.00     0.149 A 
HETATM   11  C16 UNL     1      26.335   2.030  51.614  1.00  0.00     0.080 A 
HETATM   12  N5  UNL     1      26.680   3.152  50.827  1.00  0.00    -0.291 N 
HETATM   13  H18 UNL     1      27.646   3.477  50.791  1.00  0.00     0.187 HD
BRANCH  11  14
HETATM   14  C17 UNL     1      27.220   1.230  52.424  1.00  0.00     0.046 A 
HETATM   15  C18 UNL     1      27.033  -0.125  52.544  1.00  0.00     0.020 A 
HETATM   16  C19 UNL     1      27.840  -0.939  53.309  1.00  0.00     0.020 A 
HETATM   17  C20 UNL     1      28.918  -0.419  54.021  1.00  0.00     0.119 A 
HETATM   18  N4  UNL     1      29.102   0.898  53.906  1.00  0.00    -0.236 NA
HETATM   19  C21 UNL     1      28.303   1.662  53.158  1.00  0.00     0.174 A 
BRANCH  19  20
HETATM   20  O2  UNL     1      28.631   3.000  53.147  1.00  0.00    -0.344 OA
HETATM   21  H17 UNL     1      28.010   3.752  52.943  1.00  0.00     0.219 HD
ENDBRANCH  19  20
ENDBRANCH  11  14
ENDBRANCH   5   7
BRANCH   1  22
HETATM   22  N1  UNL     1      29.211   6.649  47.762  1.00  0.00    -0.323 N 
HETATM   23  C8  UNL     1      30.580   6.239  47.773  1.00  0.00     0.256 C 
HETATM   24  O1  UNL     1      30.978   5.190  48.342  1.00  0.00    -0.267 OA
HETATM   25  H8  UNL     1      28.922   7.542  47.257  1.00  0.00     0.169 HD
BRANCH  23  26
HETATM   26  C7  UNL     1      31.476   7.170  47.051  1.00  0.00     0.038 A 
HETATM   27  C2  UNL     1      32.034   8.096  47.933  1.00  0.00    -0.046 A 
HETATM   28  C1  UNL     1      31.789   8.152  49.397  1.00  0.00     0.049 C 
HETATM   29  C3  UNL     1      32.898   9.056  47.411  1.00  0.00     0.007 A 
HETATM   30  C4  UNL     1      33.200   9.098  46.067  1.00  0.00     0.001 A 
HETATM   31  C5  UNL     1      32.624   8.160  45.233  1.00  0.00     0.001 A 
HETATM   32  C6  UNL     1      31.762   7.191  45.705  1.00  0.00     0.017 A 
ENDBRANCH  23  26
ENDBRANCH   1  22
TORSDOF 5
ENDMDL
MODEL 7
REMARK VINA RESULT:      -9.2      6.144     10.747
REMARK  5 active torsions:
REMARK  status: ('A' for Active; 'I' for Inactive)
REMARK    1  A    between atoms: C7_7  and  C8_8 
REMARK       I    between atoms: C8_8  and  N1_10 
REMARK    2  A    between atoms: N1_10  and  C9_11 
REMARK    3  A    between atoms: C13_15  and  N2_16 
REMARK    4  A    between atoms: C16_20  and  C17_21 
REMARK    5  A    between atoms: C21_26  and  O2_27 
ROOT
HETATM    1  C9  UNL     1      23.516  -0.248  53.450  1.00  0.00     0.037 A 
HETATM    2  C10 UNL     1      23.198  -0.920  54.639  1.00  0.00     0.029 A 
HETATM    3  C11 UNL     1      21.854  -1.197  54.930  1.00  0.00     0.005 A 
HETATM    4  C12 UNL     1      20.927  -0.776  53.998  1.00  0.00     0.032 A 
HETATM    5  C13 UNL     1      21.224  -0.116  52.829  1.00  0.00     0.059 A 
HETATM    6  C22 UNL     1      22.551   0.144  52.567  1.00  0.00     0.061 A 
ENDROOT
BRANCH   5   7
HETATM    7  N2  UNL     1      20.198   0.295  51.937  1.00  0.00    -0.250 N 
HETATM    8  C14 UNL     1      20.521   0.722  50.595  1.00  0.00     0.232 A 
HETATM    9  N3  UNL     1      19.554   1.092  49.827  1.00  0.00    -0.252 NA
HETATM   10  C15 UNL     1      18.202   1.093  50.255  1.00  0.00     0.149 A 
HETATM   11  C16 UNL     1      17.783   0.726  51.450  1.00  0.00     0.080 A 
HETATM   12  N5  UNL     1      18.849   0.321  52.286  1.00  0.00    -0.291 N 
HETATM   13  H18 UNL     1      18.663   0.014  53.241  1.00  0.00     0.187 HD
BRANCH  11  14
HETATM   14  C17 UNL     1      16.382   0.765  51.784  1.00  0.00     0.046 A 
HETATM   15  C18 UNL     1      15.531   1.640  51.154  1.00  0.00     0.020 A 
HETATM   16  C19 UNL     1      14.185   1.728  51.435  1.00  0.00     0.020 A 
HETATM   17  C20 UNL     1      13.597   0.913  52.400  1.00  0.00     0.119 A 
HETATM   18  N4  UNL     1      14.421   0.062  53.014  1.00  0.00    -0.236 NA
HETATM   19  C21 UNL     1      15.722  -0.001  52.720  1.00  0.00     0.174 A 
BRANCH  19  20
HETATM   20  O2  UNL     1      16.431  -0.933  53.445  1.00  0.00    -0.344 OA
HETATM   21  H17 UNL     1      16.046  -1.723  53.915  1.00  0.00     0.219 HD
ENDBRANCH  19  20
ENDBRANCH  11  14
ENDBRANCH   5   7
BRANCH   1  22
HETATM   22  N1  UNL     1      24.923  -0.046  53.326  1.00  0.00    -0.323 N 
HETATM   23  C8  UNL     1      25.943   0.590  52.553  1.00  0.00     0.256 C 
HETATM   24  O1  UNL     1      25.698   1.296  51.542  1.00  0.00    -0.267 OA
HETATM   25  H8  UNL     1      25.182  -0.627  54.182  1.00  0.00     0.169 HD
BRANCH  23  26
HETATM   26  C7  UNL     1      27.310   0.332  53.060  1.00  0.00     0.038 A 
HETATM   27  C2  UNL     1      27.660  -1.005  52.868  1.00  0.00    -0.046 A 
HETATM   28  C1  UNL     1      26.804  -2.040  52.234  1.00  0.00     0.049 C 
HETATM   29  C3  UNL     1      28.917  -1.419  53.302  1.00  0.00     0.007 A 
HETATM   30  C4  UNL     1      29.796  -0.544  53.903  1.00  0.00     0.001 A 
HETATM   31  C5  UNL     1      29.405   0.770  54.070  1.00  0.00     0.001 A 
HETATM   32  C6  UNL     1      28.170   1.225  53.657  1.00  0.00     0.017 A 
ENDBRANCH  23  26
ENDBRANCH   1  22
TORSDOF 5
ENDMDL
MODEL 8
REMARK VINA RESULT:      -9.0      1.998      8.440
REMARK  5 active torsions:
REMARK  status: ('A' for Active; 'I' for Inactive)
REMARK    1  A    between atoms: C7_7  and  C8_8 
REMARK       I    between atoms: C8_8  and  N1_10 
REMARK    2  A    between atoms: N1_10  and  C9_11 
REMARK    3  A    between atoms: C13_15  and  N2_16 
REMARK    4  A    between atoms: C16_20  and  C17_21 
REMARK    5  A    between atoms: C21_26  and  O2_27 
ROOT
HETATM    1  C9  UNL     1      26.480   6.133  48.938  1.00  0.00     0.037 A 
HETATM    2  C10 UNL     1      25.360   6.661  48.279  1.00  0.00     0.029 A 
HETATM    3  C11 UNL     1      24.120   6.018  48.415  1.00  0.00     0.005 A 
HETATM    4  C12 UNL     1      24.100   4.889  49.207  1.00  0.00     0.032 A 
HETATM    5  C13 UNL     1      25.190   4.360  49.859  1.00  0.00     0.059 A 
HETATM    6  C22 UNL     1      26.395   5.010  49.709  1.00  0.00     0.061 A 
ENDROOT
BRANCH   5   7
HETATM    7  N2  UNL     1      25.076   3.180  50.641  1.00  0.00    -0.250 N 
HETATM    8  C14 UNL     1      23.804   2.507  50.771  1.00  0.00     0.232 A 
HETATM    9  N3  UNL     1      23.751   1.444  51.498  1.00  0.00    -0.252 NA
HETATM   10  C15 UNL     1      24.889   0.924  52.166  1.00  0.00     0.149 A 
HETATM   11  C16 UNL     1      26.099   1.446  52.124  1.00  0.00     0.080 A 
HETATM   12  N5  UNL     1      26.149   2.611  51.325  1.00  0.00    -0.291 N 
HETATM   13  H18 UNL     1      27.027   3.117  51.209  1.00  0.00     0.187 HD
BRANCH  11  14
HETATM   14  C17 UNL     1      27.190   0.837  52.842  1.00  0.00     0.046 A 
HETATM   15  C18 UNL     1      27.483  -0.495  52.680  1.00  0.00     0.020 A 
HETATM   16  C19 UNL     1      28.507  -1.135  53.344  1.00  0.00     0.020 A 
HETATM   17  C20 UNL     1      29.323  -0.448  54.239  1.00  0.00     0.119 A 
HETATM   18  N4  UNL     1      29.041   0.846  54.398  1.00  0.00    -0.236 NA
HETATM   19  C21 UNL     1      28.042   1.439  53.742  1.00  0.00     0.174 A 
BRANCH  19  20
HETATM   20  O2  UNL     1      27.885   2.779  54.021  1.00  0.00    -0.344 OA
HETATM   21  H17 UNL     1      27.534   3.469  53.393  1.00  0.00     0.219 HD
ENDBRANCH  19  20
ENDBRANCH  11  14
ENDBRANCH   5   7
BRANCH   1  22
HETATM   22  N1  UNL     1      27.649   6.909  48.680  1.00  0.00    -0.323 N 
HETATM   23  C8  UNL     1      29.011   6.853  48.251  1.00  0.00     0.256 C 
HETATM   24  O1  UNL     1      29.584   5.781  47.926  1.00  0.00    -0.267 OA
HETATM   25  H8  UNL     1      27.205   7.845  48.936  1.00  0.00     0.169 HD
BRANCH  23  26
HETATM   26  C7  UNL     1      29.674   8.175  48.227  1.00  0.00     0.038 A 
HETATM   27  C2  UNL     1      29.571   8.753  46.961  1.00  0.00    -0.046 A 
HETATM   28  C1  UNL     1      28.884   8.152  45.790  1.00  0.00     0.049 C 
HETATM   29  C3  UNL     1      30.156  10.003  46.765  1.00  0.00     0.007 A 
HETATM   30  C4  UNL     1      30.818  10.655  47.782  1.00  0.00     0.001 A 
HETATM   31  C5  UNL     1      30.894  10.044  49.017  1.00  0.00     0.001 A 
HETATM   32  C6  UNL     1      30.330   8.808  49.259  1.00  0.00     0.017 A 
ENDBRANCH  23  26
ENDBRANCH   1  22
TORSDOF 5
ENDMDL
MODEL 9
REMARK VINA RESULT:      -8.8      5.449      9.498
REMARK  5 active torsions:
REMARK  status: ('A' for Active; 'I' for Inactive)
REMARK    1  A    between atoms: C7_7  and  C8_8 
REMARK       I    between atoms: C8_8  and  N1_10 
REMARK    2  A    between atoms: N1_10  and  C9_11 
REMARK    3  A    between atoms: C13_15  and  N2_16 
REMARK    4  A    between atoms: C16_20  and  C17_21 
REMARK    5  A    between atoms: C21_26  and  O2_27 
ROOT
HETATM    1  C9  UNL     1      20.158   0.430  52.733  1.00  0.00     0.037 A 
HETATM    2  C10 UNL     1      20.008  -0.704  53.545  1.00  0.00     0.029 A 
HETATM    3  C11 UNL     1      21.153  -1.368  54.011  1.00  0.00     0.005 A 
HETATM    4  C12 UNL     1      22.367  -0.840  53.623  1.00  0.00     0.032 A 
HETATM    5  C13 UNL     1      22.529   0.270  52.828  1.00  0.00     0.059 A 
HETATM    6  C22 UNL     1      21.390   0.905  52.385  1.00  0.00     0.061 A 
ENDROOT
BRANCH   5   7
HETATM    7  N2  UNL     1      23.823   0.732  52.467  1.00  0.00    -0.250 N 
HETATM    8  C14 UNL     1      23.977   1.892  51.620  1.00  0.00     0.232 A 
HETATM    9  N3  UNL     1      25.173   2.267  51.314  1.00  0.00    -0.252 NA
HETATM   10  C15 UNL     1      26.325   1.582  51.779  1.00  0.00     0.149 A 
HETATM   11  C16 UNL     1      26.313   0.515  52.554  1.00  0.00     0.080 A 
HETATM   12  N5  UNL     1      24.999   0.111  52.885  1.00  0.00    -0.291 N 
HETATM   13  H18 UNL     1      24.847  -0.703  53.479  1.00  0.00     0.187 HD
BRANCH  11  14
HETATM   14  C17 UNL     1      27.545  -0.106  52.971  1.00  0.00     0.046 A 
HETATM   15  C18 UNL     1      28.619   0.653  53.366  1.00  0.00     0.020 A 
HETATM   16  C19 UNL     1      29.823   0.117  53.766  1.00  0.00     0.020 A 
HETATM   17  C20 UNL     1      30.023  -1.261  53.793  1.00  0.00     0.119 A 
HETATM   18  N4  UNL     1      28.981  -2.001  53.410  1.00  0.00    -0.236 NA
HETATM   19  C21 UNL     1      27.827  -1.454  53.026  1.00  0.00     0.174 A 
BRANCH  19  20
HETATM   20  O2  UNL     1      26.854  -2.359  52.662  1.00  0.00    -0.344 OA
HETATM   21  H17 UNL     1      26.625  -3.197  53.149  1.00  0.00     0.219 HD
ENDBRANCH  19  20
ENDBRANCH  11  14
ENDBRANCH   5   7
BRANCH   1  22
HETATM   22  N1  UNL     1      18.893   0.967  52.350  1.00  0.00    -0.323 N 
HETATM   23  C8  UNL     1      17.978   1.125  51.264  1.00  0.00     0.256 C 
HETATM   24  O1  UNL     1      18.201   0.681  50.108  1.00  0.00    -0.267 OA
HETATM   25  H8  UNL     1      18.654   1.354  53.315  1.00  0.00     0.169 HD
BRANCH  23  26
HETATM   26  C7  UNL     1      16.749   1.862  51.634  1.00  0.00     0.038 A 
HETATM   27  C2  UNL     1      16.975   3.239  51.603  1.00  0.00    -0.046 A 
HETATM   28  C1  UNL     1      18.256   3.897  51.238  1.00  0.00     0.049 C 
HETATM   29  C3  UNL     1      15.918   4.082  51.938  1.00  0.00     0.007 A 
HETATM   30  C4  UNL     1      14.683   3.582  52.291  1.00  0.00     0.001 A 
HETATM   31  C5  UNL     1      14.507   2.212  52.307  1.00  0.00     0.001 A 
HETATM   32  C6  UNL     1      15.525   1.339  51.983  1.00  0.00     0.017 A 
ENDBRANCH  23  26
ENDBRANCH   1  22
TORSDOF 5
ENDMDL
