MODEL 1
REMARK VINA RESULT:      -8.1      0.000      0.000
REMARK  4 active torsions:
REMARK  status: ('A' for Active; 'I' for Inactive)
REMARK    1  A    between atoms: C1_2  and  N1_3 
REMARK    2  A    between atoms: N1_3  and  C2_4 
REMARK    3  A    between atoms: C5_7  and  N2_8 
REMARK    4  A    between atoms: N2_8  and  C6_9 
ROOT
HETATM    1  C2  UNL     1      27.188  -0.465  53.323  1.00  0.00     0.129 C 
HETATM    2  C3  UNL     1      27.208   0.531  52.373  1.00  0.00     0.054 C 
HETATM    3  C4  UNL     1      26.661   1.759  52.073  1.00  0.00     0.054 C 
HETATM    4  C5  UNL     1      25.465   2.268  51.621  1.00  0.00     0.129 C 
HETATM    5  N3  UNL     1      24.676   2.126  52.696  1.00  0.00    -0.225 NA
HETATM    6  C12 UNL     1      23.638   1.249  52.731  1.00  0.00     0.234 C 
HETATM    7  N4  UNL     1      23.339  -0.044  53.058  1.00  0.00    -0.253 NA
HETATM    8  C13 UNL     1      24.060  -0.629  54.057  1.00  0.00     0.137 C 
HETATM    9  C14 UNL     1      25.305  -0.541  54.681  1.00  0.00     0.138 C 
HETATM   10  N5  UNL     1      26.043  -1.086  53.668  1.00  0.00    -0.242 NA
ENDROOT
BRANCH   4  11
HETATM   11  N2  UNL     1      25.045   2.813  50.411  1.00  0.00    -0.341 N 
HETATM   12  H5  UNL     1      24.257   2.310  49.950  1.00  0.00     0.167 HD
BRANCH  11  13
HETATM   13  C6  UNL     1      25.557   3.950  49.748  1.00  0.00     0.035 A 
HETATM   14  C7  UNL     1      24.737   5.050  49.464  1.00  0.00     0.032 A 
HETATM   15  C8  UNL     1      25.199   6.171  48.822  1.00  0.00     0.046 A 
HETATM   16  C9  UNL     1      26.497   6.264  48.428  1.00  0.00     0.138 A 
HETATM   17  F1  UNL     1      26.936   7.377  47.796  1.00  0.00    -0.204 F 
HETATM   18  C10 UNL     1      27.345   5.217  48.681  1.00  0.00     0.074 A 
HETATM   19 CL1  UNL     1      29.033   5.325  48.173  1.00  0.00    -0.081 Cl
HETATM   20  C11 UNL     1      26.854   4.109  49.325  1.00  0.00     0.056 A 
ENDBRANCH  11  13
ENDBRANCH   4  11
BRANCH   1  21
HETATM   21  N1  UNL     1      28.374  -0.836  53.941  1.00  0.00    -0.319 N 
HETATM   22  H2  UNL     1      28.688  -0.410  54.866  1.00  0.00     0.169 HD
BRANCH  21  23
HETATM   23  C1  UNL     1      29.290  -1.790  53.449  1.00  0.00     0.354 C 
HETATM   24  O1  UNL     1      29.008  -2.994  53.452  1.00  0.00    -0.283 OA
ENDBRANCH  21  23
ENDBRANCH   1  21
TORSDOF 4
ENDMDL
MODEL 2
REMARK VINA RESULT:      -8.0      1.128      1.469
REMARK  4 active torsions:
REMARK  status: ('A' for Active; 'I' for Inactive)
REMARK    1  A    between atoms: C1_2  and  N1_3 
REMARK    2  A    between atoms: N1_3  and  C2_4 
REMARK    3  A    between atoms: C5_7  and  N2_8 
REMARK    4  A    between atoms: N2_8  and  C6_9 
ROOT
HETATM    1  C2  UNL     1      27.268  -0.377  53.356  1.00  0.00     0.129 C 
HETATM    2  C3  UNL     1      27.294   0.687  52.482  1.00  0.00     0.054 C 
HETATM    3  C4  UNL     1      26.752   1.936  52.274  1.00  0.00     0.054 C 
HETATM    4  C5  UNL     1      25.558   2.481  51.859  1.00  0.00     0.129 C 
HETATM    5  N3  UNL     1      24.766   2.262  52.918  1.00  0.00    -0.225 NA
HETATM    6  C12 UNL     1      23.726   1.388  52.885  1.00  0.00     0.234 C 
HETATM    7  N4  UNL     1      23.422   0.075  53.115  1.00  0.00    -0.253 NA
HETATM    8  C13 UNL     1      24.138  -0.584  54.069  1.00  0.00     0.137 C 
HETATM    9  C14 UNL     1      25.382  -0.547  54.700  1.00  0.00     0.138 C 
HETATM   10  N5  UNL     1      26.121  -1.017  53.651  1.00  0.00    -0.242 NA
ENDROOT
BRANCH   4  11
HETATM   11  N2  UNL     1      25.142   3.116  50.691  1.00  0.00    -0.341 N 
HETATM   12  H5  UNL     1      24.273   2.731  50.264  1.00  0.00     0.167 HD
BRANCH  11  13
HETATM   13  C6  UNL     1      25.756   4.203  50.030  1.00  0.00     0.035 A 
HETATM   14  C7  UNL     1      26.886   4.013  49.224  1.00  0.00     0.032 A 
HETATM   15  C8  UNL     1      27.508   5.045  48.568  1.00  0.00     0.046 A 
HETATM   16  C9  UNL     1      27.045   6.320  48.674  1.00  0.00     0.138 A 
HETATM   17  F1  UNL     1      27.671   7.326  48.021  1.00  0.00    -0.204 F 
HETATM   18  C10 UNL     1      25.942   6.563  49.451  1.00  0.00     0.074 A 
HETATM   19 CL1  UNL     1      25.331   8.214  49.598  1.00  0.00    -0.081 Cl
HETATM   20  C11 UNL     1      25.341   5.511  50.095  1.00  0.00     0.056 A 
ENDBRANCH  11  13
ENDBRANCH   4  11
BRANCH   1  21
HETATM   21  N1  UNL     1      28.452  -0.796  53.947  1.00  0.00    -0.319 N 
HETATM   22  H2  UNL     1      28.798  -0.392  54.871  1.00  0.00     0.169 HD
BRANCH  21  23
HETATM   23  C1  UNL     1      29.324  -1.776  53.428  1.00  0.00     0.354 C 
HETATM   24  O1  UNL     1      28.982  -2.963  53.381  1.00  0.00    -0.283 OA
ENDBRANCH  21  23
ENDBRANCH   1  21
TORSDOF 4
ENDMDL
MODEL 3
REMARK VINA RESULT:      -7.8      4.254      6.267
REMARK  4 active torsions:
REMARK  status: ('A' for Active; 'I' for Inactive)
REMARK    1  A    between atoms: C1_2  and  N1_3 
REMARK    2  A    between atoms: N1_3  and  C2_4 
REMARK    3  A    between atoms: C5_7  and  N2_8 
REMARK    4  A    between atoms: N2_8  and  C6_9 
ROOT
HETATM    1  C2  UNL     1      22.019   0.412  52.439  1.00  0.00     0.129 C 
HETATM    2  C3  UNL     1      23.249   0.704  52.983  1.00  0.00     0.054 C 
HETATM    3  C4  UNL     1      24.124   1.747  53.194  1.00  0.00     0.054 C 
HETATM    4  C5  UNL     1      25.006   2.514  52.465  1.00  0.00     0.129 C 
HETATM    5  N3  UNL     1      24.178   3.290  51.752  1.00  0.00    -0.225 NA
HETATM    6  C12 UNL     1      24.047   3.175  50.404  1.00  0.00     0.234 C 
HETATM    7  N4  UNL     1      23.320   2.518  49.451  1.00  0.00    -0.253 NA
HETATM    8  C13 UNL     1      22.034   2.182  49.753  1.00  0.00     0.137 C 
HETATM    9  C14 UNL     1      21.222   1.910  50.854  1.00  0.00     0.138 C 
HETATM   10  N5  UNL     1      21.738   0.680  51.149  1.00  0.00    -0.242 NA
ENDROOT
BRANCH   4  11
HETATM   11  N2  UNL     1      26.394   2.574  52.387  1.00  0.00    -0.341 N 
HETATM   12  H5  UNL     1      26.775   3.439  51.949  1.00  0.00     0.167 HD
BRANCH  11  13
HETATM   13  C6  UNL     1      27.329   1.611  52.829  1.00  0.00     0.035 A 
HETATM   14  C7  UNL     1      28.488   1.993  53.517  1.00  0.00     0.032 A 
HETATM   15  C8  UNL     1      29.419   1.087  53.960  1.00  0.00     0.046 A 
HETATM   16  C9  UNL     1      29.251  -0.246  53.746  1.00  0.00     0.138 A 
HETATM   17  F1  UNL     1      30.178  -1.126  54.189  1.00  0.00    -0.204 F 
HETATM   18  C10 UNL     1      28.134  -0.676  53.077  1.00  0.00     0.074 A 
HETATM   19 CL1  UNL     1      27.905  -2.404  52.793  1.00  0.00    -0.081 Cl
HETATM   20  C11 UNL     1      27.221   0.254  52.647  1.00  0.00     0.056 A 
ENDBRANCH  11  13
ENDBRANCH   4  11
BRANCH   1  21
HETATM   21  N1  UNL     1      21.047  -0.171  53.239  1.00  0.00    -0.319 N 
HETATM   22  H2  UNL     1      20.083  -0.430  52.863  1.00  0.00     0.169 HD
BRANCH  21  23
HETATM   23  C1  UNL     1      21.195  -0.491  54.606  1.00  0.00     0.354 C 
HETATM   24  O1  UNL     1      21.409  -1.656  54.961  1.00  0.00    -0.283 OA
ENDBRANCH  21  23
ENDBRANCH   1  21
TORSDOF 4
ENDMDL
MODEL 4
REMARK VINA RESULT:      -7.4      1.868      2.325
REMARK  4 active torsions:
REMARK  status: ('A' for Active; 'I' for Inactive)
REMARK    1  A    between atoms: C1_2  and  N1_3 
REMARK    2  A    between atoms: N1_3  and  C2_4 
REMARK    3  A    between atoms: C5_7  and  N2_8 
REMARK    4  A    between atoms: N2_8  and  C6_9 
ROOT
HETATM    1  C2  UNL     1      25.063  -0.018  53.632  1.00  0.00     0.129 C 
HETATM    2  C3  UNL     1      25.293   1.187  53.006  1.00  0.00     0.054 C 
HETATM    3  C4  UNL     1      24.715   2.413  52.762  1.00  0.00     0.054 C 
HETATM    4  C5  UNL     1      23.729   2.944  51.961  1.00  0.00     0.129 C 
HETATM    5  N3  UNL     1      22.615   2.481  52.545  1.00  0.00    -0.225 NA
HETATM    6  C12 UNL     1      21.808   1.559  51.956  1.00  0.00     0.234 C 
HETATM    7  N4  UNL     1      21.621   0.209  51.852  1.00  0.00    -0.253 NA
HETATM    8  C13 UNL     1      21.973  -0.563  52.919  1.00  0.00     0.137 C 
HETATM    9  C14 UNL     1      22.837  -0.558  54.015  1.00  0.00     0.138 C 
HETATM   10  N5  UNL     1      23.994  -0.778  53.322  1.00  0.00    -0.242 NA
ENDROOT
BRANCH   4  11
HETATM   11  N2  UNL     1      23.739   3.751  50.827  1.00  0.00    -0.341 N 
HETATM   12  H5  UNL     1      22.799   3.988  50.445  1.00  0.00     0.167 HD
BRANCH  11  13
HETATM   13  C6  UNL     1      24.861   4.276  50.147  1.00  0.00     0.035 A 
HETATM   14  C7  UNL     1      25.891   3.438  49.701  1.00  0.00     0.032 A 
HETATM   15  C8  UNL     1      26.996   3.912  49.039  1.00  0.00     0.046 A 
HETATM   16  C9  UNL     1      27.138   5.240  48.781  1.00  0.00     0.138 A 
HETATM   17  F1  UNL     1      28.233   5.691  48.127  1.00  0.00    -0.204 F 
HETATM   18  C10 UNL     1      26.159   6.106  49.195  1.00  0.00     0.074 A 
HETATM   19 CL1  UNL     1      26.332   7.833  48.868  1.00  0.00    -0.081 Cl
HETATM   20  C11 UNL     1      25.066   5.602  49.855  1.00  0.00     0.056 A 
ENDBRANCH  11  13
ENDBRANCH   4  11
BRANCH   1  21
HETATM   21  N1  UNL     1      25.951  -0.457  54.603  1.00  0.00    -0.319 N 
HETATM   22  H2  UNL     1      25.800  -1.365  55.140  1.00  0.00     0.169 HD
BRANCH  21  23
HETATM   23  C1  UNL     1      27.129   0.213  54.998  1.00  0.00     0.354 C 
HETATM   24  O1  UNL     1      28.213  -0.381  55.020  1.00  0.00    -0.283 OA
ENDBRANCH  21  23
ENDBRANCH   1  21
TORSDOF 4
ENDMDL
MODEL 5
REMARK VINA RESULT:      -7.4      5.187      7.079
REMARK  4 active torsions:
REMARK  status: ('A' for Active; 'I' for Inactive)
REMARK    1  A    between atoms: C1_2  and  N1_3 
REMARK    2  A    between atoms: N1_3  and  C2_4 
REMARK    3  A    between atoms: C5_7  and  N2_8 
REMARK    4  A    between atoms: N2_8  and  C6_9 
ROOT
HETATM    1  C2  UNL     1      26.475   0.316  53.724  1.00  0.00     0.129 C 
HETATM    2  C3  UNL     1      25.186  -0.032  54.060  1.00  0.00     0.054 C 
HETATM    3  C4  UNL     1      23.942  -0.254  53.511  1.00  0.00     0.054 C 
HETATM    4  C5  UNL     1      22.900   0.484  52.994  1.00  0.00     0.129 C 
HETATM    5  N3  UNL     1      23.400   0.888  51.818  1.00  0.00    -0.225 NA
HETATM    6  C12 UNL     1      23.701   2.187  51.558  1.00  0.00     0.234 C 
HETATM    7  N4  UNL     1      24.726   3.088  51.646  1.00  0.00    -0.253 NA
HETATM    8  C13 UNL     1      25.998   2.615  51.524  1.00  0.00     0.137 C 
HETATM    9  C14 UNL     1      26.735   1.445  51.711  1.00  0.00     0.138 C 
HETATM   10  N5  UNL     1      26.747   1.466  53.077  1.00  0.00    -0.242 NA
ENDROOT
BRANCH   4  11
HETATM   11  N2  UNL     1      21.626   0.806  53.454  1.00  0.00    -0.341 N 
HETATM   12  H5  UNL     1      21.598   1.518  54.215  1.00  0.00     0.167 HD
BRANCH  11  13
HETATM   13  C6  UNL     1      20.389   0.286  53.013  1.00  0.00     0.035 A 
HETATM   14  C7  UNL     1      19.698   0.875  51.946  1.00  0.00     0.032 A 
HETATM   15  C8  UNL     1      18.495   0.399  51.491  1.00  0.00     0.046 A 
HETATM   16  C9  UNL     1      17.911  -0.686  52.067  1.00  0.00     0.138 A 
HETATM   17  F1  UNL     1      16.724  -1.143  51.606  1.00  0.00    -0.204 F 
HETATM   18  C10 UNL     1      18.544  -1.302  53.116  1.00  0.00     0.074 A 
HETATM   19 CL1  UNL     1      17.796  -2.711  53.874  1.00  0.00    -0.081 Cl
HETATM   20  C11 UNL     1      19.746  -0.803  53.549  1.00  0.00     0.056 A 
ENDBRANCH  11  13
ENDBRANCH   4  11
BRANCH   1  21
HETATM   21  N1  UNL     1      27.516  -0.538  54.059  1.00  0.00    -0.319 N 
HETATM   22  H2  UNL     1      27.428  -1.597  53.975  1.00  0.00     0.169 HD
BRANCH  21  23
HETATM   23  C1  UNL     1      28.782  -0.139  54.536  1.00  0.00     0.354 C 
HETATM   24  O1  UNL     1      29.775  -0.178  53.799  1.00  0.00    -0.283 OA
ENDBRANCH  21  23
ENDBRANCH   1  21
TORSDOF 4
ENDMDL
MODEL 6
REMARK VINA RESULT:      -7.2      3.892      6.849
REMARK  4 active torsions:
REMARK  status: ('A' for Active; 'I' for Inactive)
REMARK    1  A    between atoms: C1_2  and  N1_3 
REMARK    2  A    between atoms: N1_3  and  C2_4 
REMARK    3  A    between atoms: C5_7  and  N2_8 
REMARK    4  A    between atoms: N2_8  and  C6_9 
ROOT
HETATM    1  C2  UNL     1      26.536   5.638  49.200  1.00  0.00     0.129 C 
HETATM    2  C3  UNL     1      26.372   4.292  49.444  1.00  0.00     0.054 C 
HETATM    3  C4  UNL     1      25.406   3.316  49.548  1.00  0.00     0.054 C 
HETATM    4  C5  UNL     1      24.439   2.918  50.445  1.00  0.00     0.129 C 
HETATM    5  N3  UNL     1      23.518   3.882  50.310  1.00  0.00    -0.225 NA
HETATM    6  C12 UNL     1      23.253   4.783  51.293  1.00  0.00     0.234 C 
HETATM    7  N4  UNL     1      23.636   6.013  51.751  1.00  0.00    -0.253 NA
HETATM    8  C13 UNL     1      24.081   6.920  50.836  1.00  0.00     0.137 C 
HETATM    9  C14 UNL     1      24.676   6.976  49.575  1.00  0.00     0.138 C 
HETATM   10  N5  UNL     1      25.923   6.569  49.955  1.00  0.00    -0.242 NA
ENDROOT
BRANCH   4  11
HETATM   11  N2  UNL     1      24.319   1.839  51.315  1.00  0.00    -0.341 N 
HETATM   12  H5  UNL     1      23.434   1.296  51.227  1.00  0.00     0.167 HD
BRANCH  11  13
HETATM   13  C6  UNL     1      25.246   1.403  52.289  1.00  0.00     0.035 A 
HETATM   14  C7  UNL     1      25.000   0.257  53.056  1.00  0.00     0.032 A 
HETATM   15  C8  UNL     1      25.876  -0.196  54.011  1.00  0.00     0.046 A 
HETATM   16  C9  UNL     1      27.042   0.462  54.256  1.00  0.00     0.138 A 
HETATM   17  F1  UNL     1      27.894   0.002  55.200  1.00  0.00    -0.204 F 
HETATM   18  C10 UNL     1      27.333   1.590  53.533  1.00  0.00     0.074 A 
HETATM   19 CL1  UNL     1      28.842   2.453  53.842  1.00  0.00    -0.081 Cl
HETATM   20  C11 UNL     1      26.437   2.018  52.586  1.00  0.00     0.056 A 
ENDBRANCH  11  13
ENDBRANCH   4  11
BRANCH   1  21
HETATM   21  N1  UNL     1      27.349   6.041  48.150  1.00  0.00    -0.319 N 
HETATM   22  H2  UNL     1      26.952   6.320  47.201  1.00  0.00     0.169 HD
BRANCH  21  23
HETATM   23  C1  UNL     1      28.756   6.133  48.193  1.00  0.00     0.354 C 
HETATM   24  O1  UNL     1      29.452   5.116  48.295  1.00  0.00    -0.283 OA
ENDBRANCH  21  23
ENDBRANCH   1  21
TORSDOF 4
ENDMDL
MODEL 7
REMARK VINA RESULT:      -7.2      4.279      6.989
REMARK  4 active torsions:
REMARK  status: ('A' for Active; 'I' for Inactive)
REMARK    1  A    between atoms: C1_2  and  N1_3 
REMARK    2  A    between atoms: N1_3  and  C2_4 
REMARK    3  A    between atoms: C5_7  and  N2_8 
REMARK    4  A    between atoms: N2_8  and  C6_9 
ROOT
HETATM    1  C2  UNL     1      25.765   5.017  49.802  1.00  0.00     0.129 C 
HETATM    2  C3  UNL     1      26.230   3.827  50.316  1.00  0.00     0.054 C 
HETATM    3  C4  UNL     1      25.806   2.587  50.739  1.00  0.00     0.054 C 
HETATM    4  C5  UNL     1      25.159   2.036  51.823  1.00  0.00     0.129 C 
HETATM    5  N3  UNL     1      23.900   2.456  51.641  1.00  0.00    -0.225 NA
HETATM    6  C12 UNL     1      23.304   3.360  52.463  1.00  0.00     0.234 C 
HETATM    7  N4  UNL     1      23.118   4.705  52.622  1.00  0.00    -0.253 NA
HETATM    8  C13 UNL     1      23.070   5.475  51.498  1.00  0.00     0.137 C 
HETATM    9  C14 UNL     1      23.522   5.484  50.178  1.00  0.00     0.138 C 
HETATM   10  N5  UNL     1      24.835   5.747  50.447  1.00  0.00    -0.242 NA
ENDROOT
BRANCH   4  11
HETATM   11  N2  UNL     1      25.572   1.243  52.890  1.00  0.00    -0.341 N 
HETATM   12  H5  UNL     1      24.839   1.050  53.606  1.00  0.00     0.167 HD
BRANCH  11  13
HETATM   13  C6  UNL     1      26.849   0.680  53.109  1.00  0.00     0.035 A 
HETATM   14  C7  UNL     1      27.936   1.481  53.482  1.00  0.00     0.032 A 
HETATM   15  C8  UNL     1      29.190   0.970  53.702  1.00  0.00     0.046 A 
HETATM   16  C9  UNL     1      29.435  -0.361  53.566  1.00  0.00     0.138 A 
HETATM   17  F1  UNL     1      30.678  -0.848  53.787  1.00  0.00    -0.204 F 
HETATM   18  C10 UNL     1      28.407  -1.192  53.203  1.00  0.00     0.074 A 
HETATM   19 CL1  UNL     1      28.711  -2.922  53.022  1.00  0.00    -0.081 Cl
HETATM   20  C11 UNL     1      27.164  -0.652  52.990  1.00  0.00     0.056 A 
ENDBRANCH  11  13
ENDBRANCH   4  11
BRANCH   1  21
HETATM   21  N1  UNL     1      26.266   5.471  48.590  1.00  0.00    -0.319 N 
HETATM   22  H2  UNL     1      25.704   5.411  47.686  1.00  0.00     0.169 HD
BRANCH  21  23
HETATM   23  C1  UNL     1      27.537   6.054  48.396  1.00  0.00     0.354 C 
HETATM   24  O1  UNL     1      27.721   7.255  48.625  1.00  0.00    -0.283 OA
ENDBRANCH  21  23
ENDBRANCH   1  21
TORSDOF 4
ENDMDL
MODEL 8
REMARK VINA RESULT:      -7.1      2.366      3.504
REMARK  4 active torsions:
REMARK  status: ('A' for Active; 'I' for Inactive)
REMARK    1  A    between atoms: C1_2  and  N1_3 
REMARK    2  A    between atoms: N1_3  and  C2_4 
REMARK    3  A    between atoms: C5_7  and  N2_8 
REMARK    4  A    between atoms: N2_8  and  C6_9 
ROOT
HETATM    1  C2  UNL     1      23.950   0.002  53.303  1.00  0.00     0.129 C 
HETATM    2  C3  UNL     1      23.883   1.087  52.458  1.00  0.00     0.054 C 
HETATM    3  C4  UNL     1      24.596   1.753  51.485  1.00  0.00     0.054 C 
HETATM    4  C5  UNL     1      25.681   2.596  51.401  1.00  0.00     0.129 C 
HETATM    5  N3  UNL     1      26.702   1.763  51.647  1.00  0.00    -0.225 NA
HETATM    6  C12 UNL     1      27.450   1.837  52.779  1.00  0.00     0.234 C 
HETATM    7  N4  UNL     1      27.507   1.357  54.058  1.00  0.00    -0.253 NA
HETATM    8  C13 UNL     1      27.010   0.110  54.291  1.00  0.00     0.137 C 
HETATM    9  C14 UNL     1      26.080  -0.793  53.774  1.00  0.00     0.138 C 
HETATM   10  N5  UNL     1      24.955  -0.138  54.189  1.00  0.00    -0.242 NA
ENDROOT
BRANCH   4  11
HETATM   11  N2  UNL     1      25.827   3.956  51.142  1.00  0.00    -0.341 N 
HETATM   12  H5  UNL     1      26.440   4.469  51.810  1.00  0.00     0.167 HD
BRANCH  11  13
HETATM   13  C6  UNL     1      25.248   4.705  50.094  1.00  0.00     0.035 A 
HETATM   14  C7  UNL     1      23.936   4.456  49.668  1.00  0.00     0.032 A 
HETATM   15  C8  UNL     1      23.341   5.163  48.654  1.00  0.00     0.046 A 
HETATM   16  C9  UNL     1      24.011   6.154  48.007  1.00  0.00     0.138 A 
HETATM   17  F1  UNL     1      23.409   6.841  47.009  1.00  0.00    -0.204 F 
HETATM   18  C10 UNL     1      25.298   6.441  48.383  1.00  0.00     0.074 A 
HETATM   19 CL1  UNL     1      26.180   7.725  47.551  1.00  0.00    -0.081 Cl
HETATM   20  C11 UNL     1      25.867   5.717  49.401  1.00  0.00     0.056 A 
ENDBRANCH  11  13
ENDBRANCH   4  11
BRANCH   1  21
HETATM   21  N1  UNL     1      22.960  -0.968  53.239  1.00  0.00    -0.319 N 
HETATM   22  H2  UNL     1      22.917  -1.682  52.449  1.00  0.00     0.169 HD
BRANCH  21  23
HETATM   23  C1  UNL     1      21.917  -1.136  54.175  1.00  0.00     0.354 C 
HETATM   24  O1  UNL     1      22.092  -1.803  55.201  1.00  0.00    -0.283 OA
ENDBRANCH  21  23
ENDBRANCH   1  21
TORSDOF 4
ENDMDL
MODEL 9
REMARK VINA RESULT:      -7.1      4.855      7.370
REMARK  4 active torsions:
REMARK  status: ('A' for Active; 'I' for Inactive)
REMARK    1  A    between atoms: C1_2  and  N1_3 
REMARK    2  A    between atoms: N1_3  and  C2_4 
REMARK    3  A    between atoms: C5_7  and  N2_8 
REMARK    4  A    between atoms: N2_8  and  C6_9 
ROOT
HETATM    1  C2  UNL     1      25.595   5.724  50.068  1.00  0.00     0.129 C 
HETATM    2  C3  UNL     1      25.303   4.383  49.961  1.00  0.00     0.054 C 
HETATM    3  C4  UNL     1      24.358   3.512  49.465  1.00  0.00     0.054 C 
HETATM    4  C5  UNL     1      23.089   3.083  49.783  1.00  0.00     0.129 C 
HETATM    5  N3  UNL     1      22.343   4.150  49.463  1.00  0.00    -0.225 NA
HETATM    6  C12 UNL     1      21.708   4.905  50.397  1.00  0.00     0.234 C 
HETATM    7  N4  UNL     1      21.893   5.998  51.198  1.00  0.00    -0.253 NA
HETATM    8  C13 UNL     1      22.714   6.986  50.743  1.00  0.00     0.137 C 
HETATM    9  C14 UNL     1      23.794   7.178  49.880  1.00  0.00     0.138 C 
HETATM   10  N5  UNL     1      24.745   6.584  50.661  1.00  0.00    -0.242 NA
ENDROOT
BRANCH   4  11
HETATM   11  N2  UNL     1      22.574   1.898  50.301  1.00  0.00    -0.341 N 
HETATM   12  H5  UNL     1      21.770   1.497  49.774  1.00  0.00     0.167 HD
BRANCH  11  13
HETATM   13  C6  UNL     1      23.013   1.189  51.442  1.00  0.00     0.035 A 
HETATM   14  C7  UNL     1      24.340   1.280  51.882  1.00  0.00     0.032 A 
HETATM   15  C8  UNL     1      24.801   0.606  52.985  1.00  0.00     0.046 A 
HETATM   16  C9  UNL     1      23.974  -0.193  53.711  1.00  0.00     0.138 A 
HETATM   17  F1  UNL     1      24.445  -0.850  54.796  1.00  0.00    -0.204 F 
HETATM   18  C10 UNL     1      22.664  -0.318  53.326  1.00  0.00     0.074 A 
HETATM   19 CL1  UNL     1      21.579  -1.352  54.260  1.00  0.00    -0.081 Cl
HETATM   20  C11 UNL     1      22.232   0.368  52.219  1.00  0.00     0.056 A 
ENDBRANCH  11  13
ENDBRANCH   4  11
BRANCH   1  21
HETATM   21  N1  UNL     1      26.792   6.200  49.551  1.00  0.00    -0.319 N 
HETATM   22  H2  UNL     1      27.284   7.054  49.955  1.00  0.00     0.169 HD
BRANCH  21  23
HETATM   23  C1  UNL     1      27.493   5.639  48.462  1.00  0.00     0.354 C 
HETATM   24  O1  UNL     1      28.325   4.742  48.643  1.00  0.00    -0.283 OA
ENDBRANCH  21  23
ENDBRANCH   1  21
TORSDOF 4
ENDMDL
