MODEL 1
REMARK VINA RESULT:      -7.9      0.000      0.000
REMARK  10 active torsions:
REMARK  status: ('A' for Active; 'I' for Inactive)
REMARK    1  A    between atoms: C2_2  and  C3_3 
REMARK    2  A    between atoms: C3_3  and  C4_4 
REMARK    3  A    between atoms: C4_4  and  C5_5 
REMARK    4  A    between atoms: C5_5  and  C6_6 
REMARK    5  A    between atoms: C6_6  and  N1_7 
REMARK       I    between atoms: N1_7  and  C7_8 
REMARK    6  A    between atoms: C7_8  and  C8_10 
REMARK    7  A    between atoms: C8_10  and  O2_11 
REMARK    8  A    between atoms: O2_11  and  C9_12 
REMARK    9  A    between atoms: C9_12  and  C10_13 
REMARK   10  A    between atoms: C21_26  and  C22_27 
ROOT
HETATM    1  C10 UNL     1      21.084   0.848  52.713  1.00  0.00     0.160 A 
HETATM    2  O3  UNL     1      22.307   1.324  52.262  1.00  0.00    -0.330 OA
HETATM    3  C11 UNL     1      23.191   0.514  52.775  1.00  0.00     0.086 A 
HETATM    4  C12 UNL     1      24.587   0.316  52.799  1.00  0.00    -0.002 A 
HETATM    5  C13 UNL     1      25.060   1.332  51.982  1.00  0.00     0.014 A 
HETATM    6  C14 UNL     1      26.455   1.352  51.851  1.00  0.00     0.001 A 
HETATM    7  C15 UNL     1      27.203   0.407  52.510  1.00  0.00     0.000 A 
HETATM    8  C16 UNL     1      26.702  -0.587  53.313  1.00  0.00     0.001 A 
HETATM    9  C17 UNL     1      25.328  -0.588  53.428  1.00  0.00     0.014 A 
HETATM   10  C18 UNL     1      22.420  -0.303  53.433  1.00  0.00    -0.008 A 
HETATM   11  C19 UNL     1      21.161  -0.926  53.991  1.00  0.00     0.097 A 
HETATM   12  O4  UNL     1      19.583  -0.627  53.900  1.00  0.00    -0.357 OA
HETATM   13  C20 UNL     1      20.411  -0.232  53.552  1.00  0.00     0.135 A 
HETATM   14  C21 UNL     1      20.884  -1.475  54.410  1.00  0.00     0.089 A 
HETATM   15  C22 UNL     1      22.425  -1.442  54.309  1.00  0.00     0.082 A 
ENDROOT
BRANCH   1  16
HETATM   16  C9  UNL     1      20.084   1.818  52.110  1.00  0.00     0.213 C 
BRANCH  16  17
HETATM   17  O2  UNL     1      20.274   3.088  52.512  1.00  0.00    -0.379 OA
BRANCH  17  18
HETATM   18  C8  UNL     1      19.998   4.079  51.613  1.00  0.00     0.270 C 
BRANCH  18  19
HETATM   19  C7  UNL     1      21.233   4.793  51.169  1.00  0.00     0.241 C 
HETATM   20  N1  UNL     1      22.481   4.295  51.646  1.00  0.00    -0.359 N 
HETATM   21  H14 UNL     1      22.445   3.446  52.287  1.00  0.00     0.162 HD
HETATM   22  O1  UNL     1      21.349   5.792  50.419  1.00  0.00    -0.271 OA
BRANCH  20  23
HETATM   23  C6  UNL     1      23.813   4.816  51.352  1.00  0.00     0.122 C 
BRANCH  23  24
HETATM   24  C5  UNL     1      24.327   4.238  50.058  1.00  0.00     0.020 C 
BRANCH  24  25
HETATM   25  C4  UNL     1      25.506   4.946  49.485  1.00  0.00     0.002 C 
BRANCH  25  26
HETATM   26  C3  UNL     1      26.719   4.115  49.245  1.00  0.00    -0.000 C 
BRANCH  26  27
HETATM   27  C2  UNL     1      27.853   4.893  48.615  1.00  0.00    -0.005 C 
HETATM   28  C1  UNL     1      27.499   6.346  48.367  1.00  0.00     0.005 C 
ENDBRANCH  26  27
ENDBRANCH  25  26
ENDBRANCH  24  25
ENDBRANCH  23  24
ENDBRANCH  20  23
ENDBRANCH  18  19
ENDBRANCH  17  18
ENDBRANCH  16  17
ENDBRANCH   1  16
TORSDOF 10
ENDMDL
MODEL 2
REMARK VINA RESULT:      -7.9      2.290      5.286
REMARK  10 active torsions:
REMARK  status: ('A' for Active; 'I' for Inactive)
REMARK    1  A    between atoms: C2_2  and  C3_3 
REMARK    2  A    between atoms: C3_3  and  C4_4 
REMARK    3  A    between atoms: C4_4  and  C5_5 
REMARK    4  A    between atoms: C5_5  and  C6_6 
REMARK    5  A    between atoms: C6_6  and  N1_7 
REMARK       I    between atoms: N1_7  and  C7_8 
REMARK    6  A    between atoms: C7_8  and  C8_10 
REMARK    7  A    between atoms: C8_10  and  O2_11 
REMARK    8  A    between atoms: O2_11  and  C9_12 
REMARK    9  A    between atoms: C9_12  and  C10_13 
REMARK   10  A    between atoms: C21_26  and  C22_27 
ROOT
HETATM    1  C10 UNL     1      24.427  -0.096  53.598  1.00  0.00     0.160 A 
HETATM    2  O3  UNL     1      23.628   0.960  53.183  1.00  0.00    -0.330 OA
HETATM    3  C11 UNL     1      24.327   1.567  52.263  1.00  0.00     0.086 A 
HETATM    4  C12 UNL     1      24.234   2.671  51.392  1.00  0.00    -0.002 A 
HETATM    5  C13 UNL     1      22.973   3.179  51.664  1.00  0.00     0.014 A 
HETATM    6  C14 UNL     1      22.643   4.313  50.911  1.00  0.00     0.001 A 
HETATM    7  C15 UNL     1      23.552   4.805  50.006  1.00  0.00     0.000 A 
HETATM    8  C16 UNL     1      24.795   4.277  49.760  1.00  0.00     0.001 A 
HETATM    9  C17 UNL     1      25.099   3.162  50.512  1.00  0.00     0.014 A 
HETATM   10  C18 UNL     1      25.400   0.830  52.247  1.00  0.00    -0.008 A 
HETATM   11  C19 UNL     1      26.367  -0.276  52.602  1.00  0.00     0.097 A 
HETATM   12  O4  UNL     1      26.380  -1.518  53.625  1.00  0.00    -0.357 OA
HETATM   13  C20 UNL     1      25.768  -0.789  53.386  1.00  0.00     0.135 A 
HETATM   14  C21 UNL     1      27.032  -0.576  52.458  1.00  0.00     0.089 A 
HETATM   15  C22 UNL     1      26.699   0.697  51.650  1.00  0.00     0.082 A 
ENDROOT
BRANCH   1  16
HETATM   16  C9  UNL     1      23.592  -0.769  54.672  1.00  0.00     0.213 C 
BRANCH  16  17
HETATM   17  O2  UNL     1      22.511  -1.401  54.180  1.00  0.00    -0.379 OA
BRANCH  17  18
HETATM   18  C8  UNL     1      21.287  -0.997  54.635  1.00  0.00     0.270 C 
BRANCH  18  19
HETATM   19  C7  UNL     1      20.375  -0.608  53.517  1.00  0.00     0.241 C 
HETATM   20  N1  UNL     1      20.953   0.088  52.416  1.00  0.00    -0.359 N 
HETATM   21  H14 UNL     1      21.998   0.282  52.467  1.00  0.00     0.162 HD
HETATM   22  O1  UNL     1      19.142  -0.804  53.391  1.00  0.00    -0.271 OA
BRANCH  20  23
HETATM   23  C6  UNL     1      20.274   0.566  51.215  1.00  0.00     0.122 C 
BRANCH  23  24
HETATM   24  C5  UNL     1      21.178   0.435  50.015  1.00  0.00     0.020 C 
BRANCH  24  25
HETATM   25  C4  UNL     1      21.098   1.565  49.049  1.00  0.00     0.002 C 
BRANCH  25  26
HETATM   26  C3  UNL     1      22.297   1.783  48.192  1.00  0.00    -0.000 C 
BRANCH  26  27
HETATM   27  C2  UNL     1      22.100   2.880  47.168  1.00  0.00    -0.005 C 
HETATM   28  C1  UNL     1      20.904   3.759  47.476  1.00  0.00     0.005 C 
ENDBRANCH  26  27
ENDBRANCH  25  26
ENDBRANCH  24  25
ENDBRANCH  23  24
ENDBRANCH  20  23
ENDBRANCH  18  19
ENDBRANCH  17  18
ENDBRANCH  16  17
ENDBRANCH   1  16
TORSDOF 10
ENDMDL
MODEL 3
REMARK VINA RESULT:      -7.8      1.527      5.847
REMARK  10 active torsions:
REMARK  status: ('A' for Active; 'I' for Inactive)
REMARK    1  A    between atoms: C2_2  and  C3_3 
REMARK    2  A    between atoms: C3_3  and  C4_4 
REMARK    3  A    between atoms: C4_4  and  C5_5 
REMARK    4  A    between atoms: C5_5  and  C6_6 
REMARK    5  A    between atoms: C6_6  and  N1_7 
REMARK       I    between atoms: N1_7  and  C7_8 
REMARK    6  A    between atoms: C7_8  and  C8_10 
REMARK    7  A    between atoms: C8_10  and  O2_11 
REMARK    8  A    between atoms: O2_11  and  C9_12 
REMARK    9  A    between atoms: C9_12  and  C10_13 
REMARK   10  A    between atoms: C21_26  and  C22_27 
ROOT
HETATM    1  C10 UNL     1      24.224   4.520  51.062  1.00  0.00     0.160 A 
HETATM    2  O3  UNL     1      24.042   3.490  51.974  1.00  0.00    -0.330 OA
HETATM    3  C11 UNL     1      24.994   2.638  51.711  1.00  0.00     0.086 A 
HETATM    4  C12 UNL     1      25.482   1.394  52.159  1.00  0.00    -0.002 A 
HETATM    5  C13 UNL     1      24.632   1.086  53.211  1.00  0.00     0.014 A 
HETATM    6  C14 UNL     1      24.916  -0.138  53.831  1.00  0.00     0.001 A 
HETATM    7  C15 UNL     1      25.963  -0.897  53.367  1.00  0.00     0.000 A 
HETATM    8  C16 UNL     1      26.786  -0.563  52.321  1.00  0.00     0.001 A 
HETATM    9  C17 UNL     1      26.489   0.645  51.727  1.00  0.00     0.014 A 
HETATM   10  C18 UNL     1      25.595   3.240  50.725  1.00  0.00    -0.008 A 
HETATM   11  C19 UNL     1      25.907   4.290  49.682  1.00  0.00     0.097 A 
HETATM   12  O4  UNL     1      25.285   5.707  49.244  1.00  0.00    -0.357 OA
HETATM   13  C20 UNL     1      25.093   5.012  49.910  1.00  0.00     0.135 A 
HETATM   14  C21 UNL     1      26.363   4.483  49.128  1.00  0.00     0.089 A 
HETATM   15  C22 UNL     1      26.662   3.113  49.773  1.00  0.00     0.082 A 
ENDROOT
BRANCH   1  16
HETATM   16  C9  UNL     1      23.096   5.482  51.386  1.00  0.00     0.213 C 
BRANCH  16  17
HETATM   17  O2  UNL     1      22.106   5.459  50.474  1.00  0.00    -0.379 OA
BRANCH  17  18
HETATM   18  C8  UNL     1      20.824   5.377  50.942  1.00  0.00     0.270 C 
BRANCH  18  19
HETATM   19  C7  UNL     1      20.450   3.977  51.306  1.00  0.00     0.241 C 
HETATM   20  N1  UNL     1      20.476   3.002  50.266  1.00  0.00    -0.359 N 
HETATM   21  H14 UNL     1      20.762   3.342  49.299  1.00  0.00     0.162 HD
HETATM   22  O1  UNL     1      20.108   3.509  52.419  1.00  0.00    -0.271 OA
BRANCH  20  23
HETATM   23  C6  UNL     1      20.158   1.582  50.375  1.00  0.00     0.122 C 
BRANCH  23  24
HETATM   24  C5  UNL     1      21.424   0.766  50.450  1.00  0.00     0.020 C 
BRANCH  24  25
HETATM   25  C4  UNL     1      21.672   0.121  51.769  1.00  0.00     0.002 C 
BRANCH  25  26
HETATM   26  C3  UNL     1      20.509   0.060  52.699  1.00  0.00    -0.000 C 
BRANCH  26  27
HETATM   27  C2  UNL     1      20.916   0.093  54.156  1.00  0.00    -0.005 C 
HETATM   28  C1  UNL     1      21.480  -1.229  54.636  1.00  0.00     0.005 C 
ENDBRANCH  26  27
ENDBRANCH  25  26
ENDBRANCH  24  25
ENDBRANCH  23  24
ENDBRANCH  20  23
ENDBRANCH  18  19
ENDBRANCH  17  18
ENDBRANCH  16  17
ENDBRANCH   1  16
TORSDOF 10
ENDMDL
MODEL 4
REMARK VINA RESULT:      -7.8      1.982      3.075
REMARK  10 active torsions:
REMARK  status: ('A' for Active; 'I' for Inactive)
REMARK    1  A    between atoms: C2_2  and  C3_3 
REMARK    2  A    between atoms: C3_3  and  C4_4 
REMARK    3  A    between atoms: C4_4  and  C5_5 
REMARK    4  A    between atoms: C5_5  and  C6_6 
REMARK    5  A    between atoms: C6_6  and  N1_7 
REMARK       I    between atoms: N1_7  and  C7_8 
REMARK    6  A    between atoms: C7_8  and  C8_10 
REMARK    7  A    between atoms: C8_10  and  O2_11 
REMARK    8  A    between atoms: O2_11  and  C9_12 
REMARK    9  A    between atoms: C9_12  and  C10_13 
REMARK   10  A    between atoms: C21_26  and  C22_27 
ROOT
HETATM    1  C10 UNL     1      21.351  -0.019  53.238  1.00  0.00     0.160 A 
HETATM    2  O3  UNL     1      21.953   0.851  52.340  1.00  0.00    -0.330 OA
HETATM    3  C11 UNL     1      23.228   0.777  52.605  1.00  0.00     0.086 A 
HETATM    4  C12 UNL     1      24.454   1.318  52.168  1.00  0.00    -0.002 A 
HETATM    5  C13 UNL     1      24.074   2.151  51.126  1.00  0.00     0.014 A 
HETATM    6  C14 UNL     1      25.142   2.824  50.519  1.00  0.00     0.001 A 
HETATM    7  C15 UNL     1      26.418   2.613  50.983  1.00  0.00     0.000 A 
HETATM    8  C16 UNL     1      26.760   1.781  52.019  1.00  0.00     0.001 A 
HETATM    9  C17 UNL     1      25.694   1.128  52.601  1.00  0.00     0.014 A 
HETATM   10  C18 UNL     1      23.223  -0.088  53.579  1.00  0.00    -0.008 A 
HETATM   11  C19 UNL     1      22.700  -1.065  54.606  1.00  0.00     0.097 A 
HETATM   12  O4  UNL     1      21.256  -1.634  55.032  1.00  0.00    -0.357 OA
HETATM   13  C20 UNL     1      21.614  -0.997  54.376  1.00  0.00     0.135 A 
HETATM   14  C21 UNL     1      22.883  -1.532  55.155  1.00  0.00     0.089 A 
HETATM   15  C22 UNL     1      24.066  -0.766  54.524  1.00  0.00     0.082 A 
ENDROOT
BRANCH   1  16
HETATM   16  C9  UNL     1      19.873   0.103  52.910  1.00  0.00     0.213 C 
BRANCH  16  17
HETATM   17  O2  UNL     1      19.644   0.444  51.629  1.00  0.00    -0.379 OA
BRANCH  17  18
HETATM   18  C8  UNL     1      18.631   1.329  51.386  1.00  0.00     0.270 C 
BRANCH  18  19
HETATM   19  C7  UNL     1      19.054   2.743  51.626  1.00  0.00     0.241 C 
HETATM   20  N1  UNL     1      20.386   3.096  51.263  1.00  0.00    -0.359 N 
HETATM   21  H14 UNL     1      20.989   2.326  50.843  1.00  0.00     0.162 HD
HETATM   22  O1  UNL     1      18.400   3.696  52.112  1.00  0.00    -0.271 OA
BRANCH  20  23
HETATM   23  C6  UNL     1      21.024   4.403  51.396  1.00  0.00     0.122 C 
BRANCH  23  24
HETATM   24  C5  UNL     1      21.621   4.830  50.079  1.00  0.00     0.020 C 
BRANCH  24  25
HETATM   25  C4  UNL     1      21.316   3.927  48.935  1.00  0.00     0.002 C 
BRANCH  25  26
HETATM   26  C3  UNL     1      22.475   3.519  48.092  1.00  0.00    -0.000 C 
BRANCH  26  27
HETATM   27  C2  UNL     1      22.394   2.079  47.633  1.00  0.00    -0.005 C 
HETATM   28  C1  UNL     1      21.611   1.203  48.590  1.00  0.00     0.005 C 
ENDBRANCH  26  27
ENDBRANCH  25  26
ENDBRANCH  24  25
ENDBRANCH  23  24
ENDBRANCH  20  23
ENDBRANCH  18  19
ENDBRANCH  17  18
ENDBRANCH  16  17
ENDBRANCH   1  16
TORSDOF 10
ENDMDL
MODEL 5
REMARK VINA RESULT:      -7.7      1.290      2.356
REMARK  10 active torsions:
REMARK  status: ('A' for Active; 'I' for Inactive)
REMARK    1  A    between atoms: C2_2  and  C3_3 
REMARK    2  A    between atoms: C3_3  and  C4_4 
REMARK    3  A    between atoms: C4_4  and  C5_5 
REMARK    4  A    between atoms: C5_5  and  C6_6 
REMARK    5  A    between atoms: C6_6  and  N1_7 
REMARK       I    between atoms: N1_7  and  C7_8 
REMARK    6  A    between atoms: C7_8  and  C8_10 
REMARK    7  A    between atoms: C8_10  and  O2_11 
REMARK    8  A    between atoms: O2_11  and  C9_12 
REMARK    9  A    between atoms: C9_12  and  C10_13 
REMARK   10  A    between atoms: C21_26  and  C22_27 
ROOT
HETATM    1  C10 UNL     1      20.939   0.929  52.798  1.00  0.00     0.160 A 
HETATM    2  O3  UNL     1      22.133   1.466  52.337  1.00  0.00    -0.330 OA
HETATM    3  C11 UNL     1      23.054   0.641  52.755  1.00  0.00     0.086 A 
HETATM    4  C12 UNL     1      24.453   0.475  52.711  1.00  0.00    -0.002 A 
HETATM    5  C13 UNL     1      24.873   1.559  51.954  1.00  0.00     0.014 A 
HETATM    6  C14 UNL     1      26.260   1.620  51.771  1.00  0.00     0.001 A 
HETATM    7  C15 UNL     1      27.054   0.647  52.330  1.00  0.00     0.000 A 
HETATM    8  C16 UNL     1      26.605  -0.414  53.076  1.00  0.00     0.001 A 
HETATM    9  C17 UNL     1      25.237  -0.455  53.243  1.00  0.00     0.014 A 
HETATM   10  C18 UNL     1      22.326  -0.240  53.380  1.00  0.00    -0.008 A 
HETATM   11  C19 UNL     1      21.104  -0.932  53.939  1.00  0.00     0.097 A 
HETATM   12  O4  UNL     1      19.517  -0.663  53.929  1.00  0.00    -0.357 OA
HETATM   13  C20 UNL     1      20.323  -0.225  53.580  1.00  0.00     0.135 A 
HETATM   14  C21 UNL     1      20.855  -1.515  54.325  1.00  0.00     0.089 A 
HETATM   15  C22 UNL     1      22.389  -1.439  54.168  1.00  0.00     0.082 A 
ENDROOT
BRANCH   1  16
HETATM   16  C9  UNL     1      19.896   1.917  52.307  1.00  0.00     0.213 C 
BRANCH  16  17
HETATM   17  O2  UNL     1      20.259   3.200  52.490  1.00  0.00    -0.379 OA
BRANCH  17  18
HETATM   18  C8  UNL     1      19.905   4.096  51.520  1.00  0.00     0.270 C 
BRANCH  18  19
HETATM   19  C7  UNL     1      21.074   4.897  51.045  1.00  0.00     0.241 C 
HETATM   20  N1  UNL     1      22.353   4.270  51.081  1.00  0.00    -0.359 N 
HETATM   21  H14 UNL     1      22.387   3.270  51.444  1.00  0.00     0.162 HD
HETATM   22  O1  UNL     1      21.106   6.072  50.606  1.00  0.00    -0.271 OA
BRANCH  20  23
HETATM   23  C6  UNL     1      23.632   4.842  50.671  1.00  0.00     0.122 C 
BRANCH  23  24
HETATM   24  C5  UNL     1      24.028   4.318  49.313  1.00  0.00     0.020 C 
BRANCH  24  25
HETATM   25  C4  UNL     1      23.453   2.989  48.967  1.00  0.00     0.002 C 
BRANCH  25  26
HETATM   26  C3  UNL     1      22.485   2.965  47.835  1.00  0.00    -0.000 C 
BRANCH  26  27
HETATM   27  C2  UNL     1      21.185   2.272  48.183  1.00  0.00    -0.005 C 
HETATM   28  C1  UNL     1      21.397   0.996  48.972  1.00  0.00     0.005 C 
ENDBRANCH  26  27
ENDBRANCH  25  26
ENDBRANCH  24  25
ENDBRANCH  23  24
ENDBRANCH  20  23
ENDBRANCH  18  19
ENDBRANCH  17  18
ENDBRANCH  16  17
ENDBRANCH   1  16
TORSDOF 10
ENDMDL
MODEL 6
REMARK VINA RESULT:      -7.5      2.038      5.330
REMARK  10 active torsions:
REMARK  status: ('A' for Active; 'I' for Inactive)
REMARK    1  A    between atoms: C2_2  and  C3_3 
REMARK    2  A    between atoms: C3_3  and  C4_4 
REMARK    3  A    between atoms: C4_4  and  C5_5 
REMARK    4  A    between atoms: C5_5  and  C6_6 
REMARK    5  A    between atoms: C6_6  and  N1_7 
REMARK       I    between atoms: N1_7  and  C7_8 
REMARK    6  A    between atoms: C7_8  and  C8_10 
REMARK    7  A    between atoms: C8_10  and  O2_11 
REMARK    8  A    between atoms: O2_11  and  C9_12 
REMARK    9  A    between atoms: C9_12  and  C10_13 
REMARK   10  A    between atoms: C21_26  and  C22_27 
ROOT
HETATM    1  C10 UNL     1      24.302   5.087  50.677  1.00  0.00     0.160 A 
HETATM    2  O3  UNL     1      23.997   4.057  51.555  1.00  0.00    -0.330 OA
HETATM    3  C11 UNL     1      24.927   3.163  51.358  1.00  0.00     0.086 A 
HETATM    4  C12 UNL     1      25.318   1.892  51.826  1.00  0.00    -0.002 A 
HETATM    5  C13 UNL     1      24.371   1.614  52.800  1.00  0.00     0.014 A 
HETATM    6  C14 UNL     1      24.545   0.371  53.422  1.00  0.00     0.001 A 
HETATM    7  C15 UNL     1      25.591  -0.432  53.034  1.00  0.00     0.000 A 
HETATM    8  C16 UNL     1      26.511  -0.126  52.063  1.00  0.00     0.001 A 
HETATM    9  C17 UNL     1      26.321   1.101  51.465  1.00  0.00     0.014 A 
HETATM   10  C18 UNL     1      25.634   3.747  50.433  1.00  0.00    -0.008 A 
HETATM   11  C19 UNL     1      26.080   4.792  49.435  1.00  0.00     0.097 A 
HETATM   12  O4  UNL     1      25.563   6.242  48.970  1.00  0.00    -0.357 OA
HETATM   13  C20 UNL     1      25.284   5.550  49.607  1.00  0.00     0.135 A 
HETATM   14  C21 UNL     1      26.588   4.970  48.923  1.00  0.00     0.089 A 
HETATM   15  C22 UNL     1      26.769   3.579  49.569  1.00  0.00     0.082 A 
ENDROOT
BRANCH   1  16
HETATM   16  C9  UNL     1      23.197   6.099  50.923  1.00  0.00     0.213 C 
BRANCH  16  17
HETATM   17  O2  UNL     1      22.216   5.626  51.713  1.00  0.00    -0.379 OA
BRANCH  17  18
HETATM   18  C8  UNL     1      20.992   5.421  51.140  1.00  0.00     0.270 C 
BRANCH  18  19
HETATM   19  C7  UNL     1      20.451   4.062  51.445  1.00  0.00     0.241 C 
HETATM   20  N1  UNL     1      21.268   2.944  51.110  1.00  0.00    -0.359 N 
HETATM   21  H14 UNL     1      22.211   3.155  50.664  1.00  0.00     0.162 HD
HETATM   22  O1  UNL     1      19.357   3.742  51.968  1.00  0.00    -0.271 OA
BRANCH  20  23
HETATM   23  C6  UNL     1      20.962   1.531  51.312  1.00  0.00     0.122 C 
BRANCH  23  24
HETATM   24  C5  UNL     1      21.655   0.691  50.268  1.00  0.00     0.020 C 
BRANCH  24  25
HETATM   25  C4  UNL     1      21.432   1.135  48.864  1.00  0.00     0.002 C 
BRANCH  25  26
HETATM   26  C3  UNL     1      22.506   1.974  48.262  1.00  0.00    -0.000 C 
BRANCH  26  27
HETATM   27  C2  UNL     1      21.976   3.001  47.286  1.00  0.00    -0.005 C 
HETATM   28  C1  UNL     1      22.423   4.410  47.619  1.00  0.00     0.005 C 
ENDBRANCH  26  27
ENDBRANCH  25  26
ENDBRANCH  24  25
ENDBRANCH  23  24
ENDBRANCH  20  23
ENDBRANCH  18  19
ENDBRANCH  17  18
ENDBRANCH  16  17
ENDBRANCH   1  16
TORSDOF 10
ENDMDL
MODEL 7
REMARK VINA RESULT:      -7.5      1.983      5.186
REMARK  10 active torsions:
REMARK  status: ('A' for Active; 'I' for Inactive)
REMARK    1  A    between atoms: C2_2  and  C3_3 
REMARK    2  A    between atoms: C3_3  and  C4_4 
REMARK    3  A    between atoms: C4_4  and  C5_5 
REMARK    4  A    between atoms: C5_5  and  C6_6 
REMARK    5  A    between atoms: C6_6  and  N1_7 
REMARK       I    between atoms: N1_7  and  C7_8 
REMARK    6  A    between atoms: C7_8  and  C8_10 
REMARK    7  A    between atoms: C8_10  and  O2_11 
REMARK    8  A    between atoms: O2_11  and  C9_12 
REMARK    9  A    between atoms: C9_12  and  C10_13 
REMARK   10  A    between atoms: C21_26  and  C22_27 
ROOT
HETATM    1  C10 UNL     1      22.172   4.296  51.213  1.00  0.00     0.160 A 
HETATM    2  O3  UNL     1      23.022   3.348  51.766  1.00  0.00    -0.330 OA
HETATM    3  C11 UNL     1      22.231   2.431  52.250  1.00  0.00     0.086 A 
HETATM    4  C12 UNL     1      22.298   1.201  52.935  1.00  0.00    -0.002 A 
HETATM    5  C13 UNL     1      23.663   0.989  53.062  1.00  0.00     0.014 A 
HETATM    6  C14 UNL     1      23.993  -0.196  53.732  1.00  0.00     0.001 A 
HETATM    7  C15 UNL     1      22.985  -1.012  54.187  1.00  0.00     0.000 A 
HETATM    8  C16 UNL     1      21.642  -0.772  54.045  1.00  0.00     0.001 A 
HETATM    9  C17 UNL     1      21.340   0.399  53.383  1.00  0.00     0.014 A 
HETATM   10  C18 UNL     1      21.067   2.924  51.937  1.00  0.00    -0.008 A 
HETATM   11  C19 UNL     1      20.031   3.872  51.376  1.00  0.00     0.097 A 
HETATM   12  O4  UNL     1      20.053   5.275  50.589  1.00  0.00    -0.357 OA
HETATM   13  C20 UNL     1      20.711   4.651  50.966  1.00  0.00     0.135 A 
HETATM   14  C21 UNL     1      19.305   3.996  51.280  1.00  0.00     0.089 A 
HETATM   15  C22 UNL     1      19.652   2.708  52.057  1.00  0.00     0.082 A 
ENDROOT
BRANCH   1  16
HETATM   16  C9  UNL     1      23.122   5.350  50.673  1.00  0.00     0.213 C 
BRANCH  16  17
HETATM   17  O2  UNL     1      24.406   5.122  51.007  1.00  0.00    -0.379 OA
BRANCH  17  18
HETATM   18  C8  UNL     1      25.312   5.029  49.988  1.00  0.00     0.270 C 
BRANCH  18  19
HETATM   19  C7  UNL     1      26.212   3.847  50.147  1.00  0.00     0.241 C 
HETATM   20  N1  UNL     1      26.182   3.167  51.399  1.00  0.00    -0.359 N 
HETATM   21  H14 UNL     1      25.517   3.550  52.137  1.00  0.00     0.162 HD
HETATM   22  O1  UNL     1      27.015   3.343  49.325  1.00  0.00    -0.271 OA
BRANCH  20  23
HETATM   23  C6  UNL     1      26.961   1.995  51.790  1.00  0.00     0.122 C 
BRANCH  23  24
HETATM   24  C5  UNL     1      27.322   2.071  53.252  1.00  0.00     0.020 C 
BRANCH  24  25
HETATM   25  C4  UNL     1      27.489   0.751  53.921  1.00  0.00     0.002 C 
BRANCH  25  26
HETATM   26  C3  UNL     1      27.646  -0.426  53.022  1.00  0.00    -0.000 C 
BRANCH  26  27
HETATM   27  C2  UNL     1      28.859  -1.267  53.356  1.00  0.00    -0.005 C 
HETATM   28  C1  UNL     1      30.119  -0.439  53.515  1.00  0.00     0.005 C 
ENDBRANCH  26  27
ENDBRANCH  25  26
ENDBRANCH  24  25
ENDBRANCH  23  24
ENDBRANCH  20  23
ENDBRANCH  18  19
ENDBRANCH  17  18
ENDBRANCH  16  17
ENDBRANCH   1  16
TORSDOF 10
ENDMDL
MODEL 8
REMARK VINA RESULT:      -7.5      2.147      6.073
REMARK  10 active torsions:
REMARK  status: ('A' for Active; 'I' for Inactive)
REMARK    1  A    between atoms: C2_2  and  C3_3 
REMARK    2  A    between atoms: C3_3  and  C4_4 
REMARK    3  A    between atoms: C4_4  and  C5_5 
REMARK    4  A    between atoms: C5_5  and  C6_6 
REMARK    5  A    between atoms: C6_6  and  N1_7 
REMARK       I    between atoms: N1_7  and  C7_8 
REMARK    6  A    between atoms: C7_8  and  C8_10 
REMARK    7  A    between atoms: C8_10  and  O2_11 
REMARK    8  A    between atoms: O2_11  and  C9_12 
REMARK    9  A    between atoms: C9_12  and  C10_13 
REMARK   10  A    between atoms: C21_26  and  C22_27 
ROOT
HETATM    1  C10 UNL     1      26.426   1.991  52.065  1.00  0.00     0.160 A 
HETATM    2  O3  UNL     1      25.121   1.519  52.084  1.00  0.00    -0.330 OA
HETATM    3  C11 UNL     1      25.063   0.738  53.129  1.00  0.00     0.086 A 
HETATM    4  C12 UNL     1      24.143  -0.082  53.812  1.00  0.00    -0.002 A 
HETATM    5  C13 UNL     1      22.976   0.081  53.080  1.00  0.00     0.014 A 
HETATM    6  C14 UNL     1      21.891  -0.658  53.570  1.00  0.00     0.001 A 
HETATM    7  C15 UNL     1      22.064  -1.446  54.683  1.00  0.00     0.000 A 
HETATM    8  C16 UNL     1      23.235  -1.585  55.384  1.00  0.00     0.001 A 
HETATM    9  C17 UNL     1      24.289  -0.849  54.886  1.00  0.00     0.014 A 
HETATM   10  C18 UNL     1      26.281   0.842  53.577  1.00  0.00    -0.008 A 
HETATM   11  C19 UNL     1      27.725   1.279  53.675  1.00  0.00     0.097 A 
HETATM   12  O4  UNL     1      28.702   2.243  52.835  1.00  0.00    -0.357 OA
HETATM   13  C20 UNL     1      27.769   1.942  52.783  1.00  0.00     0.135 A 
HETATM   14  C21 UNL     1      28.356   1.221  54.064  1.00  0.00     0.089 A 
HETATM   15  C22 UNL     1      27.181   0.369  54.591  1.00  0.00     0.082 A 
ENDROOT
BRANCH   1  16
HETATM   16  C9  UNL     1      26.460   2.880  50.835  1.00  0.00     0.213 C 
BRANCH  16  17
HETATM   17  O2  UNL     1      25.311   2.856  50.135  1.00  0.00    -0.379 OA
BRANCH  17  18
HETATM   18  C8  UNL     1      24.708   4.056  49.879  1.00  0.00     0.270 C 
BRANCH  18  19
HETATM   19  C7  UNL     1      23.549   4.306  50.789  1.00  0.00     0.241 C 
HETATM   20  N1  UNL     1      22.703   3.198  51.088  1.00  0.00    -0.359 N 
HETATM   21  H14 UNL     1      22.957   2.267  50.640  1.00  0.00     0.162 HD
HETATM   22  O1  UNL     1      23.194   5.370  51.350  1.00  0.00    -0.271 OA
BRANCH  20  23
HETATM   23  C6  UNL     1      21.522   3.192  51.946  1.00  0.00     0.122 C 
BRANCH  23  24
HETATM   24  C5  UNL     1      20.310   2.752  51.165  1.00  0.00     0.020 C 
BRANCH  24  25
HETATM   25  C4  UNL     1      19.443   1.763  51.864  1.00  0.00     0.002 C 
BRANCH  25  26
HETATM   26  C3  UNL     1      19.319   0.426  51.219  1.00  0.00    -0.000 C 
BRANCH  26  27
HETATM   27  C2  UNL     1      18.084  -0.330  51.659  1.00  0.00    -0.005 C 
HETATM   28  C1  UNL     1      18.252  -0.984  53.016  1.00  0.00     0.005 C 
ENDBRANCH  26  27
ENDBRANCH  25  26
ENDBRANCH  24  25
ENDBRANCH  23  24
ENDBRANCH  20  23
ENDBRANCH  18  19
ENDBRANCH  17  18
ENDBRANCH  16  17
ENDBRANCH   1  16
TORSDOF 10
ENDMDL
MODEL 9
REMARK VINA RESULT:      -7.4      2.004      5.095
REMARK  10 active torsions:
REMARK  status: ('A' for Active; 'I' for Inactive)
REMARK    1  A    between atoms: C2_2  and  C3_3 
REMARK    2  A    between atoms: C3_3  and  C4_4 
REMARK    3  A    between atoms: C4_4  and  C5_5 
REMARK    4  A    between atoms: C5_5  and  C6_6 
REMARK    5  A    between atoms: C6_6  and  N1_7 
REMARK       I    between atoms: N1_7  and  C7_8 
REMARK    6  A    between atoms: C7_8  and  C8_10 
REMARK    7  A    between atoms: C8_10  and  O2_11 
REMARK    8  A    between atoms: O2_11  and  C9_12 
REMARK    9  A    between atoms: C9_12  and  C10_13 
REMARK   10  A    between atoms: C21_26  and  C22_27 
ROOT
HETATM    1  C10 UNL     1      25.862   1.590  52.003  1.00  0.00     0.160 A 
HETATM    2  O3  UNL     1      24.477   1.675  51.985  1.00  0.00    -0.330 OA
HETATM    3  C11 UNL     1      24.072   0.700  52.751  1.00  0.00     0.086 A 
HETATM    4  C12 UNL     1      22.875   0.131  53.230  1.00  0.00    -0.002 A 
HETATM    5  C13 UNL     1      21.899   0.944  52.675  1.00  0.00     0.014 A 
HETATM    6  C14 UNL     1      20.591   0.569  53.007  1.00  0.00     0.001 A 
HETATM    7  C15 UNL     1      20.392  -0.522  53.818  1.00  0.00     0.000 A 
HETATM    8  C16 UNL     1      21.383  -1.308  54.352  1.00  0.00     0.001 A 
HETATM    9  C17 UNL     1      22.662  -0.921  54.012  1.00  0.00     0.014 A 
HETATM   10  C18 UNL     1      25.212   0.184  53.112  1.00  0.00    -0.008 A 
HETATM   11  C19 UNL     1      26.707  -0.020  53.220  1.00  0.00     0.097 A 
HETATM   12  O4  UNL     1      28.019   0.699  52.630  1.00  0.00    -0.357 OA
HETATM   13  C20 UNL     1      27.046   0.812  52.566  1.00  0.00     0.135 A 
HETATM   14  C21 UNL     1      27.246  -0.431  53.523  1.00  0.00     0.089 A 
HETATM   15  C22 UNL     1      25.810  -0.883  53.864  1.00  0.00     0.082 A 
ENDROOT
BRANCH   1  16
HETATM   16  C9  UNL     1      26.297   2.726  51.095  1.00  0.00     0.213 C 
BRANCH  16  17
HETATM   17  O2  UNL     1      25.390   3.018  50.144  1.00  0.00    -0.379 OA
BRANCH  17  18
HETATM   18  C8  UNL     1      25.196   4.337  49.845  1.00  0.00     0.270 C 
BRANCH  18  19
HETATM   19  C7  UNL     1      24.131   4.953  50.694  1.00  0.00     0.241 C 
HETATM   20  N1  UNL     1      22.986   4.155  50.987  1.00  0.00    -0.359 N 
HETATM   21  H14 UNL     1      22.971   3.172  50.578  1.00  0.00     0.162 HD
HETATM   22  O1  UNL     1      24.085   6.096  51.207  1.00  0.00    -0.271 OA
BRANCH  20  23
HETATM   23  C6  UNL     1      21.827   4.530  51.790  1.00  0.00     0.122 C 
BRANCH  23  24
HETATM   24  C5  UNL     1      20.557   4.319  51.005  1.00  0.00     0.020 C 
BRANCH  24  25
HETATM   25  C4  UNL     1      20.732   3.576  49.726  1.00  0.00     0.002 C 
BRANCH  25  26
HETATM   26  C3  UNL     1      20.147   2.206  49.676  1.00  0.00    -0.000 C 
BRANCH  26  27
HETATM   27  C2  UNL     1      21.057   1.200  49.006  1.00  0.00    -0.005 C 
HETATM   28  C1  UNL     1      22.194   1.854  48.247  1.00  0.00     0.005 C 
ENDBRANCH  26  27
ENDBRANCH  25  26
ENDBRANCH  24  25
ENDBRANCH  23  24
ENDBRANCH  20  23
ENDBRANCH  18  19
ENDBRANCH  17  18
ENDBRANCH  16  17
ENDBRANCH   1  16
TORSDOF 10
ENDMDL
