MODEL 1
REMARK VINA RESULT:      -8.6      0.000      0.000
REMARK  8 active torsions:
REMARK  status: ('A' for Active; 'I' for Inactive)
REMARK    1  A    between atoms: C2_2  and  N1_3 
REMARK    2  A    between atoms: N2_11  and  C8_12 
REMARK    3  A    between atoms: C8_12  and  C9_13 
REMARK    4  A    between atoms: C9_13  and  C10_14 
REMARK    5  A    between atoms: C10_14  and  N3_15 
REMARK    6  A    between atoms: C17_23  and  C18_24 
REMARK    7  A    between atoms: C18_24  and  N4_25 
REMARK    8  A    between atoms: N4_25  and  C19_26 
ROOT
HETATM    1  N1  UNL     1      28.306   1.025  53.086  1.00  0.00    -0.289 NA
HETATM    2  C3  UNL     1      27.104   0.646  53.258  1.00  0.00     0.065 A 
HETATM    3  C4  UNL     1      26.593  -0.150  54.355  1.00  0.00     0.071 A 
HETATM    4  C5  UNL     1      25.333  -0.500  54.460  1.00  0.00     0.098 A 
HETATM    5  O1  UNL     1      24.869  -1.274  55.538  1.00  0.00    -0.340 OA
HETATM    6  C6  UNL     1      23.494  -1.371  55.843  1.00  0.00     0.279 C 
HETATM    7  C7  UNL     1      22.630  -1.241  54.666  1.00  0.00     0.248 C 
HETATM    8  O2  UNL     1      21.512  -1.854  54.643  1.00  0.00    -0.271 OA
HETATM    9  N2  UNL     1      22.970  -0.448  53.511  1.00  0.00    -0.314 N 
HETATM   10  C15 UNL     1      24.357  -0.099  53.455  1.00  0.00     0.071 A 
HETATM   11  C16 UNL     1      24.749   0.637  52.411  1.00  0.00     0.048 A 
HETATM   12  C17 UNL     1      26.128   1.045  52.257  1.00  0.00     0.010 A 
ENDROOT
BRANCH   9  13
HETATM   13  C8  UNL     1      21.974  -0.083  52.558  1.00  0.00     0.134 C 
BRANCH  13  14
HETATM   14  C9  UNL     1      21.103   1.075  53.067  1.00  0.00     0.040 C 
BRANCH  14  15
HETATM   15  C10 UNL     1      21.486   2.346  52.387  1.00  0.00     0.118 C 
BRANCH  15  16
HETATM   16  N3  UNL     1      20.499   3.036  51.691  1.00  0.00    -0.408 N 
HETATM   17  C11 UNL     1      19.154   2.591  51.767  1.00  0.00     0.143 C 
HETATM   18  C12 UNL     1      18.259   3.751  51.344  1.00  0.00     0.187 C 
HETATM   19  O3  UNL     1      18.680   4.147  50.087  1.00  0.00    -0.388 OA
HETATM   20  C13 UNL     1      19.893   4.823  50.129  1.00  0.00     0.187 C 
HETATM   21  C14 UNL     1      20.685   4.383  51.329  1.00  0.00     0.143 C 
ENDBRANCH  15  16
ENDBRANCH  14  15
ENDBRANCH  13  14
ENDBRANCH   9  13
BRANCH  12  22
HETATM   22  C18 UNL     1      26.489   1.768  51.224  1.00  0.00     0.102 C 
BRANCH  22  23
HETATM   23  N4  UNL     1      26.571   3.187  51.277  1.00  0.00    -0.366 N 
HETATM   24  H25 UNL     1      27.186   3.828  51.829  1.00  0.00     0.165 HD
BRANCH  23  25
HETATM   25  C19 UNL     1      25.653   3.871  50.428  1.00  0.00     0.047 A 
HETATM   26  C20 UNL     1      24.334   3.756  50.237  1.00  0.00     0.028 A 
HETATM   27  C21 UNL     1      23.829   4.695  49.243  1.00  0.00     0.001 A 
HETATM   28  C22 UNL     1      24.891   5.399  48.823  1.00  0.00     0.016 A 
HETATM   29  C23 UNL     1      26.129   4.945  49.528  1.00  0.00     0.242 A 
HETATM   30  F1  UNL     1      27.103   4.503  48.656  1.00  0.00    -0.239 F 
ENDBRANCH  23  25
ENDBRANCH  22  23
ENDBRANCH  12  22
BRANCH   1  31
HETATM   31  C2  UNL     1      29.354   0.685  54.018  1.00  0.00     0.145 C 
HETATM   32  C1  UNL     1      30.133  -0.528  53.537  1.00  0.00     0.028 C 
ENDBRANCH   1  31
TORSDOF 8
ENDMDL
MODEL 2
REMARK VINA RESULT:      -8.4      0.978      1.309
REMARK  8 active torsions:
REMARK  status: ('A' for Active; 'I' for Inactive)
REMARK    1  A    between atoms: C2_2  and  N1_3 
REMARK    2  A    between atoms: N2_11  and  C8_12 
REMARK    3  A    between atoms: C8_12  and  C9_13 
REMARK    4  A    between atoms: C9_13  and  C10_14 
REMARK    5  A    between atoms: C10_14  and  N3_15 
REMARK    6  A    between atoms: C17_23  and  C18_24 
REMARK    7  A    between atoms: C18_24  and  N4_25 
REMARK    8  A    between atoms: N4_25  and  C19_26 
ROOT
HETATM    1  N1  UNL     1      28.327   0.987  53.076  1.00  0.00    -0.289 NA
HETATM    2  C3  UNL     1      27.122   0.619  53.247  1.00  0.00     0.065 A 
HETATM    3  C4  UNL     1      26.606  -0.181  54.339  1.00  0.00     0.071 A 
HETATM    4  C5  UNL     1      25.342  -0.520  54.444  1.00  0.00     0.098 A 
HETATM    5  O1  UNL     1      24.873  -1.298  55.516  1.00  0.00    -0.340 OA
HETATM    6  C6  UNL     1      23.497  -1.383  55.823  1.00  0.00     0.279 C 
HETATM    7  C7  UNL     1      22.632  -1.235  54.649  1.00  0.00     0.248 C 
HETATM    8  O2  UNL     1      21.508  -1.837  54.623  1.00  0.00    -0.271 OA
HETATM    9  N2  UNL     1      22.978  -0.436  53.500  1.00  0.00    -0.314 N 
HETATM   10  C15 UNL     1      24.369  -0.100  53.443  1.00  0.00     0.071 A 
HETATM   11  C16 UNL     1      24.766   0.640  52.405  1.00  0.00     0.048 A 
HETATM   12  C17 UNL     1      26.148   1.036  52.251  1.00  0.00     0.010 A 
ENDROOT
BRANCH   9  13
HETATM   13  C8  UNL     1      21.984  -0.054  52.551  1.00  0.00     0.134 C 
BRANCH  13  14
HETATM   14  C9  UNL     1      21.296   1.259  52.953  1.00  0.00     0.040 C 
BRANCH  14  15
HETATM   15  C10 UNL     1      20.890   2.023  51.739  1.00  0.00     0.118 C 
BRANCH  15  16
HETATM   16  N3  UNL     1      19.582   1.885  51.288  1.00  0.00    -0.408 N 
HETATM   17  C11 UNL     1      18.635   2.899  51.581  1.00  0.00     0.143 C 
HETATM   18  C12 UNL     1      17.477   2.749  50.600  1.00  0.00     0.187 C 
HETATM   19  O3  UNL     1      17.011   1.451  50.724  1.00  0.00    -0.388 OA
HETATM   20  C13 UNL     1      17.882   0.526  50.164  1.00  0.00     0.187 C 
HETATM   21  C14 UNL     1      19.286   1.064  50.184  1.00  0.00     0.143 C 
ENDBRANCH  15  16
ENDBRANCH  14  15
ENDBRANCH  13  14
ENDBRANCH   9  13
BRANCH  12  22
HETATM   22  C18 UNL     1      26.515   1.763  51.223  1.00  0.00     0.102 C 
BRANCH  22  23
HETATM   23  N4  UNL     1      26.591   3.182  51.281  1.00  0.00    -0.366 N 
HETATM   24  H25 UNL     1      27.198   3.823  51.842  1.00  0.00     0.165 HD
BRANCH  23  25
HETATM   25  C19 UNL     1      25.679   3.866  50.426  1.00  0.00     0.047 A 
HETATM   26  C20 UNL     1      24.362   3.748  50.223  1.00  0.00     0.028 A 
HETATM   27  C21 UNL     1      23.863   4.688  49.227  1.00  0.00     0.001 A 
HETATM   28  C22 UNL     1      24.927   5.395  48.818  1.00  0.00     0.016 A 
HETATM   29  C23 UNL     1      26.161   4.943  49.532  1.00  0.00     0.242 A 
HETATM   30  F1  UNL     1      27.143   4.504  48.668  1.00  0.00    -0.239 F 
ENDBRANCH  23  25
ENDBRANCH  22  23
ENDBRANCH  12  22
BRANCH   1  31
HETATM   31  C2  UNL     1      29.374   0.629  54.004  1.00  0.00     0.145 C 
HETATM   32  C1  UNL     1      30.073  -0.647  53.564  1.00  0.00     0.028 C 
ENDBRANCH   1  31
TORSDOF 8
ENDMDL
MODEL 3
REMARK VINA RESULT:      -8.2      3.432      7.501
REMARK  8 active torsions:
REMARK  status: ('A' for Active; 'I' for Inactive)
REMARK    1  A    between atoms: C2_2  and  N1_3 
REMARK    2  A    between atoms: N2_11  and  C8_12 
REMARK    3  A    between atoms: C8_12  and  C9_13 
REMARK    4  A    between atoms: C9_13  and  C10_14 
REMARK    5  A    between atoms: C10_14  and  N3_15 
REMARK    6  A    between atoms: C17_23  and  C18_24 
REMARK    7  A    between atoms: C18_24  and  N4_25 
REMARK    8  A    between atoms: N4_25  and  C19_26 
ROOT
HETATM    1  N1  UNL     1      23.765   0.158  53.541  1.00  0.00    -0.289 NA
HETATM    2  C3  UNL     1      23.759   1.095  52.683  1.00  0.00     0.065 A 
HETATM    3  C4  UNL     1      22.825   1.265  51.589  1.00  0.00     0.071 A 
HETATM    4  C5  UNL     1      22.886   2.265  50.741  1.00  0.00     0.098 A 
HETATM    5  O1  UNL     1      21.964   2.400  49.690  1.00  0.00    -0.340 OA
HETATM    6  C6  UNL     1      21.808   3.617  48.993  1.00  0.00     0.279 C 
HETATM    7  C7  UNL     1      23.037   4.414  48.937  1.00  0.00     0.248 C 
HETATM    8  O2  UNL     1      23.245   5.170  47.931  1.00  0.00    -0.271 OA
HETATM    9  N2  UNL     1      24.045   4.397  49.968  1.00  0.00    -0.314 N 
HETATM   10  C15 UNL     1      23.923   3.282  50.858  1.00  0.00     0.071 A 
HETATM   11  C16 UNL     1      24.824   3.198  51.841  1.00  0.00     0.048 A 
HETATM   12  C17 UNL     1      24.792   2.113  52.796  1.00  0.00     0.010 A 
ENDROOT
BRANCH   9  13
HETATM   13  C8  UNL     1      25.037   5.419  50.034  1.00  0.00     0.134 C 
BRANCH  13  14
HETATM   14  C9  UNL     1      26.217   5.123  49.097  1.00  0.00     0.040 C 
BRANCH  14  15
HETATM   15  C10 UNL     1      26.737   6.389  48.505  1.00  0.00     0.118 C 
BRANCH  15  16
HETATM   16  N3  UNL     1      28.114   6.584  48.491  1.00  0.00    -0.408 N 
HETATM   17  C11 UNL     1      28.973   5.467  48.338  1.00  0.00     0.143 C 
HETATM   18  C12 UNL     1      30.331   5.987  47.877  1.00  0.00     0.187 C 
HETATM   19  O3  UNL     1      30.740   6.924  48.810  1.00  0.00    -0.388 OA
HETATM   20  C13 UNL     1      30.019   8.107  48.715  1.00  0.00     0.187 C 
HETATM   21  C14 UNL     1      28.657   7.834  48.140  1.00  0.00     0.143 C 
ENDBRANCH  15  16
ENDBRANCH  14  15
ENDBRANCH  13  14
ENDBRANCH   9  13
BRANCH  12  22
HETATM   22  C18 UNL     1      25.687   2.050  53.753  1.00  0.00     0.102 C 
BRANCH  22  23
HETATM   23  N4  UNL     1      27.064   2.330  53.529  1.00  0.00    -0.366 N 
HETATM   24  H25 UNL     1      27.571   3.227  53.351  1.00  0.00     0.165 HD
BRANCH  23  25
HETATM   25  C19 UNL     1      27.917   1.188  53.546  1.00  0.00     0.047 A 
HETATM   26  C20 UNL     1      29.185   1.009  53.929  1.00  0.00     0.028 A 
HETATM   27  C21 UNL     1      29.633  -0.368  53.756  1.00  0.00     0.001 A 
HETATM   28  C22 UNL     1      28.587  -1.037  53.249  1.00  0.00     0.016 A 
HETATM   29  C23 UNL     1      27.417  -0.122  53.071  1.00  0.00     0.242 A 
HETATM   30  F1  UNL     1      26.979  -0.071  51.764  1.00  0.00    -0.239 F 
ENDBRANCH  23  25
ENDBRANCH  22  23
ENDBRANCH  12  22
BRANCH   1  31
HETATM   31  C2  UNL     1      22.786  -0.902  53.521  1.00  0.00     0.145 C 
HETATM   32  C1  UNL     1      21.795  -0.745  54.663  1.00  0.00     0.028 C 
ENDBRANCH   1  31
TORSDOF 8
ENDMDL
MODEL 4
REMARK VINA RESULT:      -7.9      3.369      6.307
REMARK  8 active torsions:
REMARK  status: ('A' for Active; 'I' for Inactive)
REMARK    1  A    between atoms: C2_2  and  N1_3 
REMARK    2  A    between atoms: N2_11  and  C8_12 
REMARK    3  A    between atoms: C8_12  and  C9_13 
REMARK    4  A    between atoms: C9_13  and  C10_14 
REMARK    5  A    between atoms: C10_14  and  N3_15 
REMARK    6  A    between atoms: C17_23  and  C18_24 
REMARK    7  A    between atoms: C18_24  and  N4_25 
REMARK    8  A    between atoms: N4_25  and  C19_26 
ROOT
HETATM    1  N1  UNL     1      25.668   0.663  52.323  1.00  0.00    -0.289 NA
HETATM    2  C3  UNL     1      25.584   1.752  51.673  1.00  0.00     0.065 A 
HETATM    3  C4  UNL     1      26.636   2.390  50.909  1.00  0.00     0.071 A 
HETATM    4  C5  UNL     1      26.468   3.520  50.262  1.00  0.00     0.098 A 
HETATM    5  O1  UNL     1      27.510   4.114  49.530  1.00  0.00    -0.340 OA
HETATM    6  C6  UNL     1      27.262   5.122  48.574  1.00  0.00     0.279 C 
HETATM    7  C7  UNL     1      26.087   5.940  48.885  1.00  0.00     0.248 C 
HETATM    8  O2  UNL     1      26.062   7.161  48.518  1.00  0.00    -0.271 OA
HETATM    9  N2  UNL     1      24.936   5.443  49.597  1.00  0.00    -0.314 N 
HETATM   10  C15 UNL     1      25.184   4.209  50.280  1.00  0.00     0.071 A 
HETATM   11  C16 UNL     1      24.162   3.685  50.962  1.00  0.00     0.048 A 
HETATM   12  C17 UNL     1      24.304   2.443  51.688  1.00  0.00     0.010 A 
ENDROOT
BRANCH   9  13
HETATM   13  C8  UNL     1      23.703   6.159  49.580  1.00  0.00     0.134 C 
BRANCH  13  14
HETATM   14  C9  UNL     1      22.869   5.817  48.337  1.00  0.00     0.040 C 
BRANCH  14  15
HETATM   15  C10 UNL     1      21.542   5.269  48.740  1.00  0.00     0.118 C 
BRANCH  15  16
HETATM   16  N3  UNL     1      21.386   3.887  48.764  1.00  0.00    -0.408 N 
HETATM   17  C11 UNL     1      20.389   3.314  49.593  1.00  0.00     0.143 C 
HETATM   18  C12 UNL     1      20.114   1.904  49.079  1.00  0.00     0.187 C 
HETATM   19  O3  UNL     1      21.327   1.237  49.065  1.00  0.00    -0.388 OA
HETATM   20  C13 UNL     1      22.155   1.677  48.040  1.00  0.00     0.187 C 
HETATM   21  C14 UNL     1      21.819   3.098  47.682  1.00  0.00     0.143 C 
ENDBRANCH  15  16
ENDBRANCH  14  15
ENDBRANCH  13  14
ENDBRANCH   9  13
BRANCH  12  22
HETATM   22  C18 UNL     1      23.286   1.947  52.351  1.00  0.00     0.102 C 
BRANCH  22  23
HETATM   23  N4  UNL     1      22.390   1.003  51.778  1.00  0.00    -0.366 N 
HETATM   24  H25 UNL     1      22.018   0.898  50.806  1.00  0.00     0.165 HD
BRANCH  23  25
HETATM   25  C19 UNL     1      21.904   0.014  52.682  1.00  0.00     0.047 A 
HETATM   26  C20 UNL     1      22.512  -0.939  53.397  1.00  0.00     0.028 A 
HETATM   27  C21 UNL     1      21.575  -1.723  54.194  1.00  0.00     0.001 A 
HETATM   28  C22 UNL     1      20.359  -1.217  53.942  1.00  0.00     0.016 A 
HETATM   29  C23 UNL     1      20.456  -0.083  52.972  1.00  0.00     0.242 A 
HETATM   30  F1  UNL     1      19.708  -0.296  51.832  1.00  0.00    -0.239 F 
ENDBRANCH  23  25
ENDBRANCH  22  23
ENDBRANCH  12  22
BRANCH   1  31
HETATM   31  C2  UNL     1      26.890  -0.103  52.375  1.00  0.00     0.145 C 
HETATM   32  C1  UNL     1      26.594  -1.588  52.502  1.00  0.00     0.028 C 
ENDBRANCH   1  31
TORSDOF 8
ENDMDL
MODEL 5
REMARK VINA RESULT:      -7.8      3.330      7.248
REMARK  8 active torsions:
REMARK  status: ('A' for Active; 'I' for Inactive)
REMARK    1  A    between atoms: C2_2  and  N1_3 
REMARK    2  A    between atoms: N2_11  and  C8_12 
REMARK    3  A    between atoms: C8_12  and  C9_13 
REMARK    4  A    between atoms: C9_13  and  C10_14 
REMARK    5  A    between atoms: C10_14  and  N3_15 
REMARK    6  A    between atoms: C17_23  and  C18_24 
REMARK    7  A    between atoms: C18_24  and  N4_25 
REMARK    8  A    between atoms: N4_25  and  C19_26 
ROOT
HETATM    1  N1  UNL     1      23.259  -0.219  53.946  1.00  0.00    -0.289 NA
HETATM    2  C3  UNL     1      23.260   0.735  53.105  1.00  0.00     0.065 A 
HETATM    3  C4  UNL     1      22.171   1.648  52.826  1.00  0.00     0.071 A 
HETATM    4  C5  UNL     1      22.252   2.612  51.939  1.00  0.00     0.098 A 
HETATM    5  O1  UNL     1      21.175   3.481  51.692  1.00  0.00    -0.340 OA
HETATM    6  C6  UNL     1      21.352   4.703  51.008  1.00  0.00     0.279 C 
HETATM    7  C7  UNL     1      22.446   4.668  50.033  1.00  0.00     0.248 C 
HETATM    8  O2  UNL     1      22.372   5.393  48.987  1.00  0.00    -0.271 OA
HETATM    9  N2  UNL     1      23.623   3.850  50.186  1.00  0.00    -0.314 N 
HETATM   10  C15 UNL     1      23.471   2.819  51.168  1.00  0.00     0.071 A 
HETATM   11  C16 UNL     1      24.522   2.019  51.365  1.00  0.00     0.048 A 
HETATM   12  C17 UNL     1      24.475   0.945  52.333  1.00  0.00     0.010 A 
ENDROOT
BRANCH   9  13
HETATM   13  C8  UNL     1      24.790   4.098  49.404  1.00  0.00     0.134 C 
BRANCH  13  14
HETATM   14  C9  UNL     1      25.542   5.344  49.892  1.00  0.00     0.040 C 
BRANCH  14  15
HETATM   15  C10 UNL     1      26.108   6.092  48.733  1.00  0.00     0.118 C 
BRANCH  15  16
HETATM   16  N3  UNL     1      26.906   7.200  49.000  1.00  0.00    -0.408 N 
HETATM   17  C11 UNL     1      28.156   7.331  48.345  1.00  0.00     0.143 C 
HETATM   18  C12 UNL     1      28.574   8.795  48.430  1.00  0.00     0.187 C 
HETATM   19  O3  UNL     1      28.570   9.137  49.772  1.00  0.00    -0.388 OA
HETATM   20  C13 UNL     1      27.283   9.254  50.279  1.00  0.00     0.187 C 
HETATM   21  C14 UNL     1      26.339   8.391  49.491  1.00  0.00     0.143 C 
ENDBRANCH  15  16
ENDBRANCH  14  15
ENDBRANCH  13  14
ENDBRANCH   9  13
BRANCH  12  22
HETATM   22  C18 UNL     1      25.519   0.172  52.511  1.00  0.00     0.102 C 
BRANCH  22  23
HETATM   23  N4  UNL     1      26.371   0.289  53.644  1.00  0.00    -0.366 N 
HETATM   24  H25 UNL     1      26.258   0.804  54.548  1.00  0.00     0.165 HD
BRANCH  23  25
HETATM   25  C19 UNL     1      27.604  -0.419  53.542  1.00  0.00     0.047 A 
HETATM   26  C20 UNL     1      27.916  -1.637  53.088  1.00  0.00     0.028 A 
HETATM   27  C21 UNL     1      29.342  -1.923  53.189  1.00  0.00     0.001 A 
HETATM   28  C22 UNL     1      29.903  -0.830  53.727  1.00  0.00     0.016 A 
HETATM   29  C23 UNL     1      28.864   0.212  53.996  1.00  0.00     0.242 A 
HETATM   30  F1  UNL     1      28.815   0.578  55.326  1.00  0.00    -0.239 F 
ENDBRANCH  23  25
ENDBRANCH  22  23
ENDBRANCH  12  22
BRANCH   1  31
HETATM   31  C2  UNL     1      22.106  -0.514  54.763  1.00  0.00     0.145 C 
HETATM   32  C1  UNL     1      21.318  -1.678  54.185  1.00  0.00     0.028 C 
ENDBRANCH   1  31
TORSDOF 8
ENDMDL
MODEL 6
REMARK VINA RESULT:      -7.6      2.707      5.394
REMARK  8 active torsions:
REMARK  status: ('A' for Active; 'I' for Inactive)
REMARK    1  A    between atoms: C2_2  and  N1_3 
REMARK    2  A    between atoms: N2_11  and  C8_12 
REMARK    3  A    between atoms: C8_12  and  C9_13 
REMARK    4  A    between atoms: C9_13  and  C10_14 
REMARK    5  A    between atoms: C10_14  and  N3_15 
REMARK    6  A    between atoms: C17_23  and  C18_24 
REMARK    7  A    between atoms: C18_24  and  N4_25 
REMARK    8  A    between atoms: N4_25  and  C19_26 
ROOT
HETATM    1  N1  UNL     1      26.398  -0.477  53.093  1.00  0.00    -0.289 NA
HETATM    2  C3  UNL     1      26.022   0.613  52.559  1.00  0.00     0.065 A 
HETATM    3  C4  UNL     1      26.779   1.432  51.633  1.00  0.00     0.071 A 
HETATM    4  C5  UNL     1      26.318   2.550  51.123  1.00  0.00     0.098 A 
HETATM    5  O1  UNL     1      27.079   3.321  50.227  1.00  0.00    -0.340 OA
HETATM    6  C6  UNL     1      26.487   4.320  49.423  1.00  0.00     0.279 C 
HETATM    7  C7  UNL     1      25.312   4.941  50.041  1.00  0.00     0.248 C 
HETATM    8  O2  UNL     1      25.039   6.158  49.778  1.00  0.00    -0.271 OA
HETATM    9  N2  UNL     1      24.429   4.248  50.946  1.00  0.00    -0.314 N 
HETATM   10  C15 UNL     1      24.989   3.039  51.468  1.00  0.00     0.071 A 
HETATM   11  C16 UNL     1      24.228   2.341  52.315  1.00  0.00     0.048 A 
HETATM   12  C17 UNL     1      24.697   1.105  52.900  1.00  0.00     0.010 A 
ENDROOT
BRANCH   9  13
HETATM   13  C8  UNL     1      23.137   4.773  51.249  1.00  0.00     0.134 C 
BRANCH  13  14
HETATM   14  C9  UNL     1      22.173   4.615  50.065  1.00  0.00     0.040 C 
BRANCH  14  15
HETATM   15  C10 UNL     1      20.777   4.921  50.492  1.00  0.00     0.118 C 
BRANCH  15  16
HETATM   16  N3  UNL     1      19.838   3.896  50.434  1.00  0.00    -0.408 N 
HETATM   17  C11 UNL     1      19.815   3.036  49.307  1.00  0.00     0.143 C 
HETATM   18  C12 UNL     1      19.067   1.769  49.707  1.00  0.00     0.187 C 
HETATM   19  O3  UNL     1      17.826   2.165  50.174  1.00  0.00    -0.388 OA
HETATM   20  C13 UNL     1      17.904   2.766  51.424  1.00  0.00     0.187 C 
HETATM   21  C14 UNL     1      19.260   3.387  51.611  1.00  0.00     0.143 C 
ENDBRANCH  15  16
ENDBRANCH  14  15
ENDBRANCH  13  14
ENDBRANCH   9  13
BRANCH  12  22
HETATM   22  C18 UNL     1      23.931   0.436  53.730  1.00  0.00     0.102 C 
BRANCH  22  23
HETATM   23  N4  UNL     1      23.327  -0.803  53.379  1.00  0.00    -0.366 N 
HETATM   24  H25 UNL     1      23.739  -1.727  53.113  1.00  0.00     0.165 HD
BRANCH  23  25
HETATM   25  C19 UNL     1      21.902  -0.797  53.389  1.00  0.00     0.047 A 
HETATM   26  C20 UNL     1      20.996  -1.504  54.072  1.00  0.00     0.028 A 
HETATM   27  C21 UNL     1      19.627  -1.135  53.734  1.00  0.00     0.001 A 
HETATM   28  C22 UNL     1      19.720  -0.168  52.809  1.00  0.00     0.016 A 
HETATM   29  C23 UNL     1      21.155   0.130  52.509  1.00  0.00     0.242 A 
HETATM   30  F1  UNL     1      21.466  -0.049  51.177  1.00  0.00    -0.239 F 
ENDBRANCH  23  25
ENDBRANCH  22  23
ENDBRANCH  12  22
BRANCH   1  31
HETATM   31  C2  UNL     1      27.693  -1.054  52.824  1.00  0.00     0.145 C 
HETATM   32  C1  UNL     1      28.714  -0.595  53.852  1.00  0.00     0.028 C 
ENDBRANCH   1  31
TORSDOF 8
ENDMDL
MODEL 7
REMARK VINA RESULT:      -7.6      4.811      8.695
REMARK  8 active torsions:
REMARK  status: ('A' for Active; 'I' for Inactive)
REMARK    1  A    between atoms: C2_2  and  N1_3 
REMARK    2  A    between atoms: N2_11  and  C8_12 
REMARK    3  A    between atoms: C8_12  and  C9_13 
REMARK    4  A    between atoms: C9_13  and  C10_14 
REMARK    5  A    between atoms: C10_14  and  N3_15 
REMARK    6  A    between atoms: C17_23  and  C18_24 
REMARK    7  A    between atoms: C18_24  and  N4_25 
REMARK    8  A    between atoms: N4_25  and  C19_26 
ROOT
HETATM    1  N1  UNL     1      29.937   7.844  47.331  1.00  0.00    -0.289 NA
HETATM    2  C3  UNL     1      28.968   7.174  47.808  1.00  0.00     0.065 A 
HETATM    3  C4  UNL     1      27.663   7.682  48.179  1.00  0.00     0.071 A 
HETATM    4  C5  UNL     1      26.710   6.922  48.667  1.00  0.00     0.098 A 
HETATM    5  O1  UNL     1      25.454   7.447  49.018  1.00  0.00    -0.340 OA
HETATM    6  C6  UNL     1      24.333   6.612  49.217  1.00  0.00     0.279 C 
HETATM    7  C7  UNL     1      24.685   5.278  49.712  1.00  0.00     0.248 C 
HETATM    8  O2  UNL     1      23.865   4.656  50.465  1.00  0.00    -0.271 OA
HETATM    9  N2  UNL     1      25.924   4.612  49.396  1.00  0.00    -0.314 N 
HETATM   10  C15 UNL     1      26.920   5.494  48.868  1.00  0.00     0.071 A 
HETATM   11  C16 UNL     1      28.097   4.949  48.550  1.00  0.00     0.048 A 
HETATM   12  C17 UNL     1      29.173   5.749  48.010  1.00  0.00     0.010 A 
ENDROOT
BRANCH   9  13
HETATM   13  C8  UNL     1      26.074   3.210  49.613  1.00  0.00     0.134 C 
BRANCH  13  14
HETATM   14  C9  UNL     1      26.677   2.915  50.993  1.00  0.00     0.040 C 
BRANCH  14  15
HETATM   15  C10 UNL     1      26.005   1.734  51.608  1.00  0.00     0.118 C 
BRANCH  15  16
HETATM   16  N3  UNL     1      26.753   0.929  52.461  1.00  0.00    -0.408 N 
HETATM   17  C11 UNL     1      26.694  -0.480  52.317  1.00  0.00     0.143 C 
HETATM   18  C12 UNL     1      27.922  -1.068  53.005  1.00  0.00     0.187 C 
HETATM   19  O3  UNL     1      27.910  -0.606  54.310  1.00  0.00    -0.388 OA
HETATM   20  C13 UNL     1      28.246   0.739  54.393  1.00  0.00     0.187 C 
HETATM   21  C14 UNL     1      27.894   1.437  53.109  1.00  0.00     0.143 C 
ENDBRANCH  15  16
ENDBRANCH  14  15
ENDBRANCH  13  14
ENDBRANCH   9  13
BRANCH  12  22
HETATM   22  C18 UNL     1      30.321   5.191  47.705  1.00  0.00     0.102 C 
BRANCH  22  23
HETATM   23  N4  UNL     1      31.547   5.598  48.299  1.00  0.00    -0.366 N 
HETATM   24  H25 UNL     1      31.794   6.428  48.887  1.00  0.00     0.165 HD
BRANCH  23  25
HETATM   25  C19 UNL     1      32.648   4.725  48.058  1.00  0.00     0.047 A 
HETATM   26  C20 UNL     1      32.725   3.429  47.741  1.00  0.00     0.028 A 
HETATM   27  C21 UNL     1      34.101   2.970  47.593  1.00  0.00     0.001 A 
HETATM   28  C22 UNL     1      34.876   4.038  47.833  1.00  0.00     0.016 A 
HETATM   29  C23 UNL     1      34.035   5.234  48.147  1.00  0.00     0.242 A 
HETATM   30  F1  UNL     1      34.317   5.769  49.387  1.00  0.00    -0.239 F 
ENDBRANCH  23  25
ENDBRANCH  22  23
ENDBRANCH  12  22
BRANCH   1  31
HETATM   31  C2  UNL     1      29.841   9.263  47.091  1.00  0.00     0.145 C 
HETATM   32  C1  UNL     1      30.603  10.044  48.150  1.00  0.00     0.028 C 
ENDBRANCH   1  31
TORSDOF 8
ENDMDL
MODEL 8
REMARK VINA RESULT:      -7.5      1.509      1.984
REMARK  8 active torsions:
REMARK  status: ('A' for Active; 'I' for Inactive)
REMARK    1  A    between atoms: C2_2  and  N1_3 
REMARK    2  A    between atoms: N2_11  and  C8_12 
REMARK    3  A    between atoms: C8_12  and  C9_13 
REMARK    4  A    between atoms: C9_13  and  C10_14 
REMARK    5  A    between atoms: C10_14  and  N3_15 
REMARK    6  A    between atoms: C17_23  and  C18_24 
REMARK    7  A    between atoms: C18_24  and  N4_25 
REMARK    8  A    between atoms: N4_25  and  C19_26 
ROOT
HETATM    1  N1  UNL     1      27.124   0.701  52.912  1.00  0.00    -0.289 NA
HETATM    2  C3  UNL     1      25.856   0.603  52.930  1.00  0.00     0.065 A 
HETATM    3  C4  UNL     1      25.066  -0.294  53.748  1.00  0.00     0.071 A 
HETATM    4  C5  UNL     1      23.755  -0.334  53.707  1.00  0.00     0.098 A 
HETATM    5  O1  UNL     1      23.018  -1.218  54.514  1.00  0.00    -0.340 OA
HETATM    6  C6  UNL     1      21.634  -1.043  54.731  1.00  0.00     0.279 C 
HETATM    7  C7  UNL     1      20.947  -0.404  53.605  1.00  0.00     0.248 C 
HETATM    8  O2  UNL     1      19.727  -0.692  53.373  1.00  0.00    -0.271 OA
HETATM    9  N2  UNL     1      21.578   0.549  52.724  1.00  0.00    -0.314 N 
HETATM   10  C15 UNL     1      23.006   0.543  52.816  1.00  0.00     0.071 A 
HETATM   11  C16 UNL     1      23.661   1.400  52.029  1.00  0.00     0.048 A 
HETATM   12  C17 UNL     1      25.105   1.476  52.042  1.00  0.00     0.010 A 
ENDROOT
BRANCH   9  13
HETATM   13  C8  UNL     1      20.795   1.383  51.872  1.00  0.00     0.134 C 
BRANCH  13  14
HETATM   14  C9  UNL     1      20.310   2.641  52.605  1.00  0.00     0.040 C 
BRANCH  14  15
HETATM   15  C10 UNL     1      20.253   3.797  51.665  1.00  0.00     0.118 C 
BRANCH  15  16
HETATM   16  N3  UNL     1      19.271   3.787  50.679  1.00  0.00    -0.408 N 
HETATM   17  C11 UNL     1      17.909   3.906  51.053  1.00  0.00     0.143 C 
HETATM   18  C12 UNL     1      17.127   4.347  49.820  1.00  0.00     0.187 C 
HETATM   19  O3  UNL     1      17.389   3.421  48.824  1.00  0.00    -0.388 OA
HETATM   20  C13 UNL     1      18.675   3.549  48.316  1.00  0.00     0.187 C 
HETATM   21  C14 UNL     1      19.582   4.147  49.355  1.00  0.00     0.143 C 
ENDBRANCH  15  16
ENDBRANCH  14  15
ENDBRANCH  13  14
ENDBRANCH   9  13
BRANCH  12  22
HETATM   22  C18 UNL     1      25.728   2.326  51.260  1.00  0.00     0.102 C 
BRANCH  22  23
HETATM   23  N4  UNL     1      25.242   3.643  51.026  1.00  0.00    -0.366 N 
HETATM   24  H25 UNL     1      24.437   4.170  51.436  1.00  0.00     0.165 HD
BRANCH  23  25
HETATM   25  C19 UNL     1      25.978   4.389  50.060  1.00  0.00     0.047 A 
HETATM   26  C20 UNL     1      27.082   4.120  49.354  1.00  0.00     0.028 A 
HETATM   27  C21 UNL     1      27.463   5.218  48.473  1.00  0.00     0.001 A 
HETATM   28  C22 UNL     1      26.549   6.181  48.663  1.00  0.00     0.016 A 
HETATM   29  C23 UNL     1      25.537   5.748  49.675  1.00  0.00     0.242 A 
HETATM   30  F1  UNL     1      25.471   6.602  50.757  1.00  0.00    -0.239 F 
ENDBRANCH  23  25
ENDBRANCH  22  23
ENDBRANCH  12  22
BRANCH   1  31
HETATM   31  C2  UNL     1      27.964  -0.118  53.753  1.00  0.00     0.145 C 
HETATM   32  C1  UNL     1      29.401   0.377  53.727  1.00  0.00     0.028 C 
ENDBRANCH   1  31
TORSDOF 8
ENDMDL
MODEL 9
REMARK VINA RESULT:      -7.4      2.092      2.752
REMARK  8 active torsions:
REMARK  status: ('A' for Active; 'I' for Inactive)
REMARK    1  A    between atoms: C2_2  and  N1_3 
REMARK    2  A    between atoms: N2_11  and  C8_12 
REMARK    3  A    between atoms: C8_12  and  C9_13 
REMARK    4  A    between atoms: C9_13  and  C10_14 
REMARK    5  A    between atoms: C10_14  and  N3_15 
REMARK    6  A    between atoms: C17_23  and  C18_24 
REMARK    7  A    between atoms: C18_24  and  N4_25 
REMARK    8  A    between atoms: N4_25  and  C19_26 
ROOT
HETATM    1  N1  UNL     1      26.478   0.969  53.317  1.00  0.00    -0.289 NA
HETATM    2  C3  UNL     1      25.220   0.801  53.240  1.00  0.00     0.065 A 
HETATM    3  C4  UNL     1      24.447  -0.256  53.858  1.00  0.00     0.071 A 
HETATM    4  C5  UNL     1      23.145  -0.360  53.730  1.00  0.00     0.098 A 
HETATM    5  O1  UNL     1      22.423  -1.400  54.342  1.00  0.00    -0.340 OA
HETATM    6  C6  UNL     1      21.021  -1.337  54.496  1.00  0.00     0.279 C 
HETATM    7  C7  UNL     1      20.357  -0.565  53.442  1.00  0.00     0.248 C 
HETATM    8  O2  UNL     1      19.171  -0.879  53.093  1.00  0.00    -0.271 OA
HETATM    9  N2  UNL     1      20.971   0.547  52.761  1.00  0.00    -0.314 N 
HETATM   10  C15 UNL     1      22.390   0.605  52.940  1.00  0.00     0.071 A 
HETATM   11  C16 UNL     1      23.031   1.610  52.338  1.00  0.00     0.048 A 
HETATM   12  C17 UNL     1      24.464   1.762  52.453  1.00  0.00     0.010 A 
ENDROOT
BRANCH   9  13
HETATM   13  C8  UNL     1      20.183   1.462  52.001  1.00  0.00     0.134 C 
BRANCH  13  14
HETATM   14  C9  UNL     1      20.032   1.001  50.545  1.00  0.00     0.040 C 
BRANCH  14  15
HETATM   15  C10 UNL     1      19.444   2.092  49.716  1.00  0.00     0.118 C 
BRANCH  15  16
HETATM   16  N3  UNL     1      20.203   2.591  48.662  1.00  0.00    -0.408 N 
HETATM   17  C11 UNL     1      19.546   3.127  47.525  1.00  0.00     0.143 C 
HETATM   18  C12 UNL     1      20.547   4.010  46.786  1.00  0.00     0.187 C 
HETATM   19  O3  UNL     1      21.653   3.223  46.515  1.00  0.00    -0.388 OA
HETATM   20  C13 UNL     1      22.403   2.964  47.654  1.00  0.00     0.187 C 
HETATM   21  C14 UNL     1      21.525   3.024  48.873  1.00  0.00     0.143 C 
ENDBRANCH  15  16
ENDBRANCH  14  15
ENDBRANCH  13  14
ENDBRANCH   9  13
BRANCH  12  22
HETATM   22  C18 UNL     1      25.072   2.758  51.853  1.00  0.00     0.102 C 
BRANCH  22  23
HETATM   23  N4  UNL     1      24.465   3.499  50.802  1.00  0.00    -0.366 N 
HETATM   24  H25 UNL     1      23.466   3.593  50.504  1.00  0.00     0.165 HD
BRANCH  23  25
HETATM   25  C19 UNL     1      25.370   4.256  50.002  1.00  0.00     0.047 A 
HETATM   26  C20 UNL     1      25.273   5.446  49.400  1.00  0.00     0.028 A 
HETATM   27  C21 UNL     1      26.487   5.810  48.680  1.00  0.00     0.001 A 
HETATM   28  C22 UNL     1      27.344   4.793  48.860  1.00  0.00     0.016 A 
HETATM   29  C23 UNL     1      26.720   3.728  49.705  1.00  0.00     0.242 A 
HETATM   30  F1  UNL     1      26.674   2.505  49.066  1.00  0.00    -0.239 F 
ENDBRANCH  23  25
ENDBRANCH  22  23
ENDBRANCH  12  22
BRANCH   1  31
HETATM   31  C2  UNL     1      27.323   0.075  54.071  1.00  0.00     0.145 C 
HETATM   32  C1  UNL     1      28.065  -0.876  53.147  1.00  0.00     0.028 C 
ENDBRANCH   1  31
TORSDOF 8
ENDMDL
