MODEL 1
REMARK VINA RESULT:      -8.8      0.000      0.000
REMARK  2 active torsions:
REMARK  status: ('A' for Active; 'I' for Inactive)
REMARK    1  A    between atoms: N2_7  and  C6_8 
REMARK    2  A    between atoms: C11_15  and  N5_16 
ROOT
HETATM    1  C1  UNL     1      29.423  -1.763  53.448  1.00  0.00     0.027 C 
HETATM    2  C2  UNL     1      28.660  -0.448  53.490  1.00  0.00     0.069 C 
HETATM    3  C3  UNL     1      29.720   0.593  53.870  1.00  0.00     0.022 C 
HETATM    4  C4  UNL     1      29.078   1.914  54.222  1.00  0.00     0.018 C 
HETATM    5  C5  UNL     1      28.120   2.386  53.170  1.00  0.00     0.112 C 
HETATM    6  N1  UNL     1      26.795   2.436  53.753  1.00  0.00    -0.222 NA
HETATM    7  N2  UNL     1      26.180   1.180  53.790  1.00  0.00    -0.227 N 
HETATM    8  N6  UNL     1      26.372  -0.169  54.060  1.00  0.00    -0.153 NA
HETATM    9  N7  UNL     1      27.629  -0.536  54.463  1.00  0.00    -0.238 NA
HETATM   10  H11 UNL     1      26.780   2.942  54.650  1.00  0.00     0.148 HD
HETATM   11  H16 UNL     1      25.732  -0.380  54.883  1.00  0.00     0.168 HD
HETATM   12  H17 UNL     1      27.541  -1.500  54.877  1.00  0.00     0.142 HD
ENDROOT
BRANCH   7  13
HETATM   13  C6  UNL     1      24.818   1.376  53.389  1.00  0.00     0.066 A 
HETATM   14  C7  UNL     1      24.395   2.580  52.830  1.00  0.00     0.035 A 
HETATM   15  C8  UNL     1      23.082   2.799  52.433  1.00  0.00     0.035 A 
HETATM   16  C9  UNL     1      22.148   1.796  52.591  1.00  0.00     0.072 A 
HETATM   17  N3  UNL     1      20.887   2.047  52.194  1.00  0.00    -0.241 NA
HETATM   18  C12 UNL     1      22.536   0.594  53.141  1.00  0.00     0.045 A 
HETATM   19  C10 UNL     1      19.946   1.069  52.342  1.00  0.00     0.236 A 
HETATM   20  N4  UNL     1      20.327  -0.109  52.881  1.00  0.00    -0.220 NA
HETATM   21  C11 UNL     1      21.569  -0.380  53.280  1.00  0.00     0.193 A 
HETATM   22  C13 UNL     1      23.829   0.404  53.523  1.00  0.00     0.050 A 
BRANCH  21  23
HETATM   23  N5  UNL     1      21.899  -1.651  53.843  1.00  0.00    -0.077 NA
HETATM   24  O1  UNL     1      21.493  -1.833  55.028  1.00  0.00    -0.059 OA
ENDBRANCH  21  23
ENDBRANCH   7  13
TORSDOF 2
ENDMDL
MODEL 2
REMARK VINA RESULT:      -8.7      2.907      6.934
REMARK  2 active torsions:
REMARK  status: ('A' for Active; 'I' for Inactive)
REMARK    1  A    between atoms: N2_7  and  C6_8 
REMARK    2  A    between atoms: C11_15  and  N5_16 
ROOT
HETATM    1  C1  UNL     1      23.228   5.980  51.124  1.00  0.00     0.027 C 
HETATM    2  C2  UNL     1      23.132   4.544  51.614  1.00  0.00     0.069 C 
HETATM    3  C3  UNL     1      21.629   4.303  51.793  1.00  0.00     0.022 C 
HETATM    4  C4  UNL     1      21.372   3.013  52.536  1.00  0.00     0.018 C 
HETATM    5  C5  UNL     1      22.101   1.849  51.934  1.00  0.00     0.112 C 
HETATM    6  N1  UNL     1      23.048   1.353  52.911  1.00  0.00    -0.222 NA
HETATM    7  N2  UNL     1      24.225   2.109  52.945  1.00  0.00    -0.227 N 
HETATM    8  N6  UNL     1      24.747   3.396  52.923  1.00  0.00    -0.153 NA
HETATM    9  N7  UNL     1      23.840   4.419  52.840  1.00  0.00    -0.238 NA
HETATM   10  H11 UNL     1      22.616   1.200  53.833  1.00  0.00     0.148 HD
HETATM   11  H16 UNL     1      25.229   3.514  53.864  1.00  0.00     0.168 HD
HETATM   12  H17 UNL     1      24.355   5.299  53.103  1.00  0.00     0.142 HD
ENDROOT
BRANCH   7  13
HETATM   13  C6  UNL     1      25.310   1.178  53.038  1.00  0.00     0.066 A 
HETATM   14  C7  UNL     1      25.138  -0.168  52.717  1.00  0.00     0.035 A 
HETATM   15  C8  UNL     1      26.171  -1.092  52.798  1.00  0.00     0.035 A 
HETATM   16  C9  UNL     1      27.421  -0.681  53.209  1.00  0.00     0.072 A 
HETATM   17  N3  UNL     1      28.395  -1.608  53.274  1.00  0.00    -0.241 NA
HETATM   18  C12 UNL     1      27.623   0.642  53.533  1.00  0.00     0.045 A 
HETATM   19  C10 UNL     1      29.640  -1.223  53.679  1.00  0.00     0.236 A 
HETATM   20  N4  UNL     1      29.838   0.075  53.997  1.00  0.00    -0.220 NA
HETATM   21  C11 UNL     1      28.889   1.009  53.940  1.00  0.00     0.193 A 
HETATM   22  C13 UNL     1      26.594   1.531  53.446  1.00  0.00     0.050 A 
BRANCH  21  23
HETATM   23  N5  UNL     1      29.171   2.365  54.292  1.00  0.00    -0.077 NA
HETATM   24  O1  UNL     1      29.991   2.511  55.244  1.00  0.00    -0.059 OA
ENDBRANCH  21  23
ENDBRANCH   7  13
TORSDOF 2
ENDMDL
MODEL 3
REMARK VINA RESULT:      -8.4      2.313      3.145
REMARK  2 active torsions:
REMARK  status: ('A' for Active; 'I' for Inactive)
REMARK    1  A    between atoms: N2_7  and  C6_8 
REMARK    2  A    between atoms: C11_15  and  N5_16 
ROOT
HETATM    1  C1  UNL     1      29.425  -1.884  53.431  1.00  0.00     0.027 C 
HETATM    2  C2  UNL     1      28.711  -0.542  53.488  1.00  0.00     0.069 C 
HETATM    3  C3  UNL     1      29.805   0.451  53.899  1.00  0.00     0.022 C 
HETATM    4  C4  UNL     1      29.209   1.789  54.269  1.00  0.00     0.018 C 
HETATM    5  C5  UNL     1      28.282   2.316  53.214  1.00  0.00     0.112 C 
HETATM    6  N1  UNL     1      26.953   2.406  53.782  1.00  0.00    -0.222 NA
HETATM    7  N2  UNL     1      26.291   1.173  53.789  1.00  0.00    -0.227 N 
HETATM    8  N6  UNL     1      26.428  -0.187  54.036  1.00  0.00    -0.153 NA
HETATM    9  N7  UNL     1      27.665  -0.608  54.447  1.00  0.00    -0.238 NA
HETATM   10  H11 UNL     1      26.946   2.895  54.688  1.00  0.00     0.148 HD
HETATM   11  H16 UNL     1      25.771  -0.389  54.847  1.00  0.00     0.168 HD
HETATM   12  H17 UNL     1      27.537  -1.575  54.842  1.00  0.00     0.142 HD
ENDROOT
BRANCH   7  13
HETATM   13  C6  UNL     1      24.942   1.427  53.376  1.00  0.00     0.066 A 
HETATM   14  C7  UNL     1      24.002   0.400  53.306  1.00  0.00     0.035 A 
HETATM   15  C8  UNL     1      22.689   0.616  52.909  1.00  0.00     0.035 A 
HETATM   16  C9  UNL     1      22.282   1.889  52.568  1.00  0.00     0.072 A 
HETATM   17  N3  UNL     1      21.002   2.056  52.189  1.00  0.00    -0.241 NA
HETATM   18  C12 UNL     1      23.189   2.924  52.626  1.00  0.00     0.045 A 
HETATM   19  C10 UNL     1      20.578   3.308  51.846  1.00  0.00     0.236 A 
HETATM   20  N4  UNL     1      21.466   4.323  51.903  1.00  0.00    -0.220 NA
HETATM   21  C11 UNL     1      22.737   4.180  52.276  1.00  0.00     0.193 A 
HETATM   22  C13 UNL     1      24.471   2.688  53.018  1.00  0.00     0.050 A 
BRANCH  21  23
HETATM   23  N5  UNL     1      23.623   5.302  52.313  1.00  0.00    -0.077 NA
HETATM   24  O1  UNL     1      23.455   6.147  51.386  1.00  0.00    -0.059 OA
ENDBRANCH  21  23
ENDBRANCH   7  13
TORSDOF 2
ENDMDL
MODEL 4
REMARK VINA RESULT:      -8.2      3.671      6.641
REMARK  2 active torsions:
REMARK  status: ('A' for Active; 'I' for Inactive)
REMARK    1  A    between atoms: N2_7  and  C6_8 
REMARK    2  A    between atoms: C11_15  and  N5_16 
ROOT
HETATM    1  C1  UNL     1      25.086   8.373  50.192  1.00  0.00     0.027 C 
HETATM    2  C2  UNL     1      24.040   7.326  50.542  1.00  0.00     0.069 C 
HETATM    3  C3  UNL     1      22.704   7.995  50.201  1.00  0.00     0.022 C 
HETATM    4  C4  UNL     1      21.544   7.194  50.744  1.00  0.00     0.018 C 
HETATM    5  C5  UNL     1      21.611   5.748  50.354  1.00  0.00     0.112 C 
HETATM    6  N1  UNL     1      21.753   4.959  51.559  1.00  0.00    -0.222 NA
HETATM    7  N2  UNL     1      23.073   4.924  52.021  1.00  0.00    -0.227 N 
HETATM    8  N6  UNL     1      24.217   5.680  52.245  1.00  0.00    -0.153 NA
HETATM    9  N7  UNL     1      24.139   7.010  51.924  1.00  0.00    -0.238 NA
HETATM   10  H11 UNL     1      21.059   5.211  52.277  1.00  0.00     0.148 HD
HETATM   11  H16 UNL     1      24.369   5.647  53.297  1.00  0.00     0.168 HD
HETATM   12  H17 UNL     1      24.957   7.479  52.391  1.00  0.00     0.142 HD
ENDROOT
BRANCH   7  13
HETATM   13  C6  UNL     1      23.336   3.572  52.416  1.00  0.00     0.066 A 
HETATM   14  C7  UNL     1      22.355   2.587  52.321  1.00  0.00     0.035 A 
HETATM   15  C8  UNL     1      22.581   1.269  52.695  1.00  0.00     0.035 A 
HETATM   16  C9  UNL     1      23.819   0.903  53.182  1.00  0.00     0.072 A 
HETATM   17  N3  UNL     1      23.997  -0.383  53.534  1.00  0.00    -0.241 NA
HETATM   18  C12 UNL     1      24.809   1.854  53.288  1.00  0.00     0.045 A 
HETATM   19  C10 UNL     1      25.214  -0.768  54.019  1.00  0.00     0.236 A 
HETATM   20  N4  UNL     1      26.185   0.165  54.123  1.00  0.00    -0.220 NA
HETATM   21  C11 UNL     1      26.031   1.443  53.780  1.00  0.00     0.193 A 
HETATM   22  C13 UNL     1      24.563   3.140  52.914  1.00  0.00     0.050 A 
BRANCH  21  23
HETATM   23  N5  UNL     1      27.104   2.376  53.918  1.00  0.00    -0.077 NA
HETATM   24  O1  UNL     1      28.134   1.924  54.498  1.00  0.00    -0.059 OA
ENDBRANCH  21  23
ENDBRANCH   7  13
TORSDOF 2
ENDMDL
MODEL 5
REMARK VINA RESULT:      -8.0      2.517      6.593
REMARK  2 active torsions:
REMARK  status: ('A' for Active; 'I' for Inactive)
REMARK    1  A    between atoms: N2_7  and  C6_8 
REMARK    2  A    between atoms: C11_15  and  N5_16 
ROOT
HETATM    1  C1  UNL     1      21.361   1.605  48.363  1.00  0.00     0.027 C 
HETATM    2  C2  UNL     1      21.720   1.198  49.784  1.00  0.00     0.069 C 
HETATM    3  C3  UNL     1      20.402   0.686  50.377  1.00  0.00     0.022 C 
HETATM    4  C4  UNL     1      20.519   0.497  51.871  1.00  0.00     0.018 C 
HETATM    5  C5  UNL     1      21.712  -0.327  52.254  1.00  0.00     0.112 C 
HETATM    6  N1  UNL     1      22.601   0.502  53.041  1.00  0.00    -0.222 NA
HETATM    7  N2  UNL     1      23.396   1.336  52.247  1.00  0.00    -0.227 N 
HETATM    8  N6  UNL     1      23.406   2.176  51.141  1.00  0.00    -0.153 NA
HETATM    9  N7  UNL     1      22.213   2.332  50.485  1.00  0.00    -0.238 NA
HETATM   10  H11 UNL     1      22.110   0.987  53.806  1.00  0.00     0.148 HD
HETATM   11  H16 UNL     1      23.649   3.137  51.527  1.00  0.00     0.168 HD
HETATM   12  H17 UNL     1      22.319   3.177  49.867  1.00  0.00     0.142 HD
ENDROOT
BRANCH   7  13
HETATM   13  C6  UNL     1      24.716   1.298  52.803  1.00  0.00     0.066 A 
HETATM   14  C7  UNL     1      25.286   2.427  53.389  1.00  0.00     0.035 A 
HETATM   15  C8  UNL     1      26.563   2.421  53.936  1.00  0.00     0.035 A 
HETATM   16  C9  UNL     1      27.309   1.262  53.905  1.00  0.00     0.072 A 
HETATM   17  N3  UNL     1      28.542   1.298  54.445  1.00  0.00    -0.241 NA
HETATM   18  C12 UNL     1      26.774   0.130  53.332  1.00  0.00     0.045 A 
HETATM   19  C10 UNL     1      29.299   0.163  54.425  1.00  0.00     0.236 A 
HETATM   20  N4  UNL     1      28.774  -0.948  53.864  1.00  0.00    -0.220 NA
HETATM   21  C11 UNL     1      27.557  -1.006  53.324  1.00  0.00     0.193 A 
HETATM   22  C13 UNL     1      25.520   0.161  52.803  1.00  0.00     0.050 A 
BRANCH  21  23
HETATM   23  N5  UNL     1      27.066  -2.217  52.746  1.00  0.00    -0.077 NA
HETATM   24  O1  UNL     1      27.899  -3.169  52.712  1.00  0.00    -0.059 OA
ENDBRANCH  21  23
ENDBRANCH   7  13
TORSDOF 2
ENDMDL
MODEL 6
REMARK VINA RESULT:      -7.5      2.274      6.591
REMARK  2 active torsions:
REMARK  status: ('A' for Active; 'I' for Inactive)
REMARK    1  A    between atoms: N2_7  and  C6_8 
REMARK    2  A    between atoms: C11_15  and  N5_16 
ROOT
HETATM    1  C1  UNL     1      20.573   2.264  48.020  1.00  0.00     0.027 C 
HETATM    2  C2  UNL     1      21.042   1.753  49.373  1.00  0.00     0.069 C 
HETATM    3  C3  UNL     1      19.760   1.272  50.062  1.00  0.00     0.022 C 
HETATM    4  C4  UNL     1      20.007   0.984  51.524  1.00  0.00     0.018 C 
HETATM    5  C5  UNL     1      21.183   0.080  51.741  1.00  0.00     0.112 C 
HETATM    6  N1  UNL     1      22.188   0.812  52.482  1.00  0.00    -0.222 NA
HETATM    7  N2  UNL     1      22.950   1.652  51.663  1.00  0.00    -0.227 N 
HETATM    8  N6  UNL     1      22.902   2.558  50.611  1.00  0.00    -0.153 NA
HETATM    9  N7  UNL     1      21.663   2.814  50.085  1.00  0.00    -0.238 NA
HETATM   10  H11 UNL     1      21.801   1.272  53.318  1.00  0.00     0.148 HD
HETATM   11  H16 UNL     1      23.235   3.480  51.025  1.00  0.00     0.168 HD
HETATM   12  H17 UNL     1      21.757   3.690  49.509  1.00  0.00     0.142 HD
ENDROOT
BRANCH   7  13
HETATM   13  C6  UNL     1      24.313   1.513  52.083  1.00  0.00     0.066 A 
HETATM   14  C7  UNL     1      25.340   2.206  51.445  1.00  0.00     0.035 A 
HETATM   15  C8  UNL     1      26.669   2.092  51.829  1.00  0.00     0.035 A 
HETATM   16  C9  UNL     1      27.004   1.265  52.881  1.00  0.00     0.072 A 
HETATM   17  N3  UNL     1      28.303   1.182  53.223  1.00  0.00    -0.241 NA
HETATM   18  C12 UNL     1      26.011   0.566  53.531  1.00  0.00     0.045 A 
HETATM   19  C10 UNL     1      28.657   0.369  54.260  1.00  0.00     0.236 A 
HETATM   20  N4  UNL     1      27.684  -0.316  54.898  1.00  0.00    -0.220 NA
HETATM   21  C11 UNL     1      26.392  -0.249  54.578  1.00  0.00     0.193 A 
HETATM   22  C13 UNL     1      24.714   0.695  53.136  1.00  0.00     0.050 A 
BRANCH  21  23
HETATM   23  N5  UNL     1      25.415  -1.003  55.298  1.00  0.00    -0.077 NA
HETATM   24  O1  UNL     1      25.543  -0.980  56.557  1.00  0.00    -0.059 OA
ENDBRANCH  21  23
ENDBRANCH   7  13
TORSDOF 2
ENDMDL
MODEL 7
REMARK VINA RESULT:      -7.4      3.967      6.710
REMARK  2 active torsions:
REMARK  status: ('A' for Active; 'I' for Inactive)
REMARK    1  A    between atoms: N2_7  and  C6_8 
REMARK    2  A    between atoms: C11_15  and  N5_16 
ROOT
HETATM    1  C1  UNL     1      21.810   6.359  48.066  1.00  0.00     0.027 C 
HETATM    2  C2  UNL     1      23.082   5.894  48.758  1.00  0.00     0.069 C 
HETATM    3  C3  UNL     1      24.165   6.849  48.242  1.00  0.00     0.022 C 
HETATM    4  C4  UNL     1      25.543   6.358  48.618  1.00  0.00     0.018 C 
HETATM    5  C5  UNL     1      25.662   6.045  50.080  1.00  0.00     0.112 C 
HETATM    6  N1  UNL     1      25.933   4.629  50.220  1.00  0.00    -0.222 NA
HETATM    7  N2  UNL     1      24.775   3.852  50.119  1.00  0.00    -0.227 N 
HETATM    8  N6  UNL     1      23.587   3.671  49.422  1.00  0.00    -0.153 NA
HETATM    9  N7  UNL     1      23.346   4.546  48.395  1.00  0.00    -0.238 NA
HETATM   10  H11 UNL     1      26.708   4.317  49.617  1.00  0.00     0.148 HD
HETATM   11  H16 UNL     1      23.676   2.713  48.968  1.00  0.00     0.168 HD
HETATM   12  H17 UNL     1      22.576   4.123  47.816  1.00  0.00     0.142 HD
ENDROOT
BRANCH   7  13
HETATM   13  C6  UNL     1      24.859   2.852  51.143  1.00  0.00     0.066 A 
HETATM   14  C7  UNL     1      23.815   1.956  51.365  1.00  0.00     0.035 A 
HETATM   15  C8  UNL     1      23.867   0.978  52.350  1.00  0.00     0.035 A 
HETATM   16  C9  UNL     1      24.988   0.876  53.147  1.00  0.00     0.072 A 
HETATM   17  N3  UNL     1      24.999  -0.085  54.089  1.00  0.00    -0.241 NA
HETATM   18  C12 UNL     1      26.036   1.748  52.952  1.00  0.00     0.045 A 
HETATM   19  C10 UNL     1      26.098  -0.204  54.891  1.00  0.00     0.236 A 
HETATM   20  N4  UNL     1      27.126   0.650  54.699  1.00  0.00    -0.220 NA
HETATM   21  C11 UNL     1      27.136   1.608  53.773  1.00  0.00     0.193 A 
HETATM   22  C13 UNL     1      25.961   2.698  51.980  1.00  0.00     0.050 A 
BRANCH  21  23
HETATM   23  N5  UNL     1      28.260   2.478  53.627  1.00  0.00    -0.077 NA
HETATM   24  O1  UNL     1      29.074   2.467  54.597  1.00  0.00    -0.059 OA
ENDBRANCH  21  23
ENDBRANCH   7  13
TORSDOF 2
ENDMDL
MODEL 8
REMARK VINA RESULT:      -7.4      3.202      5.062
REMARK  2 active torsions:
REMARK  status: ('A' for Active; 'I' for Inactive)
REMARK    1  A    between atoms: N2_7  and  C6_8 
REMARK    2  A    between atoms: C11_15  and  N5_16 
ROOT
HETATM    1  C1  UNL     1      27.240   4.685  48.942  1.00  0.00     0.027 C 
HETATM    2  C2  UNL     1      25.777   4.646  49.354  1.00  0.00     0.069 C 
HETATM    3  C3  UNL     1      25.155   5.866  48.663  1.00  0.00     0.022 C 
HETATM    4  C4  UNL     1      23.764   6.134  49.186  1.00  0.00     0.018 C 
HETATM    5  C5  UNL     1      22.893   4.914  49.153  1.00  0.00     0.112 C 
HETATM    6  N1  UNL     1      22.533   4.576  50.514  1.00  0.00    -0.222 NA
HETATM    7  N2  UNL     1      23.545   3.870  51.174  1.00  0.00    -0.227 N 
HETATM    8  N6  UNL     1      24.915   3.792  51.395  1.00  0.00    -0.153 NA
HETATM    9  N7  UNL     1      25.686   4.735  50.770  1.00  0.00    -0.238 NA
HETATM   10  H11 UNL     1      22.172   5.387  51.037  1.00  0.00     0.148 HD
HETATM   11  H16 UNL     1      25.037   3.965  52.437  1.00  0.00     0.168 HD
HETATM   12  H17 UNL     1      26.629   4.711  51.239  1.00  0.00     0.142 HD
ENDROOT
BRANCH   7  13
HETATM   13  C6  UNL     1      22.905   2.817  51.904  1.00  0.00     0.066 A 
HETATM   14  C7  UNL     1      21.517   2.757  52.019  1.00  0.00     0.035 A 
HETATM   15  C8  UNL     1      20.869   1.749  52.720  1.00  0.00     0.035 A 
HETATM   16  C9  UNL     1      21.611   0.761  53.333  1.00  0.00     0.072 A 
HETATM   17  N3  UNL     1      20.945  -0.198  54.002  1.00  0.00    -0.241 NA
HETATM   18  C12 UNL     1      22.985   0.793  53.237  1.00  0.00     0.045 A 
HETATM   19  C10 UNL     1      21.660  -1.186  54.617  1.00  0.00     0.236 A 
HETATM   20  N4  UNL     1      23.006  -1.155  54.523  1.00  0.00    -0.220 NA
HETATM   21  C11 UNL     1      23.686  -0.216  53.865  1.00  0.00     0.193 A 
HETATM   22  C13 UNL     1      23.598   1.792  52.544  1.00  0.00     0.050 A 
BRANCH  21  23
HETATM   23  N5  UNL     1      25.114  -0.246  53.808  1.00  0.00    -0.077 NA
HETATM   24  O1  UNL     1      25.602  -1.189  53.120  1.00  0.00    -0.059 OA
ENDBRANCH  21  23
ENDBRANCH   7  13
TORSDOF 2
ENDMDL
MODEL 9
REMARK VINA RESULT:      -7.2      2.475      7.060
REMARK  2 active torsions:
REMARK  status: ('A' for Active; 'I' for Inactive)
REMARK    1  A    between atoms: N2_7  and  C6_8 
REMARK    2  A    between atoms: C11_15  and  N5_16 
ROOT
HETATM    1  C1  UNL     1      19.441   1.065  50.076  1.00  0.00     0.027 C 
HETATM    2  C2  UNL     1      20.155   0.518  51.302  1.00  0.00     0.069 C 
HETATM    3  C3  UNL     1      19.043  -0.147  52.123  1.00  0.00     0.022 C 
HETATM    4  C4  UNL     1      19.532  -0.503  53.507  1.00  0.00     0.018 C 
HETATM    5  C5  UNL     1      20.811  -1.285  53.481  1.00  0.00     0.112 C 
HETATM    6  N1  UNL     1      21.837  -0.497  54.132  1.00  0.00    -0.222 NA
HETATM    7  N2  UNL     1      22.381   0.475  53.286  1.00  0.00    -0.227 N 
HETATM    8  N6  UNL     1      22.087   1.439  52.330  1.00  0.00    -0.153 NA
HETATM    9  N7  UNL     1      20.765   1.591  52.006  1.00  0.00    -0.238 NA
HETATM   10  H11 UNL     1      21.533  -0.140  55.049  1.00  0.00     0.148 HD
HETATM   11  H16 UNL     1      22.384   2.362  52.768  1.00  0.00     0.168 HD
HETATM   12  H17 UNL     1      20.685   2.509  51.497  1.00  0.00     0.142 HD
ENDROOT
BRANCH   7  13
HETATM   13  C6  UNL     1      23.798   0.460  53.498  1.00  0.00     0.066 A 
HETATM   14  C7  UNL     1      24.383  -0.412  54.414  1.00  0.00     0.035 A 
HETATM   15  C8  UNL     1      25.752  -0.449  54.641  1.00  0.00     0.035 A 
HETATM   16  C9  UNL     1      26.580   0.404  53.942  1.00  0.00     0.072 A 
HETATM   17  N3  UNL     1      27.901   0.337  54.191  1.00  0.00    -0.241 NA
HETATM   18  C12 UNL     1      26.032   1.279  53.030  1.00  0.00     0.045 A 
HETATM   19  C10 UNL     1      28.739   1.173  53.511  1.00  0.00     0.236 A 
HETATM   20  N4  UNL     1      28.202   2.030  52.616  1.00  0.00    -0.220 NA
HETATM   21  C11 UNL     1      26.898   2.113  52.354  1.00  0.00     0.193 A 
HETATM   22  C13 UNL     1      24.686   1.296  52.825  1.00  0.00     0.050 A 
BRANCH  21  23
HETATM   23  N5  UNL     1      26.399   3.046  51.393  1.00  0.00    -0.077 NA
HETATM   24  O1  UNL     1      27.097   3.157  50.343  1.00  0.00    -0.059 OA
ENDBRANCH  21  23
ENDBRANCH   7  13
TORSDOF 2
ENDMDL
