MODEL 1
REMARK VINA RESULT:      -8.6      0.000      0.000
REMARK  3 active torsions:
REMARK  status: ('A' for Active; 'I' for Inactive)
REMARK    1  A    between atoms: N1_1  and  C1_2 
REMARK    2  A    between atoms: C3_5  and  N3_6 
REMARK    3  A    between atoms: N3_6  and  C4_7 
ROOT
HETATM    1  C1  UNL     1      21.660   2.331  51.571  1.00  0.00     0.159 C 
HETATM    2  C2  UNL     1      21.631   3.553  52.037  1.00  0.00     0.176 C 
HETATM    3  N2  UNL     1      22.248   4.603  51.312  1.00  0.00    -0.217 NA
HETATM    4  C3  UNL     1      23.590   4.601  51.275  1.00  0.00     0.247 C 
HETATM    5  O1  UNL     1      24.302   3.627  51.903  1.00  0.00    -0.301 OA
HETATM    6  C10 UNL     1      24.285   3.170  53.207  1.00  0.00     0.296 C 
HETATM    7  N4  UNL     1      24.994   1.932  53.258  1.00  0.00    -0.397 N 
HETATM    8  C11 UNL     1      24.478   0.826  52.552  1.00  0.00     0.157 C 
HETATM    9  C12 UNL     1      23.242   0.209  53.024  1.00  0.00    -0.007 A 
HETATM   10  C13 UNL     1      23.504  -0.603  54.137  1.00  0.00     0.011 A 
HETATM   11  C14 UNL     1      22.576  -1.352  54.836  1.00  0.00     0.001 A 
HETATM   12  C15 UNL     1      21.263  -1.318  54.427  1.00  0.00     0.003 A 
HETATM   13  C16 UNL     1      20.970  -0.530  53.337  1.00  0.00     0.038 A 
HETATM   14  C17 UNL     1      21.910   0.206  52.659  1.00  0.00     0.085 A 
HETATM   15  O2  UNL     1      21.404   0.953  51.569  1.00  0.00    -0.292 OA
HETATM   16  H10 UNL     1      26.023   1.999  53.264  1.00  0.00     0.155 HD
ENDROOT
BRANCH   4  17
HETATM   17  N3  UNL     1      24.143   5.676  50.540  1.00  0.00    -0.321 N 
HETATM   18  H4  UNL     1      23.589   6.557  50.536  1.00  0.00     0.169 HD
BRANCH  17  19
HETATM   19  C4  UNL     1      25.373   5.536  49.852  1.00  0.00     0.037 A 
HETATM   20  C5  UNL     1      26.066   4.396  49.585  1.00  0.00     0.032 A 
HETATM   21  C6  UNL     1      27.257   4.350  48.917  1.00  0.00     0.046 A 
HETATM   22  C7  UNL     1      27.838   5.511  48.461  1.00  0.00     0.138 A 
HETATM   23  F1  UNL     1      29.022   5.462  47.797  1.00  0.00    -0.204 F 
HETATM   24  C8  UNL     1      27.179   6.700  48.705  1.00  0.00     0.074 A 
HETATM   25 CL1  UNL     1      27.884   8.220  48.140  1.00  0.00    -0.081 Cl
HETATM   26  C9  UNL     1      25.967   6.692  49.390  1.00  0.00     0.056 A 
ENDBRANCH  17  19
ENDBRANCH   4  17
BRANCH   1  27
HETATM   27  N1  UNL     1      22.376   2.703  50.417  1.00  0.00    -0.379 N 
HETATM   28  H1  UNL     1      23.046   2.884  49.626  1.00  0.00     0.158 HD
HETATM   29  H2  UNL     1      22.757   3.062  49.520  1.00  0.00     0.158 HD
ENDBRANCH   1  27
TORSDOF 3
ENDMDL
MODEL 2
REMARK VINA RESULT:      -8.2      3.580      6.473
REMARK  3 active torsions:
REMARK  status: ('A' for Active; 'I' for Inactive)
REMARK    1  A    between atoms: N1_1  and  C1_2 
REMARK    2  A    between atoms: C3_5  and  N3_6 
REMARK    3  A    between atoms: N3_6  and  C4_7 
ROOT
HETATM    1  C1  UNL     1      22.294   3.167  50.500  1.00  0.00     0.159 C 
HETATM    2  C2  UNL     1      22.883   2.011  50.339  1.00  0.00     0.176 C 
HETATM    3  N2  UNL     1      23.348   1.288  51.467  1.00  0.00    -0.217 NA
HETATM    4  C3  UNL     1      24.414   1.793  52.106  1.00  0.00     0.247 C 
HETATM    5  O1  UNL     1      25.001   2.944  51.682  1.00  0.00    -0.301 OA
HETATM    6  C10 UNL     1      25.495   3.325  50.449  1.00  0.00     0.296 C 
HETATM    7  N4  UNL     1      25.709   4.736  50.468  1.00  0.00    -0.397 N 
HETATM    8  C11 UNL     1      24.596   5.589  50.615  1.00  0.00     0.157 C 
HETATM    9  C12 UNL     1      23.639   5.685  49.517  1.00  0.00    -0.007 A 
HETATM   10  C13 UNL     1      24.154   6.505  48.501  1.00  0.00     0.011 A 
HETATM   11  C14 UNL     1      23.518   6.833  47.318  1.00  0.00     0.001 A 
HETATM   12  C15 UNL     1      22.262   6.322  47.084  1.00  0.00     0.003 A 
HETATM   13  C16 UNL     1      21.728   5.513  48.060  1.00  0.00     0.038 A 
HETATM   14  C17 UNL     1      22.378   5.201  49.227  1.00  0.00     0.085 A 
HETATM   15  O2  UNL     1      21.657   4.350  50.098  1.00  0.00    -0.292 OA
HETATM   16  H10 UNL     1      26.565   5.059  50.944  1.00  0.00     0.155 HD
ENDROOT
BRANCH   4  17
HETATM   17  N3  UNL     1      24.830   1.023  53.219  1.00  0.00    -0.321 N 
HETATM   18  H4  UNL     1      24.115   0.872  53.961  1.00  0.00     0.169 HD
BRANCH  17  19
HETATM   19  C4  UNL     1      26.146   0.508  53.302  1.00  0.00     0.037 A 
HETATM   20  C5  UNL     1      26.595  -0.723  52.934  1.00  0.00     0.032 A 
HETATM   21  C6  UNL     1      27.889  -1.146  53.055  1.00  0.00     0.046 A 
HETATM   22  C7  UNL     1      28.842  -0.305  53.582  1.00  0.00     0.138 A 
HETATM   23  F1  UNL     1      30.128  -0.728  53.702  1.00  0.00    -0.204 F 
HETATM   24  C8  UNL     1      28.443   0.957  53.975  1.00  0.00     0.074 A 
HETATM   25 CL1  UNL     1      29.631   2.075  54.658  1.00  0.00    -0.081 Cl
HETATM   26  C9  UNL     1      27.112   1.339  53.829  1.00  0.00     0.056 A 
ENDBRANCH  17  19
ENDBRANCH   4  17
BRANCH   1  27
HETATM   27  N1  UNL     1      22.414   3.123  51.903  1.00  0.00    -0.379 N 
HETATM   28  H1  UNL     1      22.451   3.262  52.946  1.00  0.00     0.158 HD
HETATM   29  H2  UNL     1      22.550   2.922  52.913  1.00  0.00     0.158 HD
ENDBRANCH   1  27
TORSDOF 3
ENDMDL
MODEL 3
REMARK VINA RESULT:      -8.2      4.786      7.337
REMARK  3 active torsions:
REMARK  status: ('A' for Active; 'I' for Inactive)
REMARK    1  A    between atoms: N1_1  and  C1_2 
REMARK    2  A    between atoms: C3_5  and  N3_6 
REMARK    3  A    between atoms: N3_6  and  C4_7 
ROOT
HETATM    1  C1  UNL     1      26.019   2.647  52.961  1.00  0.00     0.159 C 
HETATM    2  C2  UNL     1      25.300   2.551  51.873  1.00  0.00     0.176 C 
HETATM    3  N2  UNL     1      23.913   2.842  51.912  1.00  0.00    -0.217 NA
HETATM    4  C3  UNL     1      23.133   1.963  52.560  1.00  0.00     0.247 C 
HETATM    5  O1  UNL     1      23.665   0.860  53.149  1.00  0.00    -0.301 OA
HETATM    6  C10 UNL     1      24.476  -0.145  52.657  1.00  0.00     0.296 C 
HETATM    7  N4  UNL     1      25.001  -0.880  53.762  1.00  0.00    -0.397 N 
HETATM    8  C11 UNL     1      25.863  -0.224  54.665  1.00  0.00     0.157 C 
HETATM    9  C12 UNL     1      27.194   0.161  54.208  1.00  0.00    -0.007 A 
HETATM   10  C13 UNL     1      28.039  -0.959  54.191  1.00  0.00     0.011 A 
HETATM   11  C14 UNL     1      29.373  -0.968  53.827  1.00  0.00     0.001 A 
HETATM   12  C15 UNL     1      29.956   0.217  53.439  1.00  0.00     0.003 A 
HETATM   13  C16 UNL     1      29.154   1.335  53.443  1.00  0.00     0.038 A 
HETATM   14  C17 UNL     1      27.832   1.320  53.808  1.00  0.00     0.085 A 
HETATM   15  O2  UNL     1      27.183   2.576  53.740  1.00  0.00    -0.292 OA
HETATM   16  H10 UNL     1      24.364  -1.566  54.195  1.00  0.00     0.155 HD
ENDROOT
BRANCH   4  17
HETATM   17  N3  UNL     1      21.761   2.309  52.559  1.00  0.00    -0.321 N 
HETATM   18  H4  UNL     1      21.547   3.328  52.533  1.00  0.00     0.169 HD
BRANCH  17  19
HETATM   19  C4  UNL     1      20.754   1.314  52.599  1.00  0.00     0.037 A 
HETATM   20  C5  UNL     1      20.526   0.383  53.566  1.00  0.00     0.032 A 
HETATM   21  C6  UNL     1      19.530  -0.552  53.524  1.00  0.00     0.046 A 
HETATM   22  C7  UNL     1      18.672  -0.598  52.449  1.00  0.00     0.138 A 
HETATM   23  F1  UNL     1      17.683  -1.528  52.411  1.00  0.00    -0.204 F 
HETATM   24  C8  UNL     1      18.857   0.323  51.438  1.00  0.00     0.074 A 
HETATM   25 CL1  UNL     1      17.780   0.306  50.035  1.00  0.00    -0.081 Cl
HETATM   26  C9  UNL     1      19.887   1.256  51.529  1.00  0.00     0.056 A 
ENDBRANCH  17  19
ENDBRANCH   4  17
BRANCH   1  27
HETATM   27  N1  UNL     1      24.924   3.058  53.744  1.00  0.00    -0.379 N 
HETATM   28  H1  UNL     1      24.004   3.302  54.195  1.00  0.00     0.158 HD
HETATM   29  H2  UNL     1      24.238   3.414  54.438  1.00  0.00     0.158 HD
ENDBRANCH   1  27
TORSDOF 3
ENDMDL
MODEL 4
REMARK VINA RESULT:      -8.1      3.647      6.545
REMARK  3 active torsions:
REMARK  status: ('A' for Active; 'I' for Inactive)
REMARK    1  A    between atoms: N1_1  and  C1_2 
REMARK    2  A    between atoms: C3_5  and  N3_6 
REMARK    3  A    between atoms: N3_6  and  C4_7 
ROOT
HETATM    1  C1  UNL     1      24.286   4.510  51.105  1.00  0.00     0.159 C 
HETATM    2  C2  UNL     1      23.614   4.255  52.197  1.00  0.00     0.176 C 
HETATM    3  N2  UNL     1      24.042   3.221  53.068  1.00  0.00    -0.217 NA
HETATM    4  C3  UNL     1      23.889   1.963  52.627  1.00  0.00     0.247 C 
HETATM    5  O1  UNL     1      23.356   1.713  51.401  1.00  0.00    -0.301 OA
HETATM    6  C10 UNL     1      22.173   2.117  50.813  1.00  0.00     0.296 C 
HETATM    7  N4  UNL     1      22.249   1.842  49.415  1.00  0.00    -0.397 N 
HETATM    8  C11 UNL     1      23.210   2.524  48.640  1.00  0.00     0.157 C 
HETATM    9  C12 UNL     1      23.037   3.955  48.412  1.00  0.00    -0.007 A 
HETATM   10  C13 UNL     1      22.064   4.170  47.424  1.00  0.00     0.011 A 
HETATM   11  C14 UNL     1      21.651   5.398  46.941  1.00  0.00     0.001 A 
HETATM   12  C15 UNL     1      22.227   6.535  47.459  1.00  0.00     0.003 A 
HETATM   13  C16 UNL     1      23.185   6.360  48.431  1.00  0.00     0.038 A 
HETATM   14  C17 UNL     1      23.579   5.130  48.895  1.00  0.00     0.085 A 
HETATM   15  O2  UNL     1      24.575   5.167  49.900  1.00  0.00    -0.292 OA
HETATM   16  H10 UNL     1      22.087   0.862  49.136  1.00  0.00     0.155 HD
ENDROOT
BRANCH   4  17
HETATM   17  N3  UNL     1      24.331   0.979  53.543  1.00  0.00    -0.321 N 
HETATM   18  H4  UNL     1      23.677   0.754  54.321  1.00  0.00     0.169 HD
BRANCH  17  19
HETATM   19  C4  UNL     1      25.595   0.358  53.397  1.00  0.00     0.037 A 
HETATM   20  C5  UNL     1      25.884  -0.846  52.833  1.00  0.00     0.032 A 
HETATM   21  C6  UNL     1      27.139  -1.379  52.739  1.00  0.00     0.046 A 
HETATM   22  C7  UNL     1      28.221  -0.688  53.235  1.00  0.00     0.138 A 
HETATM   23  F1  UNL     1      29.467  -1.220  53.140  1.00  0.00    -0.204 F 
HETATM   24  C8  UNL     1      27.987   0.540  53.820  1.00  0.00     0.074 A 
HETATM   25 CL1  UNL     1      29.344   1.468  54.473  1.00  0.00    -0.081 Cl
HETATM   26  C9  UNL     1      26.688   1.039  53.890  1.00  0.00     0.056 A 
ENDBRANCH  17  19
ENDBRANCH   4  17
BRANCH   1  27
HETATM   27  N1  UNL     1      25.241   3.508  51.363  1.00  0.00    -0.379 N 
HETATM   28  H1  UNL     1      26.058   2.848  51.439  1.00  0.00     0.158 HD
HETATM   29  H2  UNL     1      25.824   2.702  51.662  1.00  0.00     0.158 HD
ENDBRANCH   1  27
TORSDOF 3
ENDMDL
MODEL 5
REMARK VINA RESULT:      -8.1      9.136     10.969
REMARK  3 active torsions:
REMARK  status: ('A' for Active; 'I' for Inactive)
REMARK    1  A    between atoms: N1_1  and  C1_2 
REMARK    2  A    between atoms: C3_5  and  N3_6 
REMARK    3  A    between atoms: N3_6  and  C4_7 
ROOT
HETATM    1  C1  UNL     1      32.126   7.393  46.406  1.00  0.00     0.159 C 
HETATM    2  C2  UNL     1      30.855   7.204  46.646  1.00  0.00     0.176 C 
HETATM    3  N2  UNL     1      30.157   8.089  47.507  1.00  0.00    -0.217 NA
HETATM    4  C3  UNL     1      30.460   8.021  48.813  1.00  0.00     0.247 C 
HETATM    5  O1  UNL     1      31.397   7.145  49.266  1.00  0.00    -0.301 OA
HETATM    6  C10 UNL     1      31.531   5.779  49.111  1.00  0.00     0.296 C 
HETATM    7  N4  UNL     1      32.849   5.408  49.515  1.00  0.00    -0.397 N 
HETATM    8  C11 UNL     1      33.947   5.897  48.777  1.00  0.00     0.157 C 
HETATM    9  C12 UNL     1      34.155   5.400  47.421  1.00  0.00    -0.007 A 
HETATM   10  C13 UNL     1      34.731   4.121  47.460  1.00  0.00     0.011 A 
HETATM   11  C14 UNL     1      35.080   3.351  46.367  1.00  0.00     0.001 A 
HETATM   12  C15 UNL     1      34.855   3.857  45.107  1.00  0.00     0.003 A 
HETATM   13  C16 UNL     1      34.290   5.110  45.032  1.00  0.00     0.038 A 
HETATM   14  C17 UNL     1      33.951   5.856  46.133  1.00  0.00     0.085 A 
HETATM   15  O2  UNL     1      33.379   7.117  45.840  1.00  0.00    -0.292 OA
HETATM   16  H10 UNL     1      33.009   5.338  50.531  1.00  0.00     0.155 HD
ENDROOT
BRANCH   4  17
HETATM   17  N3  UNL     1      29.727   8.925  49.617  1.00  0.00    -0.321 N 
HETATM   18  H4  UNL     1      29.322   8.532  50.492  1.00  0.00     0.169 HD
BRANCH  17  19
HETATM   19  C4  UNL     1      29.559  10.278  49.232  1.00  0.00     0.037 A 
HETATM   20  C5  UNL     1      30.505  11.250  49.132  1.00  0.00     0.032 A 
HETATM   21  C6  UNL     1      30.256  12.541  48.757  1.00  0.00     0.046 A 
HETATM   22  C7  UNL     1      28.973  12.934  48.449  1.00  0.00     0.138 A 
HETATM   23  F1  UNL     1      28.729  14.217  48.076  1.00  0.00    -0.204 F 
HETATM   24  C8  UNL     1      27.972  11.987  48.533  1.00  0.00     0.074 A 
HETATM   25 CL1  UNL     1      26.307  12.442  48.146  1.00  0.00    -0.081 Cl
HETATM   26  C9  UNL     1      28.280  10.686  48.920  1.00  0.00     0.056 A 
ENDBRANCH  17  19
ENDBRANCH   4  17
BRANCH   1  27
HETATM   27  N1  UNL     1      32.192   8.541  47.218  1.00  0.00    -0.379 N 
HETATM   28  H1  UNL     1      32.064   9.414  47.792  1.00  0.00     0.158 HD
HETATM   29  H2  UNL     1      32.411   9.349  47.833  1.00  0.00     0.158 HD
ENDBRANCH   1  27
TORSDOF 3
ENDMDL
MODEL 6
REMARK VINA RESULT:      -8.1      4.370      5.644
REMARK  3 active torsions:
REMARK  status: ('A' for Active; 'I' for Inactive)
REMARK    1  A    between atoms: N1_1  and  C1_2 
REMARK    2  A    between atoms: C3_5  and  N3_6 
REMARK    3  A    between atoms: N3_6  and  C4_7 
ROOT
HETATM    1  C1  UNL     1      21.284  -0.508  53.704  1.00  0.00     0.159 C 
HETATM    2  C2  UNL     1      22.317  -1.038  53.102  1.00  0.00     0.176 C 
HETATM    3  N2  UNL     1      23.545  -0.332  53.050  1.00  0.00    -0.217 NA
HETATM    4  C3  UNL     1      23.583   0.752  52.259  1.00  0.00     0.247 C 
HETATM    5  O1  UNL     1      22.486   1.140  51.556  1.00  0.00    -0.301 OA
HETATM    6  C10 UNL     1      21.670   0.459  50.672  1.00  0.00     0.296 C 
HETATM    7  N4  UNL     1      20.487   1.230  50.469  1.00  0.00    -0.397 N 
HETATM    8  C11 UNL     1      19.621   1.445  51.561  1.00  0.00     0.157 C 
HETATM    9  C12 UNL     1      18.867   0.313  52.090  1.00  0.00    -0.007 A 
HETATM   10  C13 UNL     1      17.773   0.032  51.258  1.00  0.00     0.011 A 
HETATM   11  C14 UNL     1      16.834  -0.963  51.455  1.00  0.00     0.001 A 
HETATM   12  C15 UNL     1      16.956  -1.772  52.561  1.00  0.00     0.003 A 
HETATM   13  C16 UNL     1      18.019  -1.524  53.399  1.00  0.00     0.038 A 
HETATM   14  C17 UNL     1      18.940  -0.530  53.182  1.00  0.00     0.085 A 
HETATM   15  O2  UNL     1      19.959  -0.443  54.160  1.00  0.00    -0.292 OA
HETATM   16  H10 UNL     1      20.571   2.029  49.821  1.00  0.00     0.155 HD
ENDROOT
BRANCH   4  17
HETATM   17  N3  UNL     1      24.837   1.407  52.248  1.00  0.00    -0.321 N 
HETATM   18  H4  UNL     1      24.825   2.408  51.959  1.00  0.00     0.169 HD
BRANCH  17  19
HETATM   19  C4  UNL     1      26.025   0.723  52.604  1.00  0.00     0.037 A 
HETATM   20  C5  UNL     1      26.349  -0.578  52.376  1.00  0.00     0.032 A 
HETATM   21  C6  UNL     1      27.522  -1.165  52.761  1.00  0.00     0.046 A 
HETATM   22  C7  UNL     1      28.474  -0.430  53.430  1.00  0.00     0.138 A 
HETATM   23  F1  UNL     1      29.638  -1.016  53.812  1.00  0.00    -0.204 F 
HETATM   24  C8  UNL     1      28.198   0.897  53.690  1.00  0.00     0.074 A 
HETATM   25 CL1  UNL     1      29.389   1.885  54.547  1.00  0.00    -0.081 Cl
HETATM   26  C9  UNL     1      26.987   1.447  53.275  1.00  0.00     0.056 A 
ENDBRANCH  17  19
ENDBRANCH   4  17
BRANCH   1  27
HETATM   27  N1  UNL     1      21.989   0.656  54.065  1.00  0.00    -0.379 N 
HETATM   28  H1  UNL     1      22.355   1.590  54.385  1.00  0.00     0.158 HD
HETATM   29  H2  UNL     1      22.652   1.427  54.276  1.00  0.00     0.158 HD
ENDBRANCH   1  27
TORSDOF 3
ENDMDL
MODEL 7
REMARK VINA RESULT:      -8.0      3.735      7.554
REMARK  3 active torsions:
REMARK  status: ('A' for Active; 'I' for Inactive)
REMARK    1  A    between atoms: N1_1  and  C1_2 
REMARK    2  A    between atoms: C3_5  and  N3_6 
REMARK    3  A    between atoms: N3_6  and  C4_7 
ROOT
HETATM    1  C1  UNL     1      22.531   4.883  51.970  1.00  0.00     0.159 C 
HETATM    2  C2  UNL     1      21.297   4.524  51.733  1.00  0.00     0.176 C 
HETATM    3  N2  UNL     1      20.875   3.202  52.026  1.00  0.00    -0.217 NA
HETATM    4  C3  UNL     1      21.357   2.229  51.238  1.00  0.00     0.247 C 
HETATM    5  O1  UNL     1      22.212   2.515  50.220  1.00  0.00    -0.301 OA
HETATM    6  C10 UNL     1      22.118   3.398  49.160  1.00  0.00     0.296 C 
HETATM    7  N4  UNL     1      23.412   3.535  48.575  1.00  0.00    -0.397 N 
HETATM    8  C11 UNL     1      24.447   4.108  49.343  1.00  0.00     0.157 C 
HETATM    9  C12 UNL     1      24.374   5.529  49.667  1.00  0.00    -0.007 A 
HETATM   10  C13 UNL     1      24.753   6.296  48.555  1.00  0.00     0.011 A 
HETATM   11  C14 UNL     1      24.817   7.676  48.500  1.00  0.00     0.001 A 
HETATM   12  C15 UNL     1      24.482   8.394  49.625  1.00  0.00     0.003 A 
HETATM   13  C16 UNL     1      24.103   7.673  50.734  1.00  0.00     0.038 A 
HETATM   14  C17 UNL     1      24.048   6.302  50.765  1.00  0.00     0.085 A 
HETATM   15  O2  UNL     1      23.631   5.753  52.001  1.00  0.00    -0.292 OA
HETATM   16  H10 UNL     1      23.712   2.771  47.950  1.00  0.00     0.155 HD
ENDROOT
BRANCH   4  17
HETATM   17  N3  UNL     1      20.895   0.936  51.580  1.00  0.00    -0.321 N 
HETATM   18  H4  UNL     1      20.147   0.544  50.971  1.00  0.00     0.169 HD
BRANCH  17  19
HETATM   19  C4  UNL     1      21.427   0.238  52.692  1.00  0.00     0.037 A 
HETATM   20  C5  UNL     1      20.757  -0.316  53.739  1.00  0.00     0.032 A 
HETATM   21  C6  UNL     1      21.351  -0.970  54.782  1.00  0.00     0.046 A 
HETATM   22  C7  UNL     1      22.720  -1.104  54.822  1.00  0.00     0.138 A 
HETATM   23  F1  UNL     1      23.307  -1.755  55.860  1.00  0.00    -0.204 F 
HETATM   24  C8  UNL     1      23.451  -0.560  53.785  1.00  0.00     0.074 A 
HETATM   25 CL1  UNL     1      25.214  -0.705  53.790  1.00  0.00    -0.081 Cl
HETATM   26  C9  UNL     1      22.797   0.096  52.746  1.00  0.00     0.056 A 
ENDBRANCH  17  19
ENDBRANCH   4  17
BRANCH   1  27
HETATM   27  N1  UNL     1      22.887   3.619  52.478  1.00  0.00    -0.379 N 
HETATM   28  H1  UNL     1      23.316   2.710  52.791  1.00  0.00     0.158 HD
HETATM   29  H2  UNL     1      22.983   2.679  52.909  1.00  0.00     0.158 HD
ENDBRANCH   1  27
TORSDOF 3
ENDMDL
MODEL 8
REMARK VINA RESULT:      -7.9      1.583      2.068
REMARK  3 active torsions:
REMARK  status: ('A' for Active; 'I' for Inactive)
REMARK    1  A    between atoms: N1_1  and  C1_2 
REMARK    2  A    between atoms: C3_5  and  N3_6 
REMARK    3  A    between atoms: N3_6  and  C4_7 
ROOT
HETATM    1  C1  UNL     1      21.933   3.291  50.905  1.00  0.00     0.159 C 
HETATM    2  C2  UNL     1      21.477   4.350  51.522  1.00  0.00     0.176 C 
HETATM    3  N2  UNL     1      21.937   5.639  51.151  1.00  0.00    -0.217 NA
HETATM    4  C3  UNL     1      23.204   5.941  51.474  1.00  0.00     0.247 C 
HETATM    5  O1  UNL     1      23.994   5.040  52.117  1.00  0.00    -0.301 OA
HETATM    6  C10 UNL     1      23.812   4.327  53.287  1.00  0.00     0.296 C 
HETATM    7  N4  UNL     1      24.795   3.294  53.340  1.00  0.00    -0.397 N 
HETATM    8  C11 UNL     1      24.762   2.275  52.366  1.00  0.00     0.157 C 
HETATM    9  C12 UNL     1      23.663   1.315  52.395  1.00  0.00    -0.007 A 
HETATM   10  C13 UNL     1      23.880   0.365  53.405  1.00  0.00     0.011 A 
HETATM   11  C14 UNL     1      23.054  -0.700  53.712  1.00  0.00     0.001 A 
HETATM   12  C15 UNL     1      21.904  -0.872  52.978  1.00  0.00     0.003 A 
HETATM   13  C16 UNL     1      21.660   0.043  51.979  1.00  0.00     0.038 A 
HETATM   14  C17 UNL     1      22.495   1.093  51.692  1.00  0.00     0.085 A 
HETATM   15  O2  UNL     1      22.061   1.922  50.630  1.00  0.00    -0.292 OA
HETATM   16  H10 UNL     1      25.742   3.584  53.630  1.00  0.00     0.155 HD
ENDROOT
BRANCH   4  17
HETATM   17  N3  UNL     1      23.599   7.242  51.080  1.00  0.00    -0.321 N 
HETATM   18  H4  UNL     1      23.225   8.025  51.656  1.00  0.00     0.169 HD
BRANCH  17  19
HETATM   19  C4  UNL     1      24.444   7.444  49.962  1.00  0.00     0.037 A 
HETATM   20  C5  UNL     1      24.389   8.435  49.031  1.00  0.00     0.032 A 
HETATM   21  C6  UNL     1      25.245   8.554  47.972  1.00  0.00     0.046 A 
HETATM   22  C7  UNL     1      26.249   7.631  47.790  1.00  0.00     0.138 A 
HETATM   23  F1  UNL     1      27.098   7.752  46.737  1.00  0.00    -0.204 F 
HETATM   24  C8  UNL     1      26.352   6.602  48.705  1.00  0.00     0.074 A 
HETATM   25 CL1  UNL     1      27.626   5.391  48.515  1.00  0.00    -0.081 Cl
HETATM   26  C9  UNL     1      25.455   6.527  49.767  1.00  0.00     0.056 A 
ENDBRANCH  17  19
ENDBRANCH   4  17
BRANCH   1  27
HETATM   27  N1  UNL     1      22.761   4.046  50.052  1.00  0.00    -0.379 N 
HETATM   28  H1  UNL     1      23.516   4.538  49.507  1.00  0.00     0.158 HD
HETATM   29  H2  UNL     1      23.221   4.656  49.348  1.00  0.00     0.158 HD
ENDBRANCH   1  27
TORSDOF 3
ENDMDL
MODEL 9
REMARK VINA RESULT:      -7.9      4.448      8.023
REMARK  3 active torsions:
REMARK  status: ('A' for Active; 'I' for Inactive)
REMARK    1  A    between atoms: N1_1  and  C1_2 
REMARK    2  A    between atoms: C3_5  and  N3_6 
REMARK    3  A    between atoms: N3_6  and  C4_7 
ROOT
HETATM    1  C1  UNL     1      24.720   2.804  50.348  1.00  0.00     0.159 C 
HETATM    2  C2  UNL     1      25.019   2.206  51.471  1.00  0.00     0.176 C 
HETATM    3  N2  UNL     1      24.075   1.350  52.092  1.00  0.00    -0.217 NA
HETATM    4  C3  UNL     1      23.000   1.939  52.640  1.00  0.00     0.247 C 
HETATM    5  O1  UNL     1      22.841   3.288  52.585  1.00  0.00    -0.301 OA
HETATM    6  C10 UNL     1      23.668   4.329  52.963  1.00  0.00     0.296 C 
HETATM    7  N4  UNL     1      23.156   5.536  52.400  1.00  0.00    -0.397 N 
HETATM    8  C11 UNL     1      23.134   5.674  50.997  1.00  0.00     0.157 C 
HETATM    9  C12 UNL     1      24.401   5.806  50.286  1.00  0.00    -0.007 A 
HETATM   10  C13 UNL     1      24.895   7.112  50.422  1.00  0.00     0.011 A 
HETATM   11  C14 UNL     1      26.064   7.603  49.871  1.00  0.00     0.001 A 
HETATM   12  C15 UNL     1      26.840   6.755  49.114  1.00  0.00     0.003 A 
HETATM   13  C16 UNL     1      26.385   5.466  48.961  1.00  0.00     0.038 A 
HETATM   14  C17 UNL     1      25.220   5.001  49.518  1.00  0.00     0.085 A 
HETATM   15  O2  UNL     1      24.933   3.643  49.244  1.00  0.00    -0.292 OA
HETATM   16  H10 UNL     1      22.352   5.960  52.888  1.00  0.00     0.155 HD
ENDROOT
BRANCH   4  17
HETATM   17  N3  UNL     1      22.099   1.032  53.247  1.00  0.00    -0.321 N 
HETATM   18  H4  UNL     1      22.390   0.651  54.172  1.00  0.00     0.169 HD
BRANCH  17  19
HETATM   19  C4  UNL     1      20.886   0.670  52.613  1.00  0.00     0.037 A 
HETATM   20  C5  UNL     1      20.377   1.133  51.439  1.00  0.00     0.032 A 
HETATM   21  C6  UNL     1      19.187   0.733  50.898  1.00  0.00     0.046 A 
HETATM   22  C7  UNL     1      18.412  -0.200  51.548  1.00  0.00     0.138 A 
HETATM   23  F1  UNL     1      17.230  -0.595  51.007  1.00  0.00    -0.204 F 
HETATM   24  C8  UNL     1      18.880  -0.705  52.744  1.00  0.00     0.074 A 
HETATM   25 CL1  UNL     1      17.921  -1.907  53.618  1.00  0.00    -0.081 Cl
HETATM   26  C9  UNL     1      20.099  -0.264  53.252  1.00  0.00     0.056 A 
ENDBRANCH  17  19
ENDBRANCH   4  17
BRANCH   1  27
HETATM   27  N1  UNL     1      23.438   2.223  50.287  1.00  0.00    -0.379 N 
HETATM   28  H1  UNL     1      22.441   1.899  50.379  1.00  0.00     0.158 HD
HETATM   29  H2  UNL     1      22.558   1.701  50.109  1.00  0.00     0.158 HD
ENDBRANCH   1  27
TORSDOF 3
ENDMDL
