MODEL 1
REMARK VINA RESULT:      -9.2      0.000      0.000
REMARK  3 active torsions:
REMARK  status: ('A' for Active; 'I' for Inactive)
REMARK    1  A    between atoms: C3_5  and  N2_6 
REMARK    2  A    between atoms: N2_6  and  C4_7 
REMARK    3  A    between atoms: C4_7  and  C5_8 
ROOT
HETATM    1 BR1  UNL     1      23.121   0.913  52.858  1.00  0.00    -0.049 Br
HETATM    2  C1  UNL     1      24.875   0.666  53.504  1.00  0.00     0.043 C 
HETATM    3  C2  UNL     1      25.538   1.390  54.386  1.00  0.00     0.106 C 
HETATM    4  N1  UNL     1      26.530   2.041  53.875  1.00  0.00    -0.227 NA
HETATM    5  C3  UNL     1      26.566   2.097  52.459  1.00  0.00     0.139 C 
HETATM    6  C11 UNL     1      27.845   2.509  52.587  1.00  0.00     0.134 C 
HETATM    7  N3  UNL     1      28.178   2.567  53.939  1.00  0.00    -0.392 N 
HETATM    8  C12 UNL     1      29.016   1.400  54.088  1.00  0.00     0.159 C 
HETATM    9  C13 UNL     1      28.393   0.107  53.886  1.00  0.00    -0.019 C 
HETATM   10  C14 UNL     1      29.299  -0.766  54.342  1.00  0.00    -0.017 C 
HETATM   11  C15 UNL     1      29.831  -1.551  53.400  1.00  0.00     0.013 C 
HETATM   12  C16 UNL     1      28.760  -2.387  52.814  1.00  0.00     0.002 C 
HETATM   13  C17 UNL     1      27.505  -1.913  52.797  1.00  0.00     0.012 C 
HETATM   14  C18 UNL     1      27.198  -0.568  53.357  1.00  0.00    -0.026 C 
HETATM   15  C19 UNL     1      25.927  -0.282  53.258  1.00  0.00     0.033 C 
HETATM   16  H10 UNL     1      27.720   3.415  54.324  1.00  0.00     0.159 HD
ENDROOT
BRANCH   5  17
HETATM   17  N2  UNL     1      26.166   2.011  51.101  1.00  0.00    -0.369 N 
HETATM   18  H1  UNL     1      26.633   1.300  50.462  1.00  0.00     0.161 HD
BRANCH  17  19
HETATM   19  C4  UNL     1      25.123   2.931  50.694  1.00  0.00     0.160 C 
BRANCH  19  20
HETATM   20  C5  UNL     1      25.763   4.053  49.977  1.00  0.00    -0.041 A 
HETATM   21  C6  UNL     1      26.964   3.834  49.299  1.00  0.00     0.009 A 
HETATM   22  C7  UNL     1      27.602   4.844  48.615  1.00  0.00     0.001 A 
HETATM   23  C8  UNL     1      27.041   6.100  48.602  1.00  0.00     0.000 A 
HETATM   24  C9  UNL     1      25.854   6.290  49.282  1.00  0.00     0.001 A 
HETATM   25  C10 UNL     1      25.185   5.299  49.978  1.00  0.00     0.009 A 
ENDBRANCH  19  20
ENDBRANCH  17  19
ENDBRANCH   5  17
TORSDOF 3
ENDMDL
MODEL 2
REMARK VINA RESULT:      -8.4      3.368      6.995
REMARK  3 active torsions:
REMARK  status: ('A' for Active; 'I' for Inactive)
REMARK    1  A    between atoms: C3_5  and  N2_6 
REMARK    2  A    between atoms: N2_6  and  C4_7 
REMARK    3  A    between atoms: C4_7  and  C5_8 
ROOT
HETATM    1 BR1  UNL     1      26.689   4.338  49.312  1.00  0.00    -0.049 Br
HETATM    2  C1  UNL     1      24.806   4.382  49.410  1.00  0.00     0.043 C 
HETATM    3  C2  UNL     1      24.013   5.427  49.555  1.00  0.00     0.106 C 
HETATM    4  N1  UNL     1      23.408   5.457  50.696  1.00  0.00    -0.227 NA
HETATM    5  C3  UNL     1      23.898   4.558  51.677  1.00  0.00     0.139 C 
HETATM    6  C11 UNL     1      22.757   4.803  52.356  1.00  0.00     0.134 C 
HETATM    7  N3  UNL     1      21.974   5.702  51.634  1.00  0.00    -0.392 N 
HETATM    8  C12 UNL     1      20.942   4.839  51.107  1.00  0.00     0.159 C 
HETATM    9  C13 UNL     1      21.350   3.819  50.163  1.00  0.00    -0.019 C 
HETATM   10  C14 UNL     1      20.197   3.370  49.651  1.00  0.00    -0.017 C 
HETATM   11  C15 UNL     1      19.909   2.104  49.968  1.00  0.00     0.013 C 
HETATM   12  C16 UNL     1      20.948   1.219  49.397  1.00  0.00     0.002 C 
HETATM   13  C17 UNL     1      22.188   1.703  49.228  1.00  0.00     0.012 C 
HETATM   14  C18 UNL     1      22.511   3.105  49.610  1.00  0.00    -0.026 C 
HETATM   15  C19 UNL     1      23.761   3.396  49.366  1.00  0.00     0.033 C 
HETATM   16  H10 UNL     1      22.408   6.637  51.751  1.00  0.00     0.159 HD
ENDROOT
BRANCH   5  17
HETATM   17  N2  UNL     1      24.739   3.641  52.358  1.00  0.00    -0.369 N 
HETATM   18  H1  UNL     1      25.784   3.831  52.413  1.00  0.00     0.161 HD
BRANCH  17  19
HETATM   19  C4  UNL     1      24.074   2.491  52.937  1.00  0.00     0.160 C 
BRANCH  19  20
HETATM   20  C5  UNL     1      24.965   1.323  52.774  1.00  0.00    -0.041 A 
HETATM   21  C6  UNL     1      24.770   0.199  53.581  1.00  0.00     0.009 A 
HETATM   22  C7  UNL     1      25.571  -0.916  53.470  1.00  0.00     0.001 A 
HETATM   23  C8  UNL     1      26.587  -0.920  52.542  1.00  0.00     0.000 A 
HETATM   24  C9  UNL     1      26.758   0.205  51.759  1.00  0.00     0.001 A 
HETATM   25  C10 UNL     1      25.972   1.341  51.842  1.00  0.00     0.009 A 
ENDBRANCH  19  20
ENDBRANCH  17  19
ENDBRANCH   5  17
TORSDOF 3
ENDMDL
MODEL 3
REMARK VINA RESULT:      -8.3      3.910      6.276
REMARK  3 active torsions:
REMARK  status: ('A' for Active; 'I' for Inactive)
REMARK    1  A    between atoms: C3_5  and  N2_6 
REMARK    2  A    between atoms: N2_6  and  C4_7 
REMARK    3  A    between atoms: C4_7  and  C5_8 
ROOT
HETATM    1 BR1  UNL     1      22.479   2.120  47.606  1.00  0.00    -0.049 Br
HETATM    2  C1  UNL     1      21.643   1.531  49.191  1.00  0.00     0.043 C 
HETATM    3  C2  UNL     1      20.362   1.563  49.508  1.00  0.00     0.106 C 
HETATM    4  N1  UNL     1      20.090   2.391  50.461  1.00  0.00    -0.227 NA
HETATM    5  C3  UNL     1      21.122   3.304  50.798  1.00  0.00     0.139 C 
HETATM    6  C11 UNL     1      20.424   3.552  51.926  1.00  0.00     0.134 C 
HETATM    7  N3  UNL     1      19.271   2.770  51.939  1.00  0.00    -0.392 N 
HETATM    8  C12 UNL     1      19.610   1.757  52.911  1.00  0.00     0.159 C 
HETATM    9  C13 UNL     1      20.698   0.859  52.579  1.00  0.00    -0.019 C 
HETATM   10  C14 UNL     1      20.611  -0.110  53.499  1.00  0.00    -0.017 C 
HETATM   11  C15 UNL     1      21.640  -0.153  54.353  1.00  0.00     0.013 C 
HETATM   12  C16 UNL     1      22.876  -0.456  53.597  1.00  0.00     0.002 C 
HETATM   13  C17 UNL     1      22.961  -0.072  52.315  1.00  0.00     0.012 C 
HETATM   14  C18 UNL     1      21.830   0.648  51.665  1.00  0.00    -0.026 C 
HETATM   15  C19 UNL     1      22.093   0.933  50.418  1.00  0.00     0.033 C 
HETATM   16  H10 UNL     1      18.608   3.203  51.268  1.00  0.00     0.159 HD
ENDROOT
BRANCH   5  17
HETATM   17  N2  UNL     1      22.315   4.067  50.728  1.00  0.00    -0.369 N 
HETATM   18  H1  UNL     1      22.675   4.390  49.781  1.00  0.00     0.161 HD
BRANCH  17  19
HETATM   19  C4  UNL     1      22.956   4.346  51.997  1.00  0.00     0.160 C 
BRANCH  19  20
HETATM   20  C5  UNL     1      24.152   3.485  52.100  1.00  0.00    -0.041 A 
HETATM   21  C6  UNL     1      24.526   2.983  53.349  1.00  0.00     0.009 A 
HETATM   22  C7  UNL     1      25.632   2.176  53.502  1.00  0.00     0.001 A 
HETATM   23  C8  UNL     1      26.385   1.859  52.394  1.00  0.00     0.000 A 
HETATM   24  C9  UNL     1      25.994   2.369  51.172  1.00  0.00     0.001 A 
HETATM   25  C10 UNL     1      24.889   3.182  50.983  1.00  0.00     0.009 A 
ENDBRANCH  19  20
ENDBRANCH  17  19
ENDBRANCH   5  17
TORSDOF 3
ENDMDL
MODEL 4
REMARK VINA RESULT:      -7.9      3.536      5.804
REMARK  3 active torsions:
REMARK  status: ('A' for Active; 'I' for Inactive)
REMARK    1  A    between atoms: C3_5  and  N2_6 
REMARK    2  A    between atoms: N2_6  and  C4_7 
REMARK    3  A    between atoms: C4_7  and  C5_8 
ROOT
HETATM    1 BR1  UNL     1      21.570   6.888  50.764  1.00  0.00    -0.049 Br
HETATM    2  C1  UNL     1      22.813   5.628  51.415  1.00  0.00     0.043 C 
HETATM    3  C2  UNL     1      24.115   5.766  51.583  1.00  0.00     0.106 C 
HETATM    4  N1  UNL     1      24.817   5.047  50.772  1.00  0.00    -0.227 NA
HETATM    5  C3  UNL     1      24.107   4.474  49.686  1.00  0.00     0.139 C 
HETATM    6  C11 UNL     1      25.182   3.677  49.509  1.00  0.00     0.134 C 
HETATM    7  N3  UNL     1      26.144   3.977  50.471  1.00  0.00    -0.392 N 
HETATM    8  C12 UNL     1      26.026   2.853  51.370  1.00  0.00     0.159 C 
HETATM    9  C13 UNL     1      24.775   2.707  52.088  1.00  0.00    -0.019 C 
HETATM   10  C14 UNL     1      25.039   1.780  53.016  1.00  0.00    -0.017 C 
HETATM   11  C15 UNL     1      24.378   0.630  52.850  1.00  0.00     0.013 C 
HETATM   12  C16 UNL     1      22.926   0.891  52.974  1.00  0.00     0.002 C 
HETATM   13  C17 UNL     1      22.455   2.101  52.638  1.00  0.00     0.012 C 
HETATM   14  C18 UNL     1      23.377   3.161  52.146  1.00  0.00    -0.026 C 
HETATM   15  C19 UNL     1      22.740   4.268  51.876  1.00  0.00     0.033 C 
HETATM   16  H10 UNL     1      26.586   4.871  50.184  1.00  0.00     0.159 HD
ENDROOT
BRANCH   5  17
HETATM   17  N2  UNL     1      23.086   4.212  48.738  1.00  0.00    -0.369 N 
HETATM   18  H1  UNL     1      22.500   5.017  48.364  1.00  0.00     0.161 HD
BRANCH  17  19
HETATM   19  C4  UNL     1      22.929   2.824  48.352  1.00  0.00     0.160 C 
BRANCH  19  20
HETATM   20  C5  UNL     1      21.696   2.314  48.987  1.00  0.00    -0.041 A 
HETATM   21  C6  UNL     1      20.621   3.184  49.186  1.00  0.00     0.009 A 
HETATM   22  C7  UNL     1      19.449   2.761  49.773  1.00  0.00     0.001 A 
HETATM   23  C8  UNL     1      19.337   1.449  50.172  1.00  0.00     0.000 A 
HETATM   24  C9  UNL     1      20.415   0.611  49.964  1.00  0.00     0.001 A 
HETATM   25  C10 UNL     1      21.606   1.001  49.378  1.00  0.00     0.009 A 
ENDBRANCH  19  20
ENDBRANCH  17  19
ENDBRANCH   5  17
TORSDOF 3
ENDMDL
MODEL 5
REMARK VINA RESULT:      -7.9      3.020      4.292
REMARK  3 active torsions:
REMARK  status: ('A' for Active; 'I' for Inactive)
REMARK    1  A    between atoms: C3_5  and  N2_6 
REMARK    2  A    between atoms: N2_6  and  C4_7 
REMARK    3  A    between atoms: C4_7  and  C5_8 
ROOT
HETATM    1 BR1  UNL     1      21.135   1.713  48.695  1.00  0.00    -0.049 Br
HETATM    2  C1  UNL     1      22.048   2.032  50.314  1.00  0.00     0.043 C 
HETATM    3  C2  UNL     1      21.588   2.573  51.426  1.00  0.00     0.106 C 
HETATM    4  N1  UNL     1      22.098   3.731  51.683  1.00  0.00    -0.227 NA
HETATM    5  C3  UNL     1      22.821   4.335  50.622  1.00  0.00     0.139 C 
HETATM    6  C11 UNL     1      23.319   5.180  51.550  1.00  0.00     0.134 C 
HETATM    7  N3  UNL     1      22.796   4.855  52.800  1.00  0.00    -0.392 N 
HETATM    8  C12 UNL     1      23.923   4.214  53.436  1.00  0.00     0.159 C 
HETATM    9  C13 UNL     1      24.386   2.967  52.861  1.00  0.00    -0.019 C 
HETATM   10  C14 UNL     1      25.227   2.477  53.781  1.00  0.00    -0.017 C 
HETATM   11  C15 UNL     1      26.505   2.431  53.390  1.00  0.00     0.013 C 
HETATM   12  C16 UNL     1      26.620   1.506  52.240  1.00  0.00     0.002 C 
HETATM   13  C17 UNL     1      25.564   1.351  51.427  1.00  0.00     0.012 C 
HETATM   14  C18 UNL     1      24.300   2.098  51.677  1.00  0.00    -0.026 C 
HETATM   15  C19 UNL     1      23.387   1.813  50.789  1.00  0.00     0.033 C 
HETATM   16  H10 UNL     1      21.816   5.198  52.813  1.00  0.00     0.159 HD
ENDROOT
BRANCH   5  17
HETATM   17  N2  UNL     1      23.322   4.610  49.325  1.00  0.00    -0.369 N 
HETATM   18  H1  UNL     1      23.195   3.890  48.551  1.00  0.00     0.161 HD
BRANCH  17  19
HETATM   19  C4  UNL     1      23.983   5.889  49.166  1.00  0.00     0.160 C 
BRANCH  19  20
HETATM   20  C5  UNL     1      25.421   5.631  48.943  1.00  0.00    -0.041 A 
HETATM   21  C6  UNL     1      26.234   6.663  48.467  1.00  0.00     0.009 A 
HETATM   22  C7  UNL     1      27.580   6.477  48.242  1.00  0.00     0.001 A 
HETATM   23  C8  UNL     1      28.134   5.243  48.492  1.00  0.00     0.000 A 
HETATM   24  C9  UNL     1      27.308   4.240  48.960  1.00  0.00     0.001 A 
HETATM   25  C10 UNL     1      25.954   4.392  49.199  1.00  0.00     0.009 A 
ENDBRANCH  19  20
ENDBRANCH  17  19
ENDBRANCH   5  17
TORSDOF 3
ENDMDL
MODEL 6
REMARK VINA RESULT:      -7.9      4.144      7.158
REMARK  3 active torsions:
REMARK  status: ('A' for Active; 'I' for Inactive)
REMARK    1  A    between atoms: C3_5  and  N2_6 
REMARK    2  A    between atoms: N2_6  and  C4_7 
REMARK    3  A    between atoms: C4_7  and  C5_8 
ROOT
HETATM    1 BR1  UNL     1      26.797   2.472  51.579  1.00  0.00    -0.049 Br
HETATM    2  C1  UNL     1      25.757   3.363  50.282  1.00  0.00     0.043 C 
HETATM    3  C2  UNL     1      25.980   4.531  49.707  1.00  0.00     0.106 C 
HETATM    4  N1  UNL     1      25.131   5.442  50.049  1.00  0.00    -0.227 NA
HETATM    5  C3  UNL     1      24.310   5.131  51.163  1.00  0.00     0.139 C 
HETATM    6  C11 UNL     1      23.537   6.170  50.780  1.00  0.00     0.134 C 
HETATM    7  N3  UNL     1      24.075   6.749  49.632  1.00  0.00    -0.392 N 
HETATM    8  C12 UNL     1      23.167   6.283  48.611  1.00  0.00     0.159 C 
HETATM    9  C13 UNL     1      23.131   4.856  48.358  1.00  0.00    -0.019 C 
HETATM   10  C14 UNL     1      22.437   4.746  47.218  1.00  0.00    -0.017 C 
HETATM   11  C15 UNL     1      21.252   4.140  47.351  1.00  0.00     0.013 C 
HETATM   12  C16 UNL     1      21.476   2.746  47.797  1.00  0.00     0.002 C 
HETATM   13  C17 UNL     1      22.566   2.468  48.529  1.00  0.00     0.012 C 
HETATM   14  C18 UNL     1      23.531   3.544  48.887  1.00  0.00    -0.026 C 
HETATM   15  C19 UNL     1      24.527   3.082  49.594  1.00  0.00     0.033 C 
HETATM   16  H10 UNL     1      24.903   7.297  49.934  1.00  0.00     0.159 HD
ENDROOT
BRANCH   5  17
HETATM   17  N2  UNL     1      23.809   4.493  52.326  1.00  0.00    -0.369 N 
HETATM   18  H1  UNL     1      24.490   4.122  53.054  1.00  0.00     0.161 HD
BRANCH  17  19
HETATM   19  C4  UNL     1      22.366   4.401  52.419  1.00  0.00     0.160 C 
BRANCH  19  20
HETATM   20  C5  UNL     1      21.984   2.995  52.171  1.00  0.00    -0.041 A 
HETATM   21  C6  UNL     1      22.885   1.977  52.492  1.00  0.00     0.009 A 
HETATM   22  C7  UNL     1      22.580   0.650  52.282  1.00  0.00     0.001 A 
HETATM   23  C8  UNL     1      21.358   0.323  51.741  1.00  0.00     0.000 A 
HETATM   24  C9  UNL     1      20.487   1.349  51.432  1.00  0.00     0.001 A 
HETATM   25  C10 UNL     1      20.759   2.692  51.630  1.00  0.00     0.009 A 
ENDBRANCH  19  20
ENDBRANCH  17  19
ENDBRANCH   5  17
TORSDOF 3
ENDMDL
MODEL 7
REMARK VINA RESULT:      -7.8      7.357     10.026
REMARK  3 active torsions:
REMARK  status: ('A' for Active; 'I' for Inactive)
REMARK    1  A    between atoms: C3_5  and  N2_6 
REMARK    2  A    between atoms: N2_6  and  C4_7 
REMARK    3  A    between atoms: C4_7  and  C5_8 
ROOT
HETATM    1 BR1  UNL     1      32.692   2.414  46.708  1.00  0.00    -0.049 Br
HETATM    2  C1  UNL     1      33.313   4.162  46.368  1.00  0.00     0.043 C 
HETATM    3  C2  UNL     1      34.544   4.630  46.455  1.00  0.00     0.106 C 
HETATM    4  N1  UNL     1      34.705   5.477  47.418  1.00  0.00    -0.227 NA
HETATM    5  C3  UNL     1      33.650   5.540  48.364  1.00  0.00     0.139 C 
HETATM    6  C11 UNL     1      34.203   6.698  48.783  1.00  0.00     0.134 C 
HETATM    7  N3  UNL     1      35.335   6.973  48.018  1.00  0.00    -0.392 N 
HETATM    8  C12 UNL     1      34.863   8.034  47.160  1.00  0.00     0.159 C 
HETATM    9  C13 UNL     1      33.814   7.705  46.215  1.00  0.00    -0.019 C 
HETATM   10  C14 UNL     1      33.771   8.763  45.396  1.00  0.00    -0.017 C 
HETATM   11  C15 UNL     1      32.643   9.476  45.474  1.00  0.00     0.013 C 
HETATM   12  C16 UNL     1      31.509   8.623  45.054  1.00  0.00     0.002 C 
HETATM   13  C17 UNL     1      31.591   7.297  45.242  1.00  0.00     0.012 C 
HETATM   14  C18 UNL     1      32.804   6.696  45.864  1.00  0.00    -0.026 C 
HETATM   15  C19 UNL     1      32.704   5.397  45.957  1.00  0.00     0.033 C 
HETATM   16  H10 UNL     1      36.083   6.335  48.350  1.00  0.00     0.159 HD
ENDROOT
BRANCH   5  17
HETATM   17  N2  UNL     1      32.485   5.206  49.101  1.00  0.00    -0.369 N 
HETATM   18  H1  UNL     1      32.130   4.204  49.093  1.00  0.00     0.161 HD
BRANCH  17  19
HETATM   19  C4  UNL     1      31.866   6.300  49.823  1.00  0.00     0.160 C 
BRANCH  19  20
HETATM   20  C5  UNL     1      30.743   6.803  49.005  1.00  0.00    -0.041 A 
HETATM   21  C6  UNL     1      30.568   8.182  48.860  1.00  0.00     0.009 A 
HETATM   22  C7  UNL     1      29.539   8.705  48.110  1.00  0.00     0.001 A 
HETATM   23  C8  UNL     1      28.662   7.846  47.489  1.00  0.00     0.000 A 
HETATM   24  C9  UNL     1      28.856   6.488  47.649  1.00  0.00     0.001 A 
HETATM   25  C10 UNL     1      29.879   5.928  48.395  1.00  0.00     0.009 A 
ENDBRANCH  19  20
ENDBRANCH  17  19
ENDBRANCH   5  17
TORSDOF 3
ENDMDL
MODEL 8
REMARK VINA RESULT:      -7.7      3.149      6.691
REMARK  3 active torsions:
REMARK  status: ('A' for Active; 'I' for Inactive)
REMARK    1  A    between atoms: C3_5  and  N2_6 
REMARK    2  A    between atoms: N2_6  and  C4_7 
REMARK    3  A    between atoms: C4_7  and  C5_8 
ROOT
HETATM    1 BR1  UNL     1      25.642   0.171  52.872  1.00  0.00    -0.049 Br
HETATM    2  C1  UNL     1      25.413   1.992  52.438  1.00  0.00     0.043 C 
HETATM    3  C2  UNL     1      24.842   2.943  53.152  1.00  0.00     0.106 C 
HETATM    4  N1  UNL     1      23.733   3.370  52.645  1.00  0.00    -0.227 NA
HETATM    5  C3  UNL     1      23.187   2.578  51.603  1.00  0.00     0.139 C 
HETATM    6  C11 UNL     1      22.394   3.634  51.325  1.00  0.00     0.134 C 
HETATM    7  N3  UNL     1      22.681   4.673  52.208  1.00  0.00    -0.392 N 
HETATM    8  C12 UNL     1      23.420   5.583  51.365  1.00  0.00     0.159 C 
HETATM    9  C13 UNL     1      24.699   5.126  50.859  1.00  0.00    -0.019 C 
HETATM   10  C14 UNL     1      25.264   6.232  50.359  1.00  0.00    -0.017 C 
HETATM   11  C15 UNL     1      25.418   6.220  49.031  1.00  0.00     0.013 C 
HETATM   12  C16 UNL     1      26.342   5.122  48.666  1.00  0.00     0.002 C 
HETATM   13  C17 UNL     1      26.401   4.037  49.454  1.00  0.00     0.012 C 
HETATM   14  C18 UNL     1      25.550   3.941  50.672  1.00  0.00    -0.026 C 
HETATM   15  C19 UNL     1      25.749   2.821  51.313  1.00  0.00     0.033 C 
HETATM   16  H10 UNL     1      22.255   4.417  53.119  1.00  0.00     0.159 HD
ENDROOT
BRANCH   5  17
HETATM   17  N2  UNL     1      22.948   1.485  50.731  1.00  0.00    -0.369 N 
HETATM   18  H1  UNL     1      23.701   1.193  50.039  1.00  0.00     0.161 HD
BRANCH  17  19
HETATM   19  C4  UNL     1      21.655   0.846  50.867  1.00  0.00     0.160 C 
BRANCH  19  20
HETATM   20  C5  UNL     1      21.547   0.331  52.248  1.00  0.00    -0.041 A 
HETATM   21  C6  UNL     1      22.339  -0.752  52.637  1.00  0.00     0.009 A 
HETATM   22  C7  UNL     1      22.278  -1.271  53.911  1.00  0.00     0.001 A 
HETATM   23  C8  UNL     1      21.414  -0.707  54.821  1.00  0.00     0.000 A 
HETATM   24  C9  UNL     1      20.642   0.361  54.411  1.00  0.00     0.001 A 
HETATM   25  C10 UNL     1      20.678   0.909  53.140  1.00  0.00     0.009 A 
ENDBRANCH  19  20
ENDBRANCH  17  19
ENDBRANCH   5  17
TORSDOF 3
ENDMDL
MODEL 9
REMARK VINA RESULT:      -7.7      4.293      5.882
REMARK  3 active torsions:
REMARK  status: ('A' for Active; 'I' for Inactive)
REMARK    1  A    between atoms: C3_5  and  N2_6 
REMARK    2  A    between atoms: N2_6  and  C4_7 
REMARK    3  A    between atoms: C4_7  and  C5_8 
ROOT
HETATM    1 BR1  UNL     1      22.864   3.059  48.660  1.00  0.00    -0.049 Br
HETATM    2  C1  UNL     1      22.352   1.740  49.908  1.00  0.00     0.043 C 
HETATM    3  C2  UNL     1      21.244   1.024  49.943  1.00  0.00     0.106 C 
HETATM    4  N1  UNL     1      20.475   1.316  50.939  1.00  0.00    -0.227 NA
HETATM    5  C3  UNL     1      20.797   2.509  51.636  1.00  0.00     0.139 C 
HETATM    6  C11 UNL     1      19.979   2.062  52.613  1.00  0.00     0.134 C 
HETATM    7  N3  UNL     1      19.454   0.825  52.247  1.00  0.00    -0.392 N 
HETATM    8  C12 UNL     1      20.205  -0.077  53.088  1.00  0.00     0.159 C 
HETATM    9  C13 UNL     1      21.633  -0.165  52.854  1.00  0.00    -0.019 C 
HETATM   10  C14 UNL     1      22.013  -1.238  53.560  1.00  0.00    -0.017 C 
HETATM   11  C15 UNL     1      22.812  -0.961  54.596  1.00  0.00     0.013 C 
HETATM   12  C16 UNL     1      24.072  -0.377  54.085  1.00  0.00     0.002 C 
HETATM   13  C17 UNL     1      24.047   0.309  52.932  1.00  0.00     0.012 C 
HETATM   14  C18 UNL     1      22.771   0.481  52.183  1.00  0.00    -0.026 C 
HETATM   15  C19 UNL     1      22.944   1.169  51.087  1.00  0.00     0.033 C 
HETATM   16  H10 UNL     1      18.726   1.009  51.531  1.00  0.00     0.159 HD
ENDROOT
BRANCH   5  17
HETATM   17  N2  UNL     1      21.371   3.766  51.953  1.00  0.00    -0.369 N 
HETATM   18  H1  UNL     1      22.143   3.820  52.683  1.00  0.00     0.161 HD
BRANCH  17  19
HETATM   19  C4  UNL     1      20.835   4.900  51.228  1.00  0.00     0.160 C 
BRANCH  19  20
HETATM   20  C5  UNL     1      21.928   5.878  51.044  1.00  0.00    -0.041 A 
HETATM   21  C6  UNL     1      21.663   7.081  50.385  1.00  0.00     0.009 A 
HETATM   22  C7  UNL     1      22.644   8.027  50.187  1.00  0.00     0.001 A 
HETATM   23  C8  UNL     1      23.916   7.778  50.650  1.00  0.00     0.000 A 
HETATM   24  C9  UNL     1      24.151   6.580  51.296  1.00  0.00     0.001 A 
HETATM   25  C10 UNL     1      23.189   5.608  51.513  1.00  0.00     0.009 A 
ENDBRANCH  19  20
ENDBRANCH  17  19
ENDBRANCH   5  17
TORSDOF 3
ENDMDL
