MODEL 1
REMARK VINA RESULT:      -8.2      0.000      0.000
REMARK  5 active torsions:
REMARK  status: ('A' for Active; 'I' for Inactive)
REMARK    1  A    between atoms: C4_4  and  N1_5 
REMARK    2  A    between atoms: N1_5  and  C5_6 
REMARK    3  A    between atoms: C6_8  and  N3_9 
REMARK    4  A    between atoms: N5_15  and  C11_16 
REMARK    5  A    between atoms: C11_16  and  C12_17 
ROOT
HETATM    1  C5  UNL     1      24.047   4.810  50.128  1.00  0.00     0.161 A 
HETATM    2  N2  UNL     1      24.221   5.303  51.383  1.00  0.00    -0.044 NA
HETATM    3  C6  UNL     1      23.531   4.838  52.431  1.00  0.00     0.724 A 
HETATM    4  N4  UNL     1      22.620   3.850  52.298  1.00  0.00    -0.044 NA
HETATM    5  C7  UNL     1      22.364   3.284  51.102  1.00  0.00     0.163 A 
HETATM    6  C8  UNL     1      23.104   3.804  50.061  1.00  0.00     0.059 A 
HETATM    7  C9  UNL     1      22.680   3.081  48.941  1.00  0.00     0.036 A 
HETATM    8  C10 UNL     1      21.715   2.166  49.334  1.00  0.00     0.094 A 
HETATM    9  N5  UNL     1      21.549   2.316  50.643  1.00  0.00    -0.336 N 
ENDROOT
BRANCH   9  10
HETATM   10  C11 UNL     1      20.632   1.568  51.514  1.00  0.00     0.168 C 
BRANCH  10  11
HETATM   11  C12 UNL     1      21.436   0.792  52.518  1.00  0.00    -0.038 A 
HETATM   12  C13 UNL     1      20.718   0.464  53.668  1.00  0.00     0.010 A 
HETATM   13  C14 UNL     1      21.415  -0.253  54.626  1.00  0.00     0.026 A 
HETATM   14  C15 UNL     1      22.736  -0.649  54.510  1.00  0.00     0.055 A 
HETATM   15 CL1  UNL     1      23.529  -1.555  55.780  1.00  0.00    -0.083 Cl
HETATM   16  C16 UNL     1      23.349  -0.277  53.344  1.00  0.00     0.056 A 
HETATM   17 CL2  UNL     1      25.033  -0.750  53.135  1.00  0.00    -0.083 Cl
HETATM   18  C17 UNL     1      22.752   0.436  52.327  1.00  0.00     0.034 A 
ENDBRANCH  10  11
ENDBRANCH   9  10
BRANCH   3  19
HETATM   19  N3  UNL     1      23.830   5.461  53.675  1.00  0.00    -0.231 N 
HETATM   20  H6  UNL     1      23.555   6.132  54.412  1.00  0.00     0.174 HD
HETATM   21  H7  UNL     1      24.726   5.152  54.108  1.00  0.00     0.174 HD
ENDBRANCH   3  19
BRANCH   1  22
HETATM   22  N1  UNL     1      24.740   5.249  48.965  1.00  0.00    -0.340 N 
HETATM   23  H5  UNL     1      23.885   5.315  48.344  1.00  0.00     0.167 HD
BRANCH  22  24
HETATM   24  C4  UNL     1      26.122   5.508  48.728  1.00  0.00     0.034 A 
HETATM   25  C3  UNL     1      27.170   4.486  48.903  1.00  0.00     0.036 A 
HETATM   26  C2  UNL     1      28.036   5.415  48.530  1.00  0.00    -0.058 A 
HETATM   27  C1  UNL     1      29.488   5.572  48.314  1.00  0.00     0.048 C 
HETATM   28  C18 UNL     1      27.005   6.433  48.353  1.00  0.00     0.036 A 
ENDBRANCH  22  24
ENDBRANCH   1  22
TORSDOF 5
ENDMDL
MODEL 2
REMARK VINA RESULT:      -8.2      3.252      4.081
REMARK  5 active torsions:
REMARK  status: ('A' for Active; 'I' for Inactive)
REMARK    1  A    between atoms: C4_4  and  N1_5 
REMARK    2  A    between atoms: N1_5  and  C5_6 
REMARK    3  A    between atoms: C6_8  and  N3_9 
REMARK    4  A    between atoms: N5_15  and  C11_16 
REMARK    5  A    between atoms: C11_16  and  C12_17 
ROOT
HETATM    1  C5  UNL     1      25.016   6.144  49.408  1.00  0.00     0.161 A 
HETATM    2  N2  UNL     1      23.907   6.606  50.047  1.00  0.00    -0.044 NA
HETATM    3  C6  UNL     1      23.272   5.884  50.977  1.00  0.00     0.724 A 
HETATM    4  N4  UNL     1      23.698   4.653  51.334  1.00  0.00    -0.044 NA
HETATM    5  C7  UNL     1      24.787   4.094  50.770  1.00  0.00     0.163 A 
HETATM    6  C8  UNL     1      25.399   4.883  49.819  1.00  0.00     0.059 A 
HETATM    7  C9  UNL     1      26.481   4.115  49.378  1.00  0.00     0.036 A 
HETATM    8  C10 UNL     1      26.488   2.910  50.062  1.00  0.00     0.094 A 
HETATM    9  N5  UNL     1      25.453   2.930  50.893  1.00  0.00    -0.336 N 
ENDROOT
BRANCH   9  10
HETATM   10  C11 UNL     1      25.044   1.875  51.830  1.00  0.00     0.168 C 
BRANCH  10  11
HETATM   11  C12 UNL     1      26.273   1.238  52.414  1.00  0.00    -0.038 A 
HETATM   12  C13 UNL     1      26.364  -0.130  52.152  1.00  0.00     0.010 A 
HETATM   13  C14 UNL     1      27.481  -0.766  52.669  1.00  0.00     0.026 A 
HETATM   14  C15 UNL     1      28.475  -0.143  53.403  1.00  0.00     0.055 A 
HETATM   15 CL1  UNL     1      29.850  -1.038  54.014  1.00  0.00    -0.083 Cl
HETATM   16  C16 UNL     1      28.289   1.197  53.603  1.00  0.00     0.056 A 
HETATM   17 CL2  UNL     1      29.521   2.049  54.533  1.00  0.00    -0.083 Cl
HETATM   18  C17 UNL     1      27.219   1.929  53.136  1.00  0.00     0.034 A 
ENDBRANCH  10  11
ENDBRANCH   9  10
BRANCH   3  19
HETATM   19  N3  UNL     1      22.128   6.509  51.549  1.00  0.00    -0.231 N 
HETATM   20  H6  UNL     1      21.140   6.799  51.448  1.00  0.00     0.174 HD
HETATM   21  H7  UNL     1      22.271   6.870  52.515  1.00  0.00     0.174 HD
ENDBRANCH   3  19
BRANCH   1  22
HETATM   22  N1  UNL     1      25.747   6.849  48.411  1.00  0.00    -0.340 N 
HETATM   23  H5  UNL     1      25.004   6.780  47.660  1.00  0.00     0.167 HD
BRANCH  22  24
HETATM   24  C4  UNL     1      27.044   7.442  48.429  1.00  0.00     0.034 A 
HETATM   25  C3  UNL     1      27.445   8.456  49.420  1.00  0.00     0.036 A 
HETATM   26  C2  UNL     1      28.624   8.472  48.817  1.00  0.00    -0.058 A 
HETATM   27  C1  UNL     1      29.932   9.149  48.929  1.00  0.00     0.048 C 
HETATM   28  C18 UNL     1      28.235   7.468  47.832  1.00  0.00     0.036 A 
ENDBRANCH  22  24
ENDBRANCH   1  22
TORSDOF 5
ENDMDL
MODEL 3
REMARK VINA RESULT:      -8.2      4.436      8.338
REMARK  5 active torsions:
REMARK  status: ('A' for Active; 'I' for Inactive)
REMARK    1  A    between atoms: C4_4  and  N1_5 
REMARK    2  A    between atoms: N1_5  and  C5_6 
REMARK    3  A    between atoms: C6_8  and  N3_9 
REMARK    4  A    between atoms: N5_15  and  C11_16 
REMARK    5  A    between atoms: C11_16  and  C12_17 
ROOT
HETATM    1  C5  UNL     1      19.635  -0.513  53.261  1.00  0.00     0.161 A 
HETATM    2  N2  UNL     1      19.095   0.456  52.474  1.00  0.00    -0.044 NA
HETATM    3  C6  UNL     1      19.828   1.462  51.983  1.00  0.00     0.724 A 
HETATM    4  N4  UNL     1      21.148   1.570  52.242  1.00  0.00    -0.044 NA
HETATM    5  C7  UNL     1      21.792   0.668  53.009  1.00  0.00     0.163 A 
HETATM    6  C8  UNL     1      20.986  -0.344  53.487  1.00  0.00     0.059 A 
HETATM    7  C9  UNL     1      21.849  -1.145  54.241  1.00  0.00     0.036 A 
HETATM    8  C10 UNL     1      23.124  -0.602  54.196  1.00  0.00     0.094 A 
HETATM    9  N5  UNL     1      23.053   0.490  53.445  1.00  0.00    -0.336 N 
ENDROOT
BRANCH   9  10
HETATM   10  C11 UNL     1      24.149   1.408  53.104  1.00  0.00     0.168 C 
BRANCH  10  11
HETATM   11  C12 UNL     1      25.454   0.669  53.208  1.00  0.00    -0.038 A 
HETATM   12  C13 UNL     1      25.539  -0.427  52.348  1.00  0.00     0.010 A 
HETATM   13  C14 UNL     1      26.723  -1.143  52.405  1.00  0.00     0.026 A 
HETATM   14  C15 UNL     1      27.789  -0.842  53.236  1.00  0.00     0.055 A 
HETATM   15 CL1  UNL     1      29.247  -1.811  53.233  1.00  0.00    -0.083 Cl
HETATM   16  C16 UNL     1      27.603   0.251  54.038  1.00  0.00     0.056 A 
HETATM   17 CL2  UNL     1      28.923   0.687  55.121  1.00  0.00    -0.083 Cl
HETATM   18  C17 UNL     1      26.468   1.033  54.064  1.00  0.00     0.034 A 
ENDBRANCH  10  11
ENDBRANCH   9  10
BRANCH   3  19
HETATM   19  N3  UNL     1      19.112   2.393  51.179  1.00  0.00    -0.231 N 
HETATM   20  H6  UNL     1      19.095   3.306  50.693  1.00  0.00     0.174 HD
HETATM   21  H7  UNL     1      18.151   2.089  50.918  1.00  0.00     0.174 HD
ENDBRANCH   3  19
BRANCH   1  22
HETATM   22  N1  UNL     1      18.926  -1.612  53.821  1.00  0.00    -0.340 N 
HETATM   23  H5  UNL     1      19.590  -1.774  54.629  1.00  0.00     0.167 HD
BRANCH  22  24
HETATM   24  C4  UNL     1      17.725  -2.268  53.418  1.00  0.00     0.034 A 
HETATM   25  C3  UNL     1      17.440  -3.680  53.733  1.00  0.00     0.036 A 
HETATM   26  C2  UNL     1      16.294  -3.515  53.092  1.00  0.00    -0.058 A 
HETATM   27  C1  UNL     1      15.091  -4.291  52.728  1.00  0.00     0.048 C 
HETATM   28  C18 UNL     1      16.567  -2.117  52.776  1.00  0.00     0.036 A 
ENDBRANCH  22  24
ENDBRANCH   1  22
TORSDOF 5
ENDMDL
MODEL 4
REMARK VINA RESULT:      -8.2      4.258      7.169
REMARK  5 active torsions:
REMARK  status: ('A' for Active; 'I' for Inactive)
REMARK    1  A    between atoms: C4_4  and  N1_5 
REMARK    2  A    between atoms: N1_5  and  C5_6 
REMARK    3  A    between atoms: C6_8  and  N3_9 
REMARK    4  A    between atoms: N5_15  and  C11_16 
REMARK    5  A    between atoms: C11_16  and  C12_17 
ROOT
HETATM    1  C5  UNL     1      24.563   0.755  53.088  1.00  0.00     0.161 A 
HETATM    2  N2  UNL     1      23.206   0.689  53.147  1.00  0.00    -0.044 NA
HETATM    3  C6  UNL     1      22.425   1.392  52.319  1.00  0.00     0.724 A 
HETATM    4  N4  UNL     1      22.943   2.209  51.378  1.00  0.00    -0.044 NA
HETATM    5  C7  UNL     1      24.274   2.353  51.225  1.00  0.00     0.163 A 
HETATM    6  C8  UNL     1      25.028   1.605  52.106  1.00  0.00     0.059 A 
HETATM    7  C9  UNL     1      26.351   1.908  51.771  1.00  0.00     0.036 A 
HETATM    8  C10 UNL     1      26.355   2.812  50.720  1.00  0.00     0.094 A 
HETATM    9  N5  UNL     1      25.087   3.059  50.417  1.00  0.00    -0.336 N 
ENDROOT
BRANCH   9  10
HETATM   10  C11 UNL     1      24.581   3.956  49.368  1.00  0.00     0.168 C 
BRANCH  10  11
HETATM   11  C12 UNL     1      25.300   5.272  49.463  1.00  0.00    -0.038 A 
HETATM   12  C13 UNL     1      24.745   6.139  50.405  1.00  0.00     0.010 A 
HETATM   13  C14 UNL     1      25.371   7.367  50.532  1.00  0.00     0.026 A 
HETATM   14  C15 UNL     1      26.478   7.769  49.804  1.00  0.00     0.055 A 
HETATM   15 CL1  UNL     1      27.199   9.346  50.039  1.00  0.00    -0.083 Cl
HETATM   16  C16 UNL     1      26.944   6.845  48.908  1.00  0.00     0.056 A 
HETATM   17 CL2  UNL     1      28.351   7.295  47.948  1.00  0.00    -0.083 Cl
HETATM   18  C17 UNL     1      26.399   5.596  48.699  1.00  0.00     0.034 A 
ENDBRANCH  10  11
ENDBRANCH   9  10
BRANCH   3  19
HETATM   19  N3  UNL     1      21.026   1.213  52.511  1.00  0.00    -0.231 N 
HETATM   20  H6  UNL     1      20.149   1.538  52.953  1.00  0.00     0.174 HD
HETATM   21  H7  UNL     1      20.623   0.395  52.008  1.00  0.00     0.174 HD
ENDBRANCH   3  19
BRANCH   1  22
HETATM   22  N1  UNL     1      25.461   0.040  53.930  1.00  0.00    -0.340 N 
HETATM   23  H5  UNL     1      24.790  -0.070  54.741  1.00  0.00     0.167 HD
BRANCH  22  24
HETATM   24  C4  UNL     1      26.810  -0.380  53.735  1.00  0.00     0.034 A 
HETATM   25  C3  UNL     1      27.935   0.152  54.524  1.00  0.00     0.036 A 
HETATM   26  C2  UNL     1      28.716  -0.648  53.814  1.00  0.00    -0.058 A 
HETATM   27  C1  UNL     1      30.143  -1.009  53.698  1.00  0.00     0.048 C 
HETATM   28  C18 UNL     1      27.607  -1.180  53.028  1.00  0.00     0.036 A 
ENDBRANCH  22  24
ENDBRANCH   1  22
TORSDOF 5
ENDMDL
MODEL 5
REMARK VINA RESULT:      -8.1      4.731      7.869
REMARK  5 active torsions:
REMARK  status: ('A' for Active; 'I' for Inactive)
REMARK    1  A    between atoms: C4_4  and  N1_5 
REMARK    2  A    between atoms: N1_5  and  C5_6 
REMARK    3  A    between atoms: C6_8  and  N3_9 
REMARK    4  A    between atoms: N5_15  and  C11_16 
REMARK    5  A    between atoms: C11_16  and  C12_17 
ROOT
HETATM    1  C5  UNL     1      25.036   2.906  51.618  1.00  0.00     0.161 A 
HETATM    2  N2  UNL     1      23.997   3.524  52.242  1.00  0.00    -0.044 NA
HETATM    3  C6  UNL     1      23.578   4.743  51.884  1.00  0.00     0.724 A 
HETATM    4  N4  UNL     1      24.165   5.429  50.880  1.00  0.00    -0.044 NA
HETATM    5  C7  UNL     1      25.203   4.917  50.189  1.00  0.00     0.163 A 
HETATM    6  C8  UNL     1      25.591   3.660  50.603  1.00  0.00     0.059 A 
HETATM    7  C9  UNL     1      26.661   3.335  49.763  1.00  0.00     0.036 A 
HETATM    8  C10 UNL     1      26.882   4.386  48.887  1.00  0.00     0.094 A 
HETATM    9  N5  UNL     1      25.986   5.323  49.172  1.00  0.00    -0.336 N 
ENDROOT
BRANCH   9  10
HETATM   10  C11 UNL     1      25.821   6.626  48.513  1.00  0.00     0.168 C 
BRANCH  10  11
HETATM   11  C12 UNL     1      27.069   7.437  48.716  1.00  0.00    -0.038 A 
HETATM   12  C13 UNL     1      26.923   8.450  49.665  1.00  0.00     0.010 A 
HETATM   13  C14 UNL     1      28.047   9.227  49.890  1.00  0.00     0.026 A 
HETATM   14  C15 UNL     1      29.263   9.061  49.250  1.00  0.00     0.055 A 
HETATM   15 CL1  UNL     1      30.627  10.099  49.605  1.00  0.00    -0.083 Cl
HETATM   16  C16 UNL     1      29.300   8.041  48.338  1.00  0.00     0.056 A 
HETATM   17 CL2  UNL     1      30.821   7.778  47.488  1.00  0.00    -0.083 Cl
HETATM   18  C17 UNL     1      28.244   7.208  48.036  1.00  0.00     0.034 A 
ENDBRANCH  10  11
ENDBRANCH   9  10
BRANCH   3  19
HETATM   19  N3  UNL     1      22.481   5.249  52.636  1.00  0.00    -0.231 N 
HETATM   20  H6  UNL     1      21.876   6.052  52.880  1.00  0.00     0.174 HD
HETATM   21  H7  UNL     1      22.022   4.548  53.255  1.00  0.00     0.174 HD
ENDBRANCH   3  19
BRANCH   1  22
HETATM   22  N1  UNL     1      25.541   1.615  51.938  1.00  0.00    -0.340 N 
HETATM   23  H5  UNL     1      24.694   1.077  51.597  1.00  0.00     0.167 HD
BRANCH  22  24
HETATM   24  C4  UNL     1      26.773   1.197  52.521  1.00  0.00     0.034 A 
HETATM   25  C3  UNL     1      27.175  -0.218  52.614  1.00  0.00     0.036 A 
HETATM   26  C2  UNL     1      28.283   0.211  53.198  1.00  0.00    -0.058 A 
HETATM   27  C1  UNL     1      29.528  -0.332  53.778  1.00  0.00     0.048 C 
HETATM   28  C18 UNL     1      27.893   1.614  53.110  1.00  0.00     0.036 A 
ENDBRANCH  22  24
ENDBRANCH   1  22
TORSDOF 5
ENDMDL
MODEL 6
REMARK VINA RESULT:      -8.0      4.132      6.588
REMARK  5 active torsions:
REMARK  status: ('A' for Active; 'I' for Inactive)
REMARK    1  A    between atoms: C4_4  and  N1_5 
REMARK    2  A    between atoms: N1_5  and  C5_6 
REMARK    3  A    between atoms: C6_8  and  N3_9 
REMARK    4  A    between atoms: N5_15  and  C11_16 
REMARK    5  A    between atoms: C11_16  and  C12_17 
ROOT
HETATM    1  C5  UNL     1      23.890  -0.187  53.450  1.00  0.00     0.161 A 
HETATM    2  N2  UNL     1      22.708  -0.479  54.058  1.00  0.00    -0.044 NA
HETATM    3  C6  UNL     1      21.619   0.281  53.893  1.00  0.00     0.724 A 
HETATM    4  N4  UNL     1      21.633   1.383  53.114  1.00  0.00    -0.044 NA
HETATM    5  C7  UNL     1      22.747   1.770  52.461  1.00  0.00     0.163 A 
HETATM    6  C8  UNL     1      23.837   0.950  52.669  1.00  0.00     0.059 A 
HETATM    7  C9  UNL     1      24.857   1.533  51.911  1.00  0.00     0.036 A 
HETATM    8  C10 UNL     1      24.362   2.665  51.282  1.00  0.00     0.094 A 
HETATM    9  N5  UNL     1      23.087   2.778  51.637  1.00  0.00    -0.336 N 
ENDROOT
BRANCH   9  10
HETATM   10  C11 UNL     1      22.139   3.822  51.224  1.00  0.00     0.168 C 
BRANCH  10  11
HETATM   11  C12 UNL     1      22.111   3.891  49.724  1.00  0.00    -0.038 A 
HETATM   12  C13 UNL     1      21.693   2.702  49.123  1.00  0.00     0.010 A 
HETATM   13  C14 UNL     1      21.650   2.713  47.739  1.00  0.00     0.026 A 
HETATM   14  C15 UNL     1      21.985   3.798  46.946  1.00  0.00     0.055 A 
HETATM   15 CL1  UNL     1      21.896   3.710  45.201  1.00  0.00    -0.083 Cl
HETATM   16  C16 UNL     1      22.381   4.913  47.634  1.00  0.00     0.056 A 
HETATM   17 CL2  UNL     1      22.822   6.329  46.682  1.00  0.00    -0.083 Cl
HETATM   18  C17 UNL     1      22.461   5.012  49.007  1.00  0.00     0.034 A 
ENDBRANCH  10  11
ENDBRANCH   9  10
BRANCH   3  19
HETATM   19  N3  UNL     1      20.464  -0.161  54.598  1.00  0.00    -0.231 N 
HETATM   20  H6  UNL     1      19.882  -0.115  55.452  1.00  0.00     0.174 HD
HETATM   21  H7  UNL     1      19.882  -0.854  54.082  1.00  0.00     0.174 HD
ENDBRANCH   3  19
BRANCH   1  22
HETATM   22  N1  UNL     1      25.089  -0.942  53.573  1.00  0.00    -0.340 N 
HETATM   23  H5  UNL     1      24.630  -1.893  53.501  1.00  0.00     0.167 HD
BRANCH  22  24
HETATM   24  C4  UNL     1      26.448  -0.542  53.738  1.00  0.00     0.034 A 
HETATM   25  C3  UNL     1      27.528  -0.985  52.838  1.00  0.00     0.036 A 
HETATM   26  C2  UNL     1      28.348  -0.263  53.586  1.00  0.00    -0.058 A 
HETATM   27  C1  UNL     1      29.781   0.087  53.662  1.00  0.00     0.048 C 
HETATM   28  C18 UNL     1      27.285   0.181  54.482  1.00  0.00     0.036 A 
ENDBRANCH  22  24
ENDBRANCH   1  22
TORSDOF 5
ENDMDL
MODEL 7
REMARK VINA RESULT:      -7.9      3.221      5.057
REMARK  5 active torsions:
REMARK  status: ('A' for Active; 'I' for Inactive)
REMARK    1  A    between atoms: C4_4  and  N1_5 
REMARK    2  A    between atoms: N1_5  and  C5_6 
REMARK    3  A    between atoms: C6_8  and  N3_9 
REMARK    4  A    between atoms: N5_15  and  C11_16 
REMARK    5  A    between atoms: C11_16  and  C12_17 
ROOT
HETATM    1  C5  UNL     1      22.353   2.058  48.935  1.00  0.00     0.161 A 
HETATM    2  N2  UNL     1      21.382   1.331  49.550  1.00  0.00    -0.044 NA
HETATM    3  C6  UNL     1      21.442   1.021  50.850  1.00  0.00     0.724 A 
HETATM    4  N4  UNL     1      22.475   1.416  51.626  1.00  0.00    -0.044 NA
HETATM    5  C7  UNL     1      23.494   2.142  51.126  1.00  0.00     0.163 A 
HETATM    6  C8  UNL     1      23.377   2.430  49.782  1.00  0.00     0.059 A 
HETATM    7  C9  UNL     1      24.523   3.175  49.488  1.00  0.00     0.036 A 
HETATM    8  C10 UNL     1      25.282   3.311  50.641  1.00  0.00     0.094 A 
HETATM    9  N5  UNL     1      24.632   2.676  51.608  1.00  0.00    -0.336 N 
ENDROOT
BRANCH   9  10
HETATM   10  C11 UNL     1      25.041   2.541  53.014  1.00  0.00     0.168 C 
BRANCH  10  11
HETATM   11  C12 UNL     1      26.182   1.568  53.098  1.00  0.00    -0.038 A 
HETATM   12  C13 UNL     1      27.378   2.153  53.518  1.00  0.00     0.010 A 
HETATM   13  C14 UNL     1      28.463   1.297  53.613  1.00  0.00     0.026 A 
HETATM   14  C15 UNL     1      28.429  -0.057  53.326  1.00  0.00     0.055 A 
HETATM   15 CL1  UNL     1      29.859  -1.055  53.478  1.00  0.00    -0.083 Cl
HETATM   16  C16 UNL     1      27.210  -0.529  52.923  1.00  0.00     0.056 A 
HETATM   17 CL2  UNL     1      27.100  -2.246  52.541  1.00  0.00    -0.083 Cl
HETATM   18  C17 UNL     1      26.067   0.230  52.793  1.00  0.00     0.034 A 
ENDBRANCH  10  11
ENDBRANCH   9  10
BRANCH   3  19
HETATM   19  N3  UNL     1      20.348   0.254  51.340  1.00  0.00    -0.231 N 
HETATM   20  H6  UNL     1      20.014  -0.525  51.933  1.00  0.00     0.174 HD
HETATM   21  H7  UNL     1      19.417   0.551  50.979  1.00  0.00     0.174 HD
ENDBRANCH   3  19
BRANCH   1  22
HETATM   22  N1  UNL     1      22.361   2.428  47.561  1.00  0.00    -0.340 N 
HETATM   23  H5  UNL     1      22.632   1.475  47.191  1.00  0.00     0.167 HD
BRANCH  22  24
HETATM   24  C4  UNL     1      22.094   3.670  46.913  1.00  0.00     0.034 A 
HETATM   25  C3  UNL     1      21.873   3.783  45.460  1.00  0.00     0.036 A 
HETATM   26  C2  UNL     1      21.716   5.083  45.659  1.00  0.00    -0.058 A 
HETATM   27  C1  UNL     1      21.433   6.309  44.887  1.00  0.00     0.048 C 
HETATM   28  C18 UNL     1      21.932   4.980  47.099  1.00  0.00     0.036 A 
ENDBRANCH  22  24
ENDBRANCH   1  22
TORSDOF 5
ENDMDL
MODEL 8
REMARK VINA RESULT:      -7.8      4.185      5.920
REMARK  5 active torsions:
REMARK  status: ('A' for Active; 'I' for Inactive)
REMARK    1  A    between atoms: C4_4  and  N1_5 
REMARK    2  A    between atoms: N1_5  and  C5_6 
REMARK    3  A    between atoms: C6_8  and  N3_9 
REMARK    4  A    between atoms: N5_15  and  C11_16 
REMARK    5  A    between atoms: C11_16  and  C12_17 
ROOT
HETATM    1  C5  UNL     1      24.688   1.317  53.622  1.00  0.00     0.161 A 
HETATM    2  N2  UNL     1      24.835   2.650  53.395  1.00  0.00    -0.044 NA
HETATM    3  C6  UNL     1      23.900   3.369  52.765  1.00  0.00     0.724 A 
HETATM    4  N4  UNL     1      22.756   2.810  52.318  1.00  0.00    -0.044 NA
HETATM    5  C7  UNL     1      22.500   1.497  52.487  1.00  0.00     0.163 A 
HETATM    6  C8  UNL     1      23.499   0.807  53.142  1.00  0.00     0.059 A 
HETATM    7  C9  UNL     1      23.027  -0.508  53.203  1.00  0.00     0.036 A 
HETATM    8  C10 UNL     1      21.782  -0.569  52.594  1.00  0.00     0.094 A 
HETATM    9  N5  UNL     1      21.496   0.657  52.174  1.00  0.00    -0.336 N 
ENDROOT
BRANCH   9  10
HETATM   10  C11 UNL     1      20.283   1.094  51.468  1.00  0.00     0.168 C 
BRANCH  10  11
HETATM   11  C12 UNL     1      20.681   1.746  50.174  1.00  0.00    -0.038 A 
HETATM   12  C13 UNL     1      21.408   0.904  49.331  1.00  0.00     0.010 A 
HETATM   13  C14 UNL     1      21.799   1.457  48.123  1.00  0.00     0.026 A 
HETATM   14  C15 UNL     1      21.518   2.751  47.719  1.00  0.00     0.055 A 
HETATM   15 CL1  UNL     1      22.058   3.357  46.169  1.00  0.00    -0.083 Cl
HETATM   16  C16 UNL     1      20.800   3.492  48.618  1.00  0.00     0.056 A 
HETATM   17 CL2  UNL     1      20.411   5.150  48.164  1.00  0.00    -0.083 Cl
HETATM   18  C17 UNL     1      20.362   3.044  49.846  1.00  0.00     0.034 A 
ENDBRANCH  10  11
ENDBRANCH   9  10
BRANCH   3  19
HETATM   19  N3  UNL     1      24.207   4.750  52.605  1.00  0.00    -0.231 N 
HETATM   20  H6  UNL     1      24.033   5.639  52.106  1.00  0.00     0.174 HD
HETATM   21  H7  UNL     1      24.938   5.108  53.256  1.00  0.00     0.174 HD
ENDBRANCH   3  19
BRANCH   1  22
HETATM   22  N1  UNL     1      25.633   0.483  54.284  1.00  0.00    -0.340 N 
HETATM   23  H5  UNL     1      25.055   0.332  55.158  1.00  0.00     0.167 HD
BRANCH  22  24
HETATM   24  C4  UNL     1      26.922   0.016  53.892  1.00  0.00     0.034 A 
HETATM   25  C3  UNL     1      28.130   0.217  54.713  1.00  0.00     0.036 A 
HETATM   26  C2  UNL     1      28.792  -0.426  53.764  1.00  0.00    -0.058 A 
HETATM   27  C1  UNL     1      30.169  -0.865  53.458  1.00  0.00     0.048 C 
HETATM   28  C18 UNL     1      27.602  -0.631  52.945  1.00  0.00     0.036 A 
ENDBRANCH  22  24
ENDBRANCH   1  22
TORSDOF 5
ENDMDL
MODEL 9
REMARK VINA RESULT:      -7.8      4.165      8.293
REMARK  5 active torsions:
REMARK  status: ('A' for Active; 'I' for Inactive)
REMARK    1  A    between atoms: C4_4  and  N1_5 
REMARK    2  A    between atoms: N1_5  and  C5_6 
REMARK    3  A    between atoms: C6_8  and  N3_9 
REMARK    4  A    between atoms: N5_15  and  C11_16 
REMARK    5  A    between atoms: C11_16  and  C12_17 
ROOT
HETATM    1  C5  UNL     1      24.737   3.292  51.576  1.00  0.00     0.161 A 
HETATM    2  N2  UNL     1      23.657   4.003  51.999  1.00  0.00    -0.044 NA
HETATM    3  C6  UNL     1      23.336   5.189  51.469  1.00  0.00     0.724 A 
HETATM    4  N4  UNL     1      24.070   5.748  50.484  1.00  0.00    -0.044 NA
HETATM    5  C7  UNL     1      25.162   5.135  49.984  1.00  0.00     0.163 A 
HETATM    6  C8  UNL     1      25.443   3.918  50.568  1.00  0.00     0.059 A 
HETATM    7  C9  UNL     1      26.593   3.476  49.906  1.00  0.00     0.036 A 
HETATM    8  C10 UNL     1      26.963   4.422  48.963  1.00  0.00     0.094 A 
HETATM    9  N5  UNL     1      26.078   5.409  49.037  1.00  0.00    -0.336 N 
ENDROOT
BRANCH   9  10
HETATM   10  C11 UNL     1      26.050   6.639  48.234  1.00  0.00     0.168 C 
BRANCH  10  11
HETATM   11  C12 UNL     1      27.281   7.447  48.535  1.00  0.00    -0.038 A 
HETATM   12  C13 UNL     1      27.068   8.450  49.481  1.00  0.00     0.010 A 
HETATM   13  C14 UNL     1      28.173   9.224  49.794  1.00  0.00     0.026 A 
HETATM   14  C15 UNL     1      29.432   9.063  49.242  1.00  0.00     0.055 A 
HETATM   15 CL1  UNL     1      30.767  10.095  49.705  1.00  0.00    -0.083 Cl
HETATM   16  C16 UNL     1      29.533   8.052  48.325  1.00  0.00     0.056 A 
HETATM   17 CL2  UNL     1      31.111   7.796  47.583  1.00  0.00    -0.083 Cl
HETATM   18  C17 UNL     1      28.502   7.223  47.939  1.00  0.00     0.034 A 
ENDBRANCH  10  11
ENDBRANCH   9  10
BRANCH   3  19
HETATM   19  N3  UNL     1      22.178   5.803  52.023  1.00  0.00    -0.231 N 
HETATM   20  H6  UNL     1      21.624   6.042  52.864  1.00  0.00     0.174 HD
HETATM   21  H7  UNL     1      21.540   6.234  51.321  1.00  0.00     0.174 HD
ENDBRANCH   3  19
BRANCH   1  22
HETATM   22  N1  UNL     1      25.144   2.028  52.085  1.00  0.00    -0.340 N 
HETATM   23  H5  UNL     1      26.163   2.121  51.814  1.00  0.00     0.167 HD
BRANCH  22  24
HETATM   24  C4  UNL     1      24.415   0.991  52.740  1.00  0.00     0.034 A 
HETATM   25  C3  UNL     1      22.970   0.780  52.539  1.00  0.00     0.036 A 
HETATM   26  C2  UNL     1      23.075  -0.232  53.387  1.00  0.00    -0.058 A 
HETATM   27  C1  UNL     1      22.224  -1.267  54.008  1.00  0.00     0.048 C 
HETATM   28  C18 UNL     1      24.506  -0.030  53.591  1.00  0.00     0.036 A 
ENDBRANCH  22  24
ENDBRANCH   1  22
TORSDOF 5
ENDMDL
