MODEL 1
REMARK VINA RESULT:      -8.1      0.000      0.000
REMARK  6 active torsions:
REMARK  status: ('A' for Active; 'I' for Inactive)
REMARK    1  A    between atoms: C3_3  and  N2_14 
REMARK    2  A    between atoms: C4_4  and  C5_5 
REMARK       I    between atoms: C5_5  and  N1_7 
REMARK    3  A    between atoms: N1_7  and  C6_8 
REMARK    4  A    between atoms: N2_14  and  C12_15 
REMARK    5  A    between atoms: C12_15  and  C13_16 
REMARK    6  A    between atoms: C13_16  and  C14_17 
ROOT
HETATM    1  C1  UNL     1      21.953   1.730  52.207  1.00  0.00     0.019 C 
HETATM    2  C2  UNL     1      22.938   2.407  52.356  1.00  0.00    -0.060 C 
HETATM    3  C3  UNL     1      24.098   3.226  52.516  1.00  0.00     0.087 C 
HETATM    4  C4  UNL     1      25.198   2.732  53.111  1.00  0.00     0.113 C 
ENDROOT
BRANCH   3   5
HETATM    5  N2  UNL     1      24.245   4.576  52.097  1.00  0.00    -0.383 N 
HETATM    6  H9  UNL     1      24.507   5.202  52.881  1.00  0.00     0.160 HD
BRANCH   5   7
HETATM    7  C12 UNL     1      24.027   4.908  50.711  1.00  0.00     0.125 C 
BRANCH   7   8
HETATM    8  C13 UNL     1      24.908   4.169  49.747  1.00  0.00     0.058 C 
BRANCH   8   9
HETATM    9  C14 UNL     1      25.975   5.021  49.205  1.00  0.00    -0.055 A 
HETATM   10  C15 UNL     1      27.196   4.402  48.972  1.00  0.00     0.007 A 
HETATM   11  C16 UNL     1      28.320   5.018  48.472  1.00  0.00     0.002 A 
HETATM   12  C17 UNL     1      28.249   6.361  48.171  1.00  0.00     0.024 A 
HETATM   13  C18 UNL     1      27.060   7.020  48.385  1.00  0.00     0.034 A 
HETATM   14 CL1  UNL     1      26.912   8.717  48.023  1.00  0.00    -0.084 Cl
HETATM   15  C19 UNL     1      25.964   6.359  48.887  1.00  0.00     0.031 A 
ENDBRANCH   8   9
ENDBRANCH   7   8
ENDBRANCH   5   7
ENDBRANCH   3   5
BRANCH   4  16
HETATM   16  C5  UNL     1      25.908   1.658  53.760  1.00  0.00     0.248 C 
HETATM   17  O1  UNL     1      26.219   0.999  54.799  1.00  0.00    -0.268 OA
HETATM   18  N1  UNL     1      26.651   0.956  52.749  1.00  0.00    -0.324 N 
HETATM   19  H3  UNL     1      26.828   0.991  51.699  1.00  0.00     0.169 HD
BRANCH  18  20
HETATM   20  C6  UNL     1      27.511  -0.186  52.908  1.00  0.00     0.035 A 
HETATM   21  C7  UNL     1      27.124  -1.506  52.710  1.00  0.00     0.029 A 
HETATM   22  C8  UNL     1      28.040  -2.532  52.892  1.00  0.00     0.002 A 
HETATM   23  C9  UNL     1      29.345  -2.287  53.269  1.00  0.00     0.000 A 
HETATM   24  C10 UNL     1      29.784  -0.981  53.479  1.00  0.00     0.002 A 
HETATM   25  C11 UNL     1      28.837   0.021  53.286  1.00  0.00     0.029 A 
ENDBRANCH  18  20
ENDBRANCH   4  16
TORSDOF 6
ENDMDL
MODEL 2
REMARK VINA RESULT:      -8.0      1.574      2.155
REMARK  6 active torsions:
REMARK  status: ('A' for Active; 'I' for Inactive)
REMARK    1  A    between atoms: C3_3  and  N2_14 
REMARK    2  A    between atoms: C4_4  and  C5_5 
REMARK       I    between atoms: C5_5  and  N1_7 
REMARK    3  A    between atoms: N1_7  and  C6_8 
REMARK    4  A    between atoms: N2_14  and  C12_15 
REMARK    5  A    between atoms: C12_15  and  C13_16 
REMARK    6  A    between atoms: C13_16  and  C14_17 
ROOT
HETATM    1  C1  UNL     1      20.787   0.083  54.483  1.00  0.00     0.019 C 
HETATM    2  C2  UNL     1      21.586   0.453  53.660  1.00  0.00    -0.060 C 
HETATM    3  C3  UNL     1      22.516   0.895  52.669  1.00  0.00     0.087 C 
HETATM    4  C4  UNL     1      23.832   0.677  52.831  1.00  0.00     0.113 C 
ENDROOT
BRANCH   3   5
HETATM    5  N2  UNL     1      22.203   1.574  51.460  1.00  0.00    -0.383 N 
HETATM    6  H9  UNL     1      21.697   0.966  50.790  1.00  0.00     0.160 HD
BRANCH   5   7
HETATM    7  C12 UNL     1      22.598   2.952  51.308  1.00  0.00     0.125 C 
BRANCH   7   8
HETATM    8  C13 UNL     1      22.768   3.398  49.884  1.00  0.00     0.058 C 
BRANCH   8   9
HETATM    9  C14 UNL     1      24.128   3.879  49.613  1.00  0.00    -0.055 A 
HETATM   10  C15 UNL     1      25.164   3.029  49.977  1.00  0.00     0.007 A 
HETATM   11  C16 UNL     1      26.506   3.289  49.812  1.00  0.00     0.002 A 
HETATM   12  C17 UNL     1      26.873   4.487  49.240  1.00  0.00     0.024 A 
HETATM   13  C18 UNL     1      25.882   5.366  48.863  1.00  0.00     0.034 A 
HETATM   14 CL1  UNL     1      26.286   6.896  48.136  1.00  0.00    -0.084 Cl
HETATM   15  C19 UNL     1      24.554   5.059  49.049  1.00  0.00     0.031 A 
ENDBRANCH   8   9
ENDBRANCH   7   8
ENDBRANCH   5   7
ENDBRANCH   3   5
BRANCH   4  16
HETATM   16  C5  UNL     1      24.941   0.157  53.591  1.00  0.00     0.248 C 
HETATM   17  O1  UNL     1      25.443  -0.270  54.676  1.00  0.00    -0.268 OA
HETATM   18  N1  UNL     1      26.068   0.058  52.703  1.00  0.00    -0.324 N 
HETATM   19  H3  UNL     1      26.319   0.248  51.685  1.00  0.00     0.169 HD
BRANCH  18  20
HETATM   20  C6  UNL     1      27.397  -0.405  52.999  1.00  0.00     0.035 A 
HETATM   21  C7  UNL     1      27.816  -1.727  52.915  1.00  0.00     0.029 A 
HETATM   22  C8  UNL     1      29.126  -2.061  53.224  1.00  0.00     0.002 A 
HETATM   23  C9  UNL     1      30.047  -1.112  53.620  1.00  0.00     0.000 A 
HETATM   24  C10 UNL     1      29.679   0.229  53.720  1.00  0.00     0.002 A 
HETATM   25  C11 UNL     1      28.356   0.524  53.401  1.00  0.00     0.029 A 
ENDBRANCH  18  20
ENDBRANCH   4  16
TORSDOF 6
ENDMDL
MODEL 3
REMARK VINA RESULT:      -7.9      3.392      6.053
REMARK  6 active torsions:
REMARK  status: ('A' for Active; 'I' for Inactive)
REMARK    1  A    between atoms: C3_3  and  N2_14 
REMARK    2  A    between atoms: C4_4  and  C5_5 
REMARK       I    between atoms: C5_5  and  N1_7 
REMARK    3  A    between atoms: N1_7  and  C6_8 
REMARK    4  A    between atoms: N2_14  and  C12_15 
REMARK    5  A    between atoms: C12_15  and  C13_16 
REMARK    6  A    between atoms: C13_16  and  C14_17 
ROOT
HETATM    1  C1  UNL     1      24.040   5.054  48.859  1.00  0.00     0.019 C 
HETATM    2  C2  UNL     1      23.845   4.319  49.794  1.00  0.00    -0.060 C 
HETATM    3  C3  UNL     1      23.592   3.459  50.907  1.00  0.00     0.087 C 
HETATM    4  C4  UNL     1      24.605   2.799  51.496  1.00  0.00     0.113 C 
ENDROOT
BRANCH   3   5
HETATM    5  N2  UNL     1      22.330   3.200  51.506  1.00  0.00    -0.383 N 
HETATM    6  H9  UNL     1      22.230   3.670  52.426  1.00  0.00     0.160 HD
BRANCH   5   7
HETATM    7  C12 UNL     1      21.382   2.366  50.812  1.00  0.00     0.125 C 
BRANCH   7   8
HETATM    8  C13 UNL     1      21.734   0.907  50.788  1.00  0.00     0.058 C 
BRANCH   8   9
HETATM    9  C14 UNL     1      21.850   0.343  52.139  1.00  0.00    -0.055 A 
HETATM   10  C15 UNL     1      20.663   0.187  52.842  1.00  0.00     0.007 A 
HETATM   11  C16 UNL     1      20.551  -0.320  54.117  1.00  0.00     0.002 A 
HETATM   12  C17 UNL     1      21.702  -0.710  54.767  1.00  0.00     0.024 A 
HETATM   13  C18 UNL     1      22.904  -0.574  54.112  1.00  0.00     0.034 A 
HETATM   14 CL1  UNL     1      24.391  -1.049  54.884  1.00  0.00    -0.084 Cl
HETATM   15  C19 UNL     1      22.963  -0.062  52.837  1.00  0.00     0.031 A 
ENDBRANCH   8   9
ENDBRANCH   7   8
ENDBRANCH   5   7
ENDBRANCH   3   5
BRANCH   4  16
HETATM   16  C5  UNL     1      26.003   2.465  51.599  1.00  0.00     0.248 C 
HETATM   17  O1  UNL     1      27.212   2.617  51.241  1.00  0.00    -0.268 OA
HETATM   18  N1  UNL     1      26.135   1.449  52.607  1.00  0.00    -0.324 N 
HETATM   19  H3  UNL     1      25.528   0.888  53.278  1.00  0.00     0.169 HD
BRANCH  18  20
HETATM   20  C6  UNL     1      27.333   0.798  53.064  1.00  0.00     0.035 A 
HETATM   21  C7  UNL     1      28.363   1.423  53.756  1.00  0.00     0.029 A 
HETATM   22  C8  UNL     1      29.476   0.694  54.150  1.00  0.00     0.002 A 
HETATM   23  C9  UNL     1      29.601  -0.653  53.877  1.00  0.00     0.000 A 
HETATM   24  C10 UNL     1      28.595  -1.328  53.186  1.00  0.00     0.002 A 
HETATM   25  C11 UNL     1      27.495  -0.563  52.808  1.00  0.00     0.029 A 
ENDBRANCH  18  20
ENDBRANCH   4  16
TORSDOF 6
ENDMDL
MODEL 4
REMARK VINA RESULT:      -7.9      2.047      2.888
REMARK  6 active torsions:
REMARK  status: ('A' for Active; 'I' for Inactive)
REMARK    1  A    between atoms: C3_3  and  N2_14 
REMARK    2  A    between atoms: C4_4  and  C5_5 
REMARK       I    between atoms: C5_5  and  N1_7 
REMARK    3  A    between atoms: N1_7  and  C6_8 
REMARK    4  A    between atoms: N2_14  and  C12_15 
REMARK    5  A    between atoms: C12_15  and  C13_16 
REMARK    6  A    between atoms: C13_16  and  C14_17 
ROOT
HETATM    1  C1  UNL     1      23.777   4.077  52.852  1.00  0.00     0.019 C 
HETATM    2  C2  UNL     1      23.442   2.947  52.599  1.00  0.00    -0.060 C 
HETATM    3  C3  UNL     1      23.024   1.616  52.293  1.00  0.00     0.087 C 
HETATM    4  C4  UNL     1      23.719   0.564  52.759  1.00  0.00     0.113 C 
ENDROOT
BRANCH   3   5
HETATM    5  N2  UNL     1      21.897   1.242  51.512  1.00  0.00    -0.383 N 
HETATM    6  H9  UNL     1      21.494   0.337  51.816  1.00  0.00     0.160 HD
BRANCH   5   7
HETATM    7  C12 UNL     1      21.462   2.111  50.447  1.00  0.00     0.125 C 
BRANCH   7   8
HETATM    8  C13 UNL     1      22.314   2.058  49.212  1.00  0.00     0.058 C 
BRANCH   8   9
HETATM    9  C14 UNL     1      23.242   3.193  49.130  1.00  0.00    -0.055 A 
HETATM   10  C15 UNL     1      22.670   4.438  48.906  1.00  0.00     0.007 A 
HETATM   11  C16 UNL     1      23.358   5.625  48.795  1.00  0.00     0.002 A 
HETATM   12  C17 UNL     1      24.731   5.597  48.912  1.00  0.00     0.024 A 
HETATM   13  C18 UNL     1      25.346   4.385  49.134  1.00  0.00     0.034 A 
HETATM   14 CL1  UNL     1      27.077   4.288  49.291  1.00  0.00    -0.084 Cl
HETATM   15  C19 UNL     1      24.612   3.226  49.238  1.00  0.00     0.031 A 
ENDBRANCH   8   9
ENDBRANCH   7   8
ENDBRANCH   5   7
ENDBRANCH   3   5
BRANCH   4  16
HETATM   16  C5  UNL     1      24.817   0.010  53.511  1.00  0.00     0.248 C 
HETATM   17  O1  UNL     1      25.290  -0.513  54.567  1.00  0.00    -0.268 OA
HETATM   18  N1  UNL     1      25.984   0.056  52.674  1.00  0.00    -0.324 N 
HETATM   19  H3  UNL     1      26.271   0.367  51.696  1.00  0.00     0.169 HD
BRANCH  18  20
HETATM   20  C6  UNL     1      27.319  -0.381  52.982  1.00  0.00     0.035 A 
HETATM   21  C7  UNL     1      27.765  -1.695  52.900  1.00  0.00     0.029 A 
HETATM   22  C8  UNL     1      29.078  -2.003  53.222  1.00  0.00     0.002 A 
HETATM   23  C9  UNL     1      29.977  -1.038  53.628  1.00  0.00     0.000 A 
HETATM   24  C10 UNL     1      29.581   0.296  53.726  1.00  0.00     0.002 A 
HETATM   25  C11 UNL     1      28.256   0.565  53.395  1.00  0.00     0.029 A 
ENDBRANCH  18  20
ENDBRANCH   4  16
TORSDOF 6
ENDMDL
MODEL 5
REMARK VINA RESULT:      -7.7      2.375      3.248
REMARK  6 active torsions:
REMARK  status: ('A' for Active; 'I' for Inactive)
REMARK    1  A    between atoms: C3_3  and  N2_14 
REMARK    2  A    between atoms: C4_4  and  C5_5 
REMARK       I    between atoms: C5_5  and  N1_7 
REMARK    3  A    between atoms: N1_7  and  C6_8 
REMARK    4  A    between atoms: N2_14  and  C12_15 
REMARK    5  A    between atoms: C12_15  and  C13_16 
REMARK    6  A    between atoms: C13_16  and  C14_17 
ROOT
HETATM    1  C1  UNL     1      20.852   0.284  54.928  1.00  0.00     0.019 C 
HETATM    2  C2  UNL     1      21.531   0.191  53.937  1.00  0.00    -0.060 C 
HETATM    3  C3  UNL     1      22.316   0.078  52.748  1.00  0.00     0.087 C 
HETATM    4  C4  UNL     1      23.626  -0.213  52.828  1.00  0.00     0.113 C 
ENDROOT
BRANCH   3   5
HETATM    5  N2  UNL     1      21.858   0.243  51.414  1.00  0.00    -0.383 N 
HETATM    6  H9  UNL     1      21.740  -0.665  50.926  1.00  0.00     0.160 HD
BRANCH   5   7
HETATM    7  C12 UNL     1      21.619   1.573  50.913  1.00  0.00     0.125 C 
BRANCH   7   8
HETATM    8  C13 UNL     1      22.399   1.924  49.679  1.00  0.00     0.058 C 
BRANCH   8   9
HETATM    9  C14 UNL     1      23.325   3.041  49.909  1.00  0.00    -0.055 A 
HETATM   10  C15 UNL     1      22.868   4.056  50.739  1.00  0.00     0.007 A 
HETATM   11  C16 UNL     1      23.574   5.187  51.080  1.00  0.00     0.002 A 
HETATM   12  C17 UNL     1      24.842   5.345  50.565  1.00  0.00     0.024 A 
HETATM   13  C18 UNL     1      25.340   4.366  49.735  1.00  0.00     0.034 A 
HETATM   14 CL1  UNL     1      26.937   4.511  49.054  1.00  0.00    -0.084 Cl
HETATM   15  C19 UNL     1      24.594   3.253  49.425  1.00  0.00     0.031 A 
ENDBRANCH   8   9
ENDBRANCH   7   8
ENDBRANCH   5   7
ENDBRANCH   3   5
BRANCH   4  16
HETATM   16  C5  UNL     1      24.809  -0.511  53.597  1.00  0.00     0.248 C 
HETATM   17  O1  UNL     1      25.375  -0.824  54.689  1.00  0.00    -0.268 OA
HETATM   18  N1  UNL     1      25.937  -0.415  52.713  1.00  0.00    -0.324 N 
HETATM   19  H3  UNL     1      26.154  -0.197  51.693  1.00  0.00     0.169 HD
BRANCH  18  20
HETATM   20  C6  UNL     1      27.328  -0.623  53.017  1.00  0.00     0.035 A 
HETATM   21  C7  UNL     1      27.974  -1.853  52.983  1.00  0.00     0.029 A 
HETATM   22  C8  UNL     1      29.322  -1.937  53.296  1.00  0.00     0.002 A 
HETATM   23  C9  UNL     1      30.061  -0.825  53.647  1.00  0.00     0.000 A 
HETATM   24  C10 UNL     1      29.462   0.432  53.696  1.00  0.00     0.002 A 
HETATM   25  C11 UNL     1      28.107   0.476  53.375  1.00  0.00     0.029 A 
ENDBRANCH  18  20
ENDBRANCH   4  16
TORSDOF 6
ENDMDL
MODEL 6
REMARK VINA RESULT:      -7.7      4.080      5.068
REMARK  6 active torsions:
REMARK  status: ('A' for Active; 'I' for Inactive)
REMARK    1  A    between atoms: C3_3  and  N2_14 
REMARK    2  A    between atoms: C4_4  and  C5_5 
REMARK       I    between atoms: C5_5  and  N1_7 
REMARK    3  A    between atoms: N1_7  and  C6_8 
REMARK    4  A    between atoms: N2_14  and  C12_15 
REMARK    5  A    between atoms: C12_15  and  C13_16 
REMARK    6  A    between atoms: C13_16  and  C14_17 
ROOT
HETATM    1  C1  UNL     1      23.061   2.857  52.541  1.00  0.00     0.019 C 
HETATM    2  C2  UNL     1      22.912   1.667  52.659  1.00  0.00    -0.060 C 
HETATM    3  C3  UNL     1      22.711   0.259  52.794  1.00  0.00     0.087 C 
HETATM    4  C4  UNL     1      23.646  -0.504  53.387  1.00  0.00     0.113 C 
ENDROOT
BRANCH   3   5
HETATM    5  N2  UNL     1      21.579  -0.479  52.356  1.00  0.00    -0.383 N 
HETATM    6  H9  UNL     1      21.848  -1.357  51.872  1.00  0.00     0.160 HD
BRANCH   5   7
HETATM    7  C12 UNL     1      20.260   0.038  52.617  1.00  0.00     0.125 C 
BRANCH   7   8
HETATM    8  C13 UNL     1      19.439   0.304  51.389  1.00  0.00     0.058 C 
BRANCH   8   9
HETATM    9  C14 UNL     1      20.055   1.313  50.518  1.00  0.00    -0.055 A 
HETATM   10  C15 UNL     1      19.677   2.630  50.742  1.00  0.00     0.007 A 
HETATM   11  C16 UNL     1      20.133   3.722  50.039  1.00  0.00     0.002 A 
HETATM   12  C17 UNL     1      21.042   3.512  49.025  1.00  0.00     0.024 A 
HETATM   13  C18 UNL     1      21.448   2.223  48.763  1.00  0.00     0.034 A 
HETATM   14 CL1  UNL     1      22.594   1.897  47.493  1.00  0.00    -0.084 Cl
HETATM   15  C19 UNL     1      20.962   1.165  49.495  1.00  0.00     0.031 A 
ENDBRANCH   8   9
ENDBRANCH   7   8
ENDBRANCH   5   7
ENDBRANCH   3   5
BRANCH   4  16
HETATM   16  C5  UNL     1      24.919  -0.656  54.046  1.00  0.00     0.248 C 
HETATM   17  O1  UNL     1      25.615  -0.826  55.095  1.00  0.00    -0.268 OA
HETATM   18  N1  UNL     1      25.941  -0.583  53.039  1.00  0.00    -0.324 N 
HETATM   19  H3  UNL     1      26.037  -0.454  51.986  1.00  0.00     0.169 HD
BRANCH  18  20
HETATM   20  C6  UNL     1      27.367  -0.680  53.208  1.00  0.00     0.035 A 
HETATM   21  C7  UNL     1      28.101  -1.855  53.106  1.00  0.00     0.029 A 
HETATM   22  C8  UNL     1      29.476  -1.831  53.289  1.00  0.00     0.002 A 
HETATM   23  C9  UNL     1      30.156  -0.663  53.572  1.00  0.00     0.000 A 
HETATM   24  C10 UNL     1      29.466   0.544  53.685  1.00  0.00     0.002 A 
HETATM   25  C11 UNL     1      28.088   0.479  53.495  1.00  0.00     0.029 A 
ENDBRANCH  18  20
ENDBRANCH   4  16
TORSDOF 6
ENDMDL
MODEL 7
REMARK VINA RESULT:      -7.7      3.423      4.480
REMARK  6 active torsions:
REMARK  status: ('A' for Active; 'I' for Inactive)
REMARK    1  A    between atoms: C3_3  and  N2_14 
REMARK    2  A    between atoms: C4_4  and  C5_5 
REMARK       I    between atoms: C5_5  and  N1_7 
REMARK    3  A    between atoms: N1_7  and  C6_8 
REMARK    4  A    between atoms: N2_14  and  C12_15 
REMARK    5  A    between atoms: C12_15  and  C13_16 
REMARK    6  A    between atoms: C13_16  and  C14_17 
ROOT
HETATM    1  C1  UNL     1      24.145   2.821  51.623  1.00  0.00     0.019 C 
HETATM    2  C2  UNL     1      23.552   1.956  52.216  1.00  0.00    -0.060 C 
HETATM    3  C3  UNL     1      22.829   0.943  52.918  1.00  0.00     0.087 C 
HETATM    4  C4  UNL     1      23.485   0.029  53.654  1.00  0.00     0.113 C 
ENDROOT
BRANCH   3   5
HETATM    5  N2  UNL     1      21.418   0.772  52.939  1.00  0.00    -0.383 N 
HETATM    6  H9  UNL     1      20.968   1.330  53.689  1.00  0.00     0.160 HD
BRANCH   5   7
HETATM    7  C12 UNL     1      20.803  -0.103  51.973  1.00  0.00     0.125 C 
BRANCH   7   8
HETATM    8  C13 UNL     1      19.889   0.584  51.002  1.00  0.00     0.058 C 
BRANCH   8   9
HETATM    9  C14 UNL     1      20.606   1.533  50.141  1.00  0.00    -0.055 A 
HETATM   10  C15 UNL     1      21.449   0.979  49.186  1.00  0.00     0.007 A 
HETATM   11  C16 UNL     1      22.210   1.689  48.286  1.00  0.00     0.002 A 
HETATM   12  C17 UNL     1      22.146   3.065  48.318  1.00  0.00     0.024 A 
HETATM   13  C18 UNL     1      21.325   3.662  49.248  1.00  0.00     0.034 A 
HETATM   14 CL1  UNL     1      21.204   5.397  49.336  1.00  0.00    -0.084 Cl
HETATM   15  C19 UNL     1      20.583   2.908  50.127  1.00  0.00     0.031 A 
ENDBRANCH   8   9
ENDBRANCH   7   8
ENDBRANCH   5   7
ENDBRANCH   3   5
BRANCH   4  16
HETATM   16  C5  UNL     1      24.708  -0.533  54.171  1.00  0.00     0.248 C 
HETATM   17  O1  UNL     1      25.346  -1.183  55.055  1.00  0.00    -0.268 OA
HETATM   18  N1  UNL     1      25.758  -0.219  53.241  1.00  0.00    -0.324 N 
HETATM   19  H3  UNL     1      25.898   0.288  52.315  1.00  0.00     0.169 HD
BRANCH  18  20
HETATM   20  C6  UNL     1      27.152  -0.564  53.322  1.00  0.00     0.035 A 
HETATM   21  C7  UNL     1      27.686  -1.800  52.979  1.00  0.00     0.029 A 
HETATM   22  C8  UNL     1      29.051  -2.022  53.097  1.00  0.00     0.002 A 
HETATM   23  C9  UNL     1      29.914  -1.045  53.549  1.00  0.00     0.000 A 
HETATM   24  C10 UNL     1      29.429   0.213  53.905  1.00  0.00     0.002 A 
HETATM   25  C11 UNL     1      28.055   0.398  53.773  1.00  0.00     0.029 A 
ENDBRANCH  18  20
ENDBRANCH   4  16
TORSDOF 6
ENDMDL
MODEL 8
REMARK VINA RESULT:      -7.6      3.698      6.743
REMARK  6 active torsions:
REMARK  status: ('A' for Active; 'I' for Inactive)
REMARK    1  A    between atoms: C3_3  and  N2_14 
REMARK    2  A    between atoms: C4_4  and  C5_5 
REMARK       I    between atoms: C5_5  and  N1_7 
REMARK    3  A    between atoms: N1_7  and  C6_8 
REMARK    4  A    between atoms: N2_14  and  C12_15 
REMARK    5  A    between atoms: C12_15  and  C13_16 
REMARK    6  A    between atoms: C13_16  and  C14_17 
ROOT
HETATM    1  C1  UNL     1      24.769   4.681  49.279  1.00  0.00     0.019 C 
HETATM    2  C2  UNL     1      24.095   3.714  49.526  1.00  0.00    -0.060 C 
HETATM    3  C3  UNL     1      23.277   2.576  49.805  1.00  0.00     0.087 C 
HETATM    4  C4  UNL     1      23.541   1.798  50.869  1.00  0.00     0.113 C 
ENDROOT
BRANCH   3   5
HETATM    5  N2  UNL     1      22.152   2.140  49.056  1.00  0.00    -0.383 N 
HETATM    6  H9  UNL     1      21.967   2.749  48.237  1.00  0.00     0.160 HD
BRANCH   5   7
HETATM    7  C12 UNL     1      21.433   0.967  49.487  1.00  0.00     0.125 C 
BRANCH   7   8
HETATM    8  C13 UNL     1      20.052   1.240  50.010  1.00  0.00     0.058 C 
BRANCH   8   9
HETATM    9  C14 UNL     1      19.762   0.480  51.232  1.00  0.00    -0.055 A 
HETATM   10  C15 UNL     1      18.489  -0.067  51.328  1.00  0.00     0.007 A 
HETATM   11  C16 UNL     1      18.016  -0.809  52.386  1.00  0.00     0.002 A 
HETATM   12  C17 UNL     1      18.860  -1.040  53.450  1.00  0.00     0.024 A 
HETATM   13  C18 UNL     1      20.133  -0.519  53.403  1.00  0.00     0.034 A 
HETATM   14 CL1  UNL     1      21.245  -0.778  54.719  1.00  0.00    -0.084 Cl
HETATM   15  C19 UNL     1      20.559   0.217  52.321  1.00  0.00     0.031 A 
ENDBRANCH   8   9
ENDBRANCH   7   8
ENDBRANCH   5   7
ENDBRANCH   3   5
BRANCH   4  16
HETATM   16  C5  UNL     1      24.329   1.475  52.032  1.00  0.00     0.248 C 
HETATM   17  O1  UNL     1      24.428   1.206  53.269  1.00  0.00    -0.268 OA
HETATM   18  N1  UNL     1      25.705   1.419  51.622  1.00  0.00    -0.324 N 
HETATM   19  H3  UNL     1      26.297   1.542  50.745  1.00  0.00     0.169 HD
BRANCH  18  20
HETATM   20  C6  UNL     1      26.864   1.134  52.426  1.00  0.00     0.035 A 
HETATM   21  C7  UNL     1      27.302  -0.140  52.765  1.00  0.00     0.029 A 
HETATM   22  C8  UNL     1      28.436  -0.298  53.548  1.00  0.00     0.002 A 
HETATM   23  C9  UNL     1      29.160   0.782  54.012  1.00  0.00     0.000 A 
HETATM   24  C10 UNL     1      28.763   2.082  53.699  1.00  0.00     0.002 A 
HETATM   25  C11 UNL     1      27.621   2.199  52.912  1.00  0.00     0.029 A 
ENDBRANCH  18  20
ENDBRANCH   4  16
TORSDOF 6
ENDMDL
MODEL 9
REMARK VINA RESULT:      -7.6      3.136      5.855
REMARK  6 active torsions:
REMARK  status: ('A' for Active; 'I' for Inactive)
REMARK    1  A    between atoms: C3_3  and  N2_14 
REMARK    2  A    between atoms: C4_4  and  C5_5 
REMARK       I    between atoms: C5_5  and  N1_7 
REMARK    3  A    between atoms: N1_7  and  C6_8 
REMARK    4  A    between atoms: N2_14  and  C12_15 
REMARK    5  A    between atoms: C12_15  and  C13_16 
REMARK    6  A    between atoms: C13_16  and  C14_17 
ROOT
HETATM    1  C1  UNL     1      26.652   3.765  49.404  1.00  0.00     0.019 C 
HETATM    2  C2  UNL     1      25.798   3.623  50.241  1.00  0.00    -0.060 C 
HETATM    3  C3  UNL     1      24.771   3.474  51.224  1.00  0.00     0.087 C 
HETATM    4  C4  UNL     1      25.025   2.824  52.373  1.00  0.00     0.113 C 
ENDROOT
BRANCH   3   5
HETATM    5  N2  UNL     1      23.438   3.956  51.135  1.00  0.00    -0.383 N 
HETATM    6  H9  UNL     1      23.388   4.988  51.229  1.00  0.00     0.160 HD
BRANCH   5   7
HETATM    7  C12 UNL     1      22.364   3.017  50.932  1.00  0.00     0.125 C 
BRANCH   7   8
HETATM    8  C13 UNL     1      22.793   1.579  50.881  1.00  0.00     0.058 C 
BRANCH   8   9
HETATM    9  C14 UNL     1      22.142   0.769  51.918  1.00  0.00    -0.055 A 
HETATM   10  C15 UNL     1      20.760   0.662  51.835  1.00  0.00     0.007 A 
HETATM   11  C16 UNL     1      19.961  -0.045  52.704  1.00  0.00     0.002 A 
HETATM   12  C17 UNL     1      20.563  -0.710  53.750  1.00  0.00     0.024 A 
HETATM   13  C18 UNL     1      21.931  -0.634  53.876  1.00  0.00     0.034 A 
HETATM   14 CL1  UNL     1      22.747  -1.453  55.178  1.00  0.00    -0.084 Cl
HETATM   15  C19 UNL     1      22.686   0.087  52.980  1.00  0.00     0.031 A 
ENDBRANCH   8   9
ENDBRANCH   7   8
ENDBRANCH   5   7
ENDBRANCH   3   5
BRANCH   4  16
HETATM   16  C5  UNL     1      25.918   2.102  53.245  1.00  0.00     0.248 C 
HETATM   17  O1  UNL     1      26.395   1.862  54.396  1.00  0.00    -0.268 OA
HETATM   18  N1  UNL     1      26.660   1.175  52.435  1.00  0.00    -0.324 N 
HETATM   19  H3  UNL     1      26.745   0.873  51.417  1.00  0.00     0.169 HD
BRANCH  18  20
HETATM   20  C6  UNL     1      27.671   0.240  52.851  1.00  0.00     0.035 A 
HETATM   21  C7  UNL     1      27.506  -1.139  52.899  1.00  0.00     0.029 A 
HETATM   22  C8  UNL     1      28.552  -1.949  53.317  1.00  0.00     0.002 A 
HETATM   23  C9  UNL     1      29.773  -1.428  53.694  1.00  0.00     0.000 A 
HETATM   24  C10 UNL     1      29.991  -0.051  53.663  1.00  0.00     0.002 A 
HETATM   25  C11 UNL     1      28.918   0.728  53.237  1.00  0.00     0.029 A 
ENDBRANCH  18  20
ENDBRANCH   4  16
TORSDOF 6
ENDMDL
