MODEL 1
REMARK VINA RESULT:      -9.2      0.000      0.000
REMARK  2 active torsions:
REMARK  status: ('A' for Active; 'I' for Inactive)
REMARK    1  A    between atoms: C13_15  and  C14_16 
REMARK    2  A    between atoms: C14_16  and  C15_17 
ROOT
HETATM    1  C1  UNL     1      23.190   8.446  44.652  1.00  0.00     0.018 C 
HETATM    2  C2  UNL     1      24.111   8.299  45.431  1.00  0.00    -0.078 C 
HETATM    3  C3  UNL     1      25.202   8.133  46.324  1.00  0.00     0.017 C 
HETATM    4  C4  UNL     1      26.467   8.474  45.922  1.00  0.00     0.020 C 
HETATM    5  C5  UNL     1      27.569   8.205  46.703  1.00  0.00     0.003 C 
HETATM    6  C6  UNL     1      27.746   7.345  47.763  1.00  0.00     0.025 C 
HETATM    7  C7  UNL     1      27.849   6.090  48.317  1.00  0.00     0.018 C 
HETATM    8  C8  UNL     1      29.024   5.498  48.200  1.00  0.00     0.063 C 
HETATM    9  N1  UNL     1      26.832   5.480  48.946  1.00  0.00    -0.309 N 
HETATM   10  C9  UNL     1      25.718   6.123  49.342  1.00  0.00     0.055 C 
HETATM   11  C10 UNL     1      25.235   7.318  48.850  1.00  0.00     0.033 C 
HETATM   12  C11 UNL     1      24.915   7.633  47.548  1.00  0.00     0.023 C 
HETATM   13  C12 UNL     1      24.866   5.711  50.292  1.00  0.00     0.115 C 
HETATM   14  N2  UNL     1      24.914   4.518  51.104  1.00  0.00    -0.374 N 
HETATM   15  C13 UNL     1      25.361   3.215  50.657  1.00  0.00     0.210 C 
HETATM   16  N3  UNL     1      26.524   3.259  49.799  1.00  0.00    -0.258 NA
HETATM   17  C21 UNL     1      27.141   4.118  49.107  1.00  0.00     0.211 C 
HETATM   18  H10 UNL     1      24.579   4.695  52.099  1.00  0.00     0.161 HD
ENDROOT
BRANCH  15  19
HETATM   19  C14 UNL     1      25.708   2.337  51.824  1.00  0.00     0.089 C 
BRANCH  19  20
HETATM   20  C15 UNL     1      24.630   1.544  52.388  1.00  0.00    -0.033 A 
HETATM   21  C16 UNL     1      23.290   1.816  52.534  1.00  0.00     0.011 A 
HETATM   22  C17 UNL     1      22.384   0.958  53.088  1.00  0.00     0.024 A 
HETATM   23  C18 UNL     1      22.830  -0.268  53.533  1.00  0.00     0.035 A 
HETATM   24 CL1  UNL     1      21.662  -1.378  54.248  1.00  0.00    -0.084 Cl
HETATM   25  C19 UNL     1      24.165  -0.596  53.413  1.00  0.00     0.048 A 
HETATM   26  C20 UNL     1      25.079   0.296  52.843  1.00  0.00     0.042 A 
HETATM   27 CL2  UNL     1      26.720  -0.335  52.794  1.00  0.00    -0.084 Cl
ENDBRANCH  19  20
ENDBRANCH  15  19
TORSDOF 2
ENDMDL
MODEL 2
REMARK VINA RESULT:      -9.1      3.559      8.268
REMARK  2 active torsions:
REMARK  status: ('A' for Active; 'I' for Inactive)
REMARK    1  A    between atoms: C13_15  and  C14_16 
REMARK    2  A    between atoms: C14_16  and  C15_17 
ROOT
HETATM    1  C1  UNL     1      18.098  -0.201  51.995  1.00  0.00     0.018 C 
HETATM    2  C2  UNL     1      19.299  -0.023  51.973  1.00  0.00    -0.078 C 
HETATM    3  C3  UNL     1      20.705   0.175  51.969  1.00  0.00     0.017 C 
HETATM    4  C4  UNL     1      21.465  -0.324  52.995  1.00  0.00     0.020 C 
HETATM    5  C5  UNL     1      22.808  -0.041  53.101  1.00  0.00     0.003 C 
HETATM    6  C6  UNL     1      23.580   0.941  52.525  1.00  0.00     0.025 C 
HETATM    7  C7  UNL     1      23.976   2.249  52.360  1.00  0.00     0.018 C 
HETATM    8  C8  UNL     1      24.820   2.718  53.261  1.00  0.00     0.063 C 
HETATM    9  N1  UNL     1      23.546   3.024  51.351  1.00  0.00    -0.309 N 
HETATM   10  C9  UNL     1      22.922   2.539  50.262  1.00  0.00     0.055 C 
HETATM   11  C10 UNL     1      22.264   1.331  50.158  1.00  0.00     0.033 C 
HETATM   12  C11 UNL     1      21.219   0.864  50.924  1.00  0.00     0.023 C 
HETATM   13  C12 UNL     1      22.823   3.149  49.073  1.00  0.00     0.115 C 
HETATM   14  N2  UNL     1      23.335   4.436  48.664  1.00  0.00    -0.374 N 
HETATM   15  C13 UNL     1      23.388   5.622  49.495  1.00  0.00     0.210 C 
HETATM   16  N3  UNL     1      23.781   5.361  50.861  1.00  0.00    -0.258 NA
HETATM   17  C21 UNL     1      23.861   4.364  51.635  1.00  0.00     0.211 C 
HETATM   18  H10 UNL     1      23.685   4.430  47.658  1.00  0.00     0.161 HD
ENDROOT
BRANCH  15  19
HETATM   19  C14 UNL     1      24.359   6.623  48.941  1.00  0.00     0.089 C 
BRANCH  19  20
HETATM   20  C15 UNL     1      25.728   6.171  48.754  1.00  0.00    -0.033 A 
HETATM   21  C16 UNL     1      26.321   4.959  49.014  1.00  0.00     0.011 A 
HETATM   22  C17 UNL     1      27.636   4.677  48.780  1.00  0.00     0.024 A 
HETATM   23  C18 UNL     1      28.432   5.667  48.245  1.00  0.00     0.035 A 
HETATM   24 CL1  UNL     1      30.131   5.306  47.940  1.00  0.00    -0.084 Cl
HETATM   25  C19 UNL     1      27.891   6.905  47.963  1.00  0.00     0.048 A 
HETATM   26  C20 UNL     1      26.542   7.175  48.211  1.00  0.00     0.042 A 
HETATM   27 CL2  UNL     1      26.075   8.814  47.775  1.00  0.00    -0.084 Cl
ENDBRANCH  19  20
ENDBRANCH  15  19
TORSDOF 2
ENDMDL
MODEL 3
REMARK VINA RESULT:      -8.5      1.474      2.581
REMARK  2 active torsions:
REMARK  status: ('A' for Active; 'I' for Inactive)
REMARK    1  A    between atoms: C13_15  and  C14_16 
REMARK    2  A    between atoms: C14_16  and  C15_17 
ROOT
HETATM    1  C1  UNL     1      22.878   9.478  46.120  1.00  0.00     0.018 C 
HETATM    2  C2  UNL     1      23.668   8.890  46.830  1.00  0.00    -0.078 C 
HETATM    3  C3  UNL     1      24.608   8.205  47.645  1.00  0.00     0.017 C 
HETATM    4  C4  UNL     1      25.903   8.063  47.215  1.00  0.00     0.020 C 
HETATM    5  C5  UNL     1      26.811   7.293  47.906  1.00  0.00     0.003 C 
HETATM    6  C6  UNL     1      26.638   6.317  48.860  1.00  0.00     0.025 C 
HETATM    7  C7  UNL     1      26.237   5.067  49.274  1.00  0.00     0.018 C 
HETATM    8  C8  UNL     1      27.079   4.078  49.035  1.00  0.00     0.063 C 
HETATM    9  N1  UNL     1      25.065   4.839  49.888  1.00  0.00    -0.309 N 
HETATM   10  C9  UNL     1      24.300   5.818  50.406  1.00  0.00     0.055 C 
HETATM   11  C10 UNL     1      24.330   7.155  50.066  1.00  0.00     0.033 C 
HETATM   12  C11 UNL     1      24.154   7.720  48.823  1.00  0.00     0.023 C 
HETATM   13  C12 UNL     1      23.360   5.669  51.350  1.00  0.00     0.115 C 
HETATM   14  N2  UNL     1      22.935   4.468  52.030  1.00  0.00    -0.374 N 
HETATM   15  C13 UNL     1      22.825   3.155  51.427  1.00  0.00     0.210 C 
HETATM   16  N3  UNL     1      23.904   2.837  50.520  1.00  0.00    -0.258 NA
HETATM   17  C21 UNL     1      24.808   3.457  49.890  1.00  0.00     0.211 C 
HETATM   18  H10 UNL     1      22.704   4.645  53.054  1.00  0.00     0.161 HD
ENDROOT
BRANCH  15  19
HETATM   19  C14 UNL     1      22.800   2.083  52.477  1.00  0.00     0.089 C 
BRANCH  19  20
HETATM   20  C15 UNL     1      24.077   1.713  53.062  1.00  0.00    -0.033 A 
HETATM   21  C16 UNL     1      25.182   2.471  53.370  1.00  0.00     0.011 A 
HETATM   22  C17 UNL     1      26.326   1.977  53.930  1.00  0.00     0.024 A 
HETATM   23  C18 UNL     1      26.388   0.629  54.210  1.00  0.00     0.035 A 
HETATM   24 CL1  UNL     1      27.863  -0.012  54.932  1.00  0.00    -0.084 Cl
HETATM   25  C19 UNL     1      25.309  -0.181  53.922  1.00  0.00     0.048 A 
HETATM   26  C20 UNL     1      24.146   0.342  53.349  1.00  0.00     0.042 A 
HETATM   27 CL2  UNL     1      22.905  -0.874  53.071  1.00  0.00    -0.084 Cl
ENDBRANCH  19  20
ENDBRANCH  15  19
TORSDOF 2
ENDMDL
MODEL 4
REMARK VINA RESULT:      -8.2      2.708      3.956
REMARK  2 active torsions:
REMARK  status: ('A' for Active; 'I' for Inactive)
REMARK    1  A    between atoms: C13_15  and  C14_16 
REMARK    2  A    between atoms: C14_16  and  C15_17 
ROOT
HETATM    1  C1  UNL     1      20.106   3.956  45.335  1.00  0.00     0.018 C 
HETATM    2  C2  UNL     1      20.857   4.582  46.055  1.00  0.00    -0.078 C 
HETATM    3  C3  UNL     1      21.744   5.326  46.878  1.00  0.00     0.017 C 
HETATM    4  C4  UNL     1      22.568   6.265  46.313  1.00  0.00     0.020 C 
HETATM    5  C5  UNL     1      23.536   6.911  47.049  1.00  0.00     0.003 C 
HETATM    6  C6  UNL     1      24.111   6.608  48.262  1.00  0.00     0.025 C 
HETATM    7  C7  UNL     1      24.911   5.845  49.081  1.00  0.00     0.018 C 
HETATM    8  C8  UNL     1      26.208   6.085  49.015  1.00  0.00     0.063 C 
HETATM    9  N1  UNL     1      24.428   4.905  49.909  1.00  0.00    -0.309 N 
HETATM   10  C9  UNL     1      23.125   4.803  50.230  1.00  0.00     0.055 C 
HETATM   11  C10 UNL     1      22.057   5.303  49.513  1.00  0.00     0.033 C 
HETATM   12  C11 UNL     1      21.720   5.051  48.202  1.00  0.00     0.023 C 
HETATM   13  C12 UNL     1      22.624   4.187  51.310  1.00  0.00     0.115 C 
HETATM   14  N2  UNL     1      23.321   3.496  52.369  1.00  0.00    -0.374 N 
HETATM   15  C13 UNL     1      24.505   2.678  52.202  1.00  0.00     0.210 C 
HETATM   16  N3  UNL     1      25.467   3.225  51.272  1.00  0.00    -0.258 NA
HETATM   17  C21 UNL     1      25.487   4.096  50.356  1.00  0.00     0.211 C 
HETATM   18  H10 UNL     1      22.867   3.653  53.320  1.00  0.00     0.161 HD
ENDROOT
BRANCH  15  19
HETATM   19  C14 UNL     1      25.216   2.489  53.510  1.00  0.00     0.089 C 
BRANCH  19  20
HETATM   20  C15 UNL     1      26.443   1.712  53.481  1.00  0.00    -0.033 A 
HETATM   21  C16 UNL     1      27.761   2.104  53.509  1.00  0.00     0.011 A 
HETATM   22  C17 UNL     1      28.822   1.246  53.479  1.00  0.00     0.024 A 
HETATM   23  C18 UNL     1      28.568  -0.107  53.417  1.00  0.00     0.035 A 
HETATM   24 CL1  UNL     1      29.938  -1.217  53.379  1.00  0.00    -0.084 Cl
HETATM   25  C19 UNL     1      27.266  -0.559  53.387  1.00  0.00     0.048 A 
HETATM   26  C20 UNL     1      26.190   0.335  53.418  1.00  0.00     0.042 A 
HETATM   27 CL2  UNL     1      24.625  -0.467  53.370  1.00  0.00    -0.084 Cl
ENDBRANCH  19  20
ENDBRANCH  15  19
TORSDOF 2
ENDMDL
MODEL 5
REMARK VINA RESULT:      -8.1      5.720      9.491
REMARK  2 active torsions:
REMARK  status: ('A' for Active; 'I' for Inactive)
REMARK    1  A    between atoms: C13_15  and  C14_16 
REMARK    2  A    between atoms: C14_16  and  C15_17 
ROOT
HETATM    1  C1  UNL     1      24.505  -1.268  55.489  1.00  0.00     0.018 C 
HETATM    2  C2  UNL     1      24.233  -0.661  54.472  1.00  0.00    -0.078 C 
HETATM    3  C3  UNL     1      23.936   0.059  53.285  1.00  0.00     0.017 C 
HETATM    4  C4  UNL     1      24.877   0.899  52.746  1.00  0.00     0.020 C 
HETATM    5  C5  UNL     1      24.587   1.716  51.677  1.00  0.00     0.003 C 
HETATM    6  C6  UNL     1      23.386   2.133  51.150  1.00  0.00     0.025 C 
HETATM    7  C7  UNL     1      22.214   2.853  51.192  1.00  0.00     0.018 C 
HETATM    8  C8  UNL     1      22.306   4.131  50.871  1.00  0.00     0.063 C 
HETATM    9  N1  UNL     1      21.034   2.314  51.535  1.00  0.00    -0.309 N 
HETATM   10  C9  UNL     1      20.819   0.987  51.599  1.00  0.00     0.055 C 
HETATM   11  C10 UNL     1      21.775   0.003  51.745  1.00  0.00     0.033 C 
HETATM   12  C11 UNL     1      22.710  -0.133  52.747  1.00  0.00     0.023 C 
HETATM   13  C12 UNL     1      19.627   0.377  51.538  1.00  0.00     0.115 C 
HETATM   14  N2  UNL     1      18.313   0.958  51.397  1.00  0.00    -0.374 N 
HETATM   15  C13 UNL     1      17.873   2.198  52.003  1.00  0.00     0.210 C 
HETATM   16  N3  UNL     1      18.867   3.247  51.974  1.00  0.00    -0.258 NA
HETATM   17  C21 UNL     1      20.115   3.345  51.796  1.00  0.00     0.211 C 
HETATM   18  H10 UNL     1      17.676   0.367  50.781  1.00  0.00     0.161 HD
ENDROOT
BRANCH  15  19
HETATM   19  C14 UNL     1      16.652   2.730  51.311  1.00  0.00     0.089 C 
BRANCH  19  20
HETATM   20  C15 UNL     1      15.543   3.133  52.159  1.00  0.00    -0.033 A 
HETATM   21  C16 UNL     1      15.346   4.270  52.906  1.00  0.00     0.011 A 
HETATM   22  C17 UNL     1      14.235   4.514  53.661  1.00  0.00     0.024 A 
HETATM   23  C18 UNL     1      13.237   3.564  53.683  1.00  0.00     0.035 A 
HETATM   24 CL1  UNL     1      11.801   3.877  54.657  1.00  0.00    -0.084 Cl
HETATM   25  C19 UNL     1      13.380   2.403  52.953  1.00  0.00     0.048 A 
HETATM   26  C20 UNL     1      14.525   2.170  52.185  1.00  0.00     0.042 A 
HETATM   27 CL2  UNL     1      14.488   0.627  51.341  1.00  0.00    -0.084 Cl
ENDBRANCH  19  20
ENDBRANCH  15  19
TORSDOF 2
ENDMDL
MODEL 6
REMARK VINA RESULT:      -8.0      1.478      1.657
REMARK  2 active torsions:
REMARK  status: ('A' for Active; 'I' for Inactive)
REMARK    1  A    between atoms: C13_15  and  C14_16 
REMARK    2  A    between atoms: C14_16  and  C15_17 
ROOT
HETATM    1  C1  UNL     1      23.854  10.483  45.656  1.00  0.00     0.018 C 
HETATM    2  C2  UNL     1      24.689   9.905  46.323  1.00  0.00    -0.078 C 
HETATM    3  C3  UNL     1      25.680   9.230  47.084  1.00  0.00     0.017 C 
HETATM    4  C4  UNL     1      26.939   9.064  46.565  1.00  0.00     0.020 C 
HETATM    5  C5  UNL     1      27.889   8.302  47.207  1.00  0.00     0.003 C 
HETATM    6  C6  UNL     1      27.777   7.351  48.197  1.00  0.00     0.025 C 
HETATM    7  C7  UNL     1      27.396   6.118  48.672  1.00  0.00     0.018 C 
HETATM    8  C8  UNL     1      28.209   5.113  48.398  1.00  0.00     0.063 C 
HETATM    9  N1  UNL     1      26.270   5.919  49.376  1.00  0.00    -0.309 N 
HETATM   10  C9  UNL     1      25.554   6.919  49.922  1.00  0.00     0.055 C 
HETATM   11  C10 UNL     1      25.571   8.246  49.546  1.00  0.00     0.033 C 
HETATM   12  C11 UNL     1      25.309   8.781  48.304  1.00  0.00     0.023 C 
HETATM   13  C12 UNL     1      24.685   6.804  50.936  1.00  0.00     0.115 C 
HETATM   14  N2  UNL     1      24.300   5.625  51.676  1.00  0.00    -0.374 N 
HETATM   15  C13 UNL     1      24.133   4.299  51.118  1.00  0.00     0.210 C 
HETATM   16  N3  UNL     1      25.140   3.946  50.143  1.00  0.00    -0.258 NA
HETATM   17  C21 UNL     1      26.001   4.540  49.433  1.00  0.00     0.211 C 
HETATM   18  H10 UNL     1      24.146   5.832  52.710  1.00  0.00     0.161 HD
ENDROOT
BRANCH  15  19
HETATM   19  C14 UNL     1      24.177   3.254  52.194  1.00  0.00     0.089 C 
BRANCH  19  20
HETATM   20  C15 UNL     1      22.956   2.500  52.422  1.00  0.00    -0.033 A 
HETATM   21  C16 UNL     1      21.637   2.840  52.236  1.00  0.00     0.011 A 
HETATM   22  C17 UNL     1      20.582   2.013  52.495  1.00  0.00     0.024 A 
HETATM   23  C18 UNL     1      20.846   0.747  52.974  1.00  0.00     0.035 A 
HETATM   24 CL1  UNL     1      19.486  -0.324  53.309  1.00  0.00    -0.084 Cl
HETATM   25  C19 UNL     1      22.151   0.350  53.181  1.00  0.00     0.048 A 
HETATM   26  C20 UNL     1      23.219   1.212  52.911  1.00  0.00     0.042 A 
HETATM   27 CL2  UNL     1      24.788   0.494  53.248  1.00  0.00    -0.084 Cl
ENDBRANCH  19  20
ENDBRANCH  15  19
TORSDOF 2
ENDMDL
MODEL 7
REMARK VINA RESULT:      -7.8      2.322      3.316
REMARK  2 active torsions:
REMARK  status: ('A' for Active; 'I' for Inactive)
REMARK    1  A    between atoms: C13_15  and  C14_16 
REMARK    2  A    between atoms: C14_16  and  C15_17 
ROOT
HETATM    1  C1  UNL     1      23.029   9.277  46.152  1.00  0.00     0.018 C 
HETATM    2  C2  UNL     1      23.710   8.641  46.931  1.00  0.00    -0.078 C 
HETATM    3  C3  UNL     1      24.525   7.900  47.827  1.00  0.00     0.017 C 
HETATM    4  C4  UNL     1      25.861   7.744  47.560  1.00  0.00     0.020 C 
HETATM    5  C5  UNL     1      26.659   6.924  48.326  1.00  0.00     0.003 C 
HETATM    6  C6  UNL     1      26.346   5.914  49.206  1.00  0.00     0.025 C 
HETATM    7  C7  UNL     1      25.871   4.659  49.511  1.00  0.00     0.018 C 
HETATM    8  C8  UNL     1      26.717   3.659  49.338  1.00  0.00     0.063 C 
HETATM    9  N1  UNL     1      24.626   4.435  49.961  1.00  0.00    -0.309 N 
HETATM   10  C9  UNL     1      23.820   5.411  50.420  1.00  0.00     0.055 C 
HETATM   11  C10 UNL     1      23.919   6.759  50.145  1.00  0.00     0.033 C 
HETATM   12  C11 UNL     1      23.915   7.379  48.915  1.00  0.00     0.023 C 
HETATM   13  C12 UNL     1      22.765   5.246  51.229  1.00  0.00     0.115 C 
HETATM   14  N2  UNL     1      22.233   4.030  51.797  1.00  0.00    -0.374 N 
HETATM   15  C13 UNL     1      22.175   2.746  51.127  1.00  0.00     0.210 C 
HETATM   16  N3  UNL     1      23.355   2.438  50.352  1.00  0.00    -0.258 NA
HETATM   17  C21 UNL     1      24.344   3.061  49.870  1.00  0.00     0.211 C 
HETATM   18  H10 UNL     1      21.876   4.171  52.790  1.00  0.00     0.161 HD
ENDROOT
BRANCH  15  19
HETATM   19  C14 UNL     1      21.996   1.632  52.118  1.00  0.00     0.089 C 
BRANCH  19  20
HETATM   20  C15 UNL     1      20.718   0.941  52.100  1.00  0.00    -0.033 A 
HETATM   21  C16 UNL     1      19.676   0.993  51.204  1.00  0.00     0.011 A 
HETATM   22  C17 UNL     1      18.523   0.272  51.319  1.00  0.00     0.024 A 
HETATM   23  C18 UNL     1      18.383  -0.571  52.401  1.00  0.00     0.035 A 
HETATM   24 CL1  UNL     1      16.895  -1.504  52.551  1.00  0.00    -0.084 Cl
HETATM   25  C19 UNL     1      19.396  -0.665  53.332  1.00  0.00     0.048 A 
HETATM   26  C20 UNL     1      20.571   0.083  53.199  1.00  0.00     0.042 A 
HETATM   27 CL2  UNL     1      21.719  -0.197  54.501  1.00  0.00    -0.084 Cl
ENDBRANCH  19  20
ENDBRANCH  15  19
TORSDOF 2
ENDMDL
MODEL 8
REMARK VINA RESULT:      -7.6      3.777      5.733
REMARK  2 active torsions:
REMARK  status: ('A' for Active; 'I' for Inactive)
REMARK    1  A    between atoms: C13_15  and  C14_16 
REMARK    2  A    between atoms: C14_16  and  C15_17 
ROOT
HETATM    1  C1  UNL     1      31.656  12.501  45.149  1.00  0.00     0.018 C 
HETATM    2  C2  UNL     1      31.759  11.577  45.930  1.00  0.00    -0.078 C 
HETATM    3  C3  UNL     1      31.898  10.489  46.833  1.00  0.00     0.017 C 
HETATM    4  C4  UNL     1      32.988   9.663  46.739  1.00  0.00     0.020 C 
HETATM    5  C5  UNL     1      33.097   8.522  47.502  1.00  0.00     0.003 C 
HETATM    6  C6  UNL     1      32.155   7.799  48.197  1.00  0.00     0.025 C 
HETATM    7  C7  UNL     1      31.058   6.972  48.274  1.00  0.00     0.018 C 
HETATM    8  C8  UNL     1      31.288   5.683  48.098  1.00  0.00     0.063 C 
HETATM    9  N1  UNL     1      29.816   7.421  48.513  1.00  0.00    -0.309 N 
HETATM   10  C9  UNL     1      29.554   8.659  48.971  1.00  0.00     0.055 C 
HETATM   11  C10 UNL     1      30.377   9.763  48.883  1.00  0.00     0.033 C 
HETATM   12  C11 UNL     1      30.918  10.332  47.752  1.00  0.00     0.023 C 
HETATM   13  C12 UNL     1      28.435   9.048  49.598  1.00  0.00     0.115 C 
HETATM   14  N2  UNL     1      27.261   8.274  49.929  1.00  0.00    -0.374 N 
HETATM   15  C13 UNL     1      26.679   7.235  49.104  1.00  0.00     0.210 C 
HETATM   16  N3  UNL     1      27.655   6.378  48.470  1.00  0.00    -0.258 NA
HETATM   17  C21 UNL     1      28.893   6.404  48.213  1.00  0.00     0.211 C 
HETATM   18  H10 UNL     1      26.850   8.549  50.872  1.00  0.00     0.161 HD
ENDROOT
BRANCH  15  19
HETATM   19  C14 UNL     1      25.776   6.350  49.913  1.00  0.00     0.089 C 
BRANCH  19  20
HETATM   20  C15 UNL     1      24.705   5.679  49.197  1.00  0.00    -0.033 A 
HETATM   21  C16 UNL     1      23.784   6.158  48.295  1.00  0.00     0.011 A 
HETATM   22  C17 UNL     1      22.826   5.396  47.692  1.00  0.00     0.024 A 
HETATM   23  C18 UNL     1      22.769   4.053  47.999  1.00  0.00     0.035 A 
HETATM   24 CL1  UNL     1      21.532   3.066  47.221  1.00  0.00    -0.084 Cl
HETATM   25  C19 UNL     1      23.667   3.516  48.897  1.00  0.00     0.048 A 
HETATM   26  C20 UNL     1      24.643   4.313  49.506  1.00  0.00     0.042 A 
HETATM   27 CL2  UNL     1      25.675   3.417  50.612  1.00  0.00    -0.084 Cl
ENDBRANCH  19  20
ENDBRANCH  15  19
TORSDOF 2
ENDMDL
MODEL 9
REMARK VINA RESULT:      -7.5      2.855      4.112
REMARK  2 active torsions:
REMARK  status: ('A' for Active; 'I' for Inactive)
REMARK    1  A    between atoms: C13_15  and  C14_16 
REMARK    2  A    between atoms: C14_16  and  C15_17 
ROOT
HETATM    1  C1  UNL     1      24.397   7.847  44.005  1.00  0.00     0.018 C 
HETATM    2  C2  UNL     1      23.620   7.626  44.912  1.00  0.00    -0.078 C 
HETATM    3  C3  UNL     1      22.702   7.390  45.970  1.00  0.00     0.017 C 
HETATM    4  C4  UNL     1      21.818   8.373  46.334  1.00  0.00     0.020 C 
HETATM    5  C5  UNL     1      21.005   8.238  47.438  1.00  0.00     0.003 C 
HETATM    6  C6  UNL     1      21.076   7.395  48.523  1.00  0.00     0.025 C 
HETATM    7  C7  UNL     1      21.649   6.947  49.691  1.00  0.00     0.018 C 
HETATM    8  C8  UNL     1      21.345   7.625  50.784  1.00  0.00     0.063 C 
HETATM    9  N1  UNL     1      22.471   5.888  49.746  1.00  0.00    -0.309 N 
HETATM   10  C9  UNL     1      22.598   4.999  48.743  1.00  0.00     0.055 C 
HETATM   11  C10 UNL     1      22.284   5.204  47.415  1.00  0.00     0.033 C 
HETATM   12  C11 UNL     1      22.763   6.179  46.568  1.00  0.00     0.023 C 
HETATM   13  C12 UNL     1      23.062   3.747  48.853  1.00  0.00     0.115 C 
HETATM   14  N2  UNL     1      23.531   3.049  50.027  1.00  0.00    -0.374 N 
HETATM   15  C13 UNL     1      24.294   3.641  51.108  1.00  0.00     0.210 C 
HETATM   16  N3  UNL     1      23.846   4.964  51.482  1.00  0.00    -0.258 NA
HETATM   17  C21 UNL     1      23.133   5.883  50.986  1.00  0.00     0.211 C 
HETATM   18  H10 UNL     1      23.252   2.022  50.024  1.00  0.00     0.161 HD
ENDROOT
BRANCH  15  19
HETATM   19  C14 UNL     1      24.228   2.789  52.341  1.00  0.00     0.089 C 
BRANCH  19  20
HETATM   20  C15 UNL     1      25.060   1.598  52.358  1.00  0.00    -0.033 A 
HETATM   21  C16 UNL     1      26.341   1.386  51.907  1.00  0.00     0.011 A 
HETATM   22  C17 UNL     1      27.003   0.195  51.995  1.00  0.00     0.024 A 
HETATM   23  C18 UNL     1      26.354  -0.873  52.575  1.00  0.00     0.035 A 
HETATM   24 CL1  UNL     1      27.207  -2.412  52.692  1.00  0.00    -0.084 Cl
HETATM   25  C19 UNL     1      25.066  -0.720  53.046  1.00  0.00     0.048 A 
HETATM   26  C20 UNL     1      24.403   0.508  52.946  1.00  0.00     0.042 A 
HETATM   27 CL2  UNL     1      22.775   0.468  53.610  1.00  0.00    -0.084 Cl
ENDBRANCH  19  20
ENDBRANCH  15  19
TORSDOF 2
ENDMDL
