MODEL 1
REMARK VINA RESULT:      -8.7      0.000      0.000
REMARK  3 active torsions:
REMARK  status: ('A' for Active; 'I' for Inactive)
REMARK    1  A    between atoms: C2_2  and  C3_3 
REMARK       I    between atoms: C3_3  and  N1_5 
REMARK    2  A    between atoms: N1_5  and  C4_6 
REMARK    3  A    between atoms: N5_19  and  C14_20 
ROOT
HETATM    1  C4  UNL     1      25.095  -0.781  54.259  1.00  0.00     0.035 A 
HETATM    2  C5  UNL     1      24.348  -1.347  55.283  1.00  0.00     0.032 A 
HETATM    3  C6  UNL     1      22.991  -1.238  55.218  1.00  0.00     0.040 A 
HETATM    4  C7  UNL     1      22.354  -0.587  54.175  1.00  0.00     0.086 A 
HETATM    5  C8  UNL     1      23.133  -0.023  53.153  1.00  0.00     0.006 A 
HETATM    6  C9  UNL     1      24.510  -0.117  53.190  1.00  0.00     0.041 A 
HETATM    7  C10 UNL     1      22.696   0.711  51.950  1.00  0.00     0.314 C 
HETATM    8  N2  UNL     1      21.383   0.495  51.525  1.00  0.00     0.120 NA
HETATM    9  C11 UNL     1      20.317   0.902  52.389  1.00  0.00     0.421 A 
HETATM   10  C12 UNL     1      19.967  -0.211  53.357  1.00  0.00     0.202 A 
HETATM   11  N3  UNL     1      18.876  -0.896  53.468  1.00  0.00    -0.216 NA
HETATM   12  C13 UNL     1      17.805  -0.591  52.560  1.00  0.00     0.257 A 
HETATM   13  N4  UNL     1      17.953   0.344  51.681  1.00  0.00    -0.163 NA
HETATM   14  N5  UNL     1      19.135   1.090  51.575  1.00  0.00    -0.228 N 
HETATM   15  O2  UNL     1      20.947  -0.578  54.285  1.00  0.00    -0.291 OA
HETATM   16  H10 UNL     1      21.220   0.907  50.591  1.00  0.00     0.319 HD
ENDROOT
BRANCH  14  17
HETATM   17  C14 UNL     1      19.109   2.102  50.571  1.00  0.00     0.057 A 
HETATM   18  C15 UNL     1      18.440   1.964  49.371  1.00  0.00     0.031 A 
HETATM   19  C16 UNL     1      18.386   2.916  48.387  1.00  0.00     0.004 A 
HETATM   20  C17 UNL     1      19.048   4.121  48.589  1.00  0.00     0.019 A 
HETATM   21  C18 UNL     1      19.734   4.324  49.762  1.00  0.00     0.013 A 
HETATM   22 BR1  UNL     1      20.657   5.968  50.075  1.00  0.00    -0.051 Br
HETATM   23  C19 UNL     1      19.740   3.323  50.695  1.00  0.00     0.050 A 
ENDBRANCH  14  17
BRANCH   1  24
HETATM   24  N1  UNL     1      26.531  -0.861  54.268  1.00  0.00    -0.324 N 
HETATM   25  C3  UNL     1      27.195   0.320  54.649  1.00  0.00     0.244 C 
HETATM   26  O1  UNL     1      26.664   1.393  54.971  1.00  0.00    -0.268 OA
HETATM   27  H4  UNL     1      27.027  -1.742  54.004  1.00  0.00     0.169 HD
BRANCH  25  28
HETATM   28  C2  UNL     1      28.645   0.311  54.680  1.00  0.00     0.064 C 
HETATM   29  C1  UNL     1      29.372  -0.456  53.909  1.00  0.00     0.017 C 
ENDBRANCH  25  28
ENDBRANCH   1  24
TORSDOF 3
ENDMDL
MODEL 2
REMARK VINA RESULT:      -8.5      2.714      4.178
REMARK  3 active torsions:
REMARK  status: ('A' for Active; 'I' for Inactive)
REMARK    1  A    between atoms: C2_2  and  C3_3 
REMARK       I    between atoms: C3_3  and  N1_5 
REMARK    2  A    between atoms: N1_5  and  C4_6 
REMARK    3  A    between atoms: N5_19  and  C14_20 
ROOT
HETATM    1  C4  UNL     1      26.258   0.682  52.296  1.00  0.00     0.035 A 
HETATM    2  C5  UNL     1      26.341   1.856  51.560  1.00  0.00     0.032 A 
HETATM    3  C6  UNL     1      25.177   2.464  51.194  1.00  0.00     0.040 A 
HETATM    4  C7  UNL     1      23.939   1.947  51.535  1.00  0.00     0.086 A 
HETATM    5  C8  UNL     1      23.882   0.759  52.280  1.00  0.00     0.006 A 
HETATM    6  C9  UNL     1      25.043   0.119  52.665  1.00  0.00     0.041 A 
HETATM    7  C10 UNL     1      22.700   0.019  52.761  1.00  0.00     0.314 C 
HETATM    8  N2  UNL     1      21.508   0.741  52.868  1.00  0.00     0.120 NA
HETATM    9  C11 UNL     1      20.926   1.268  51.671  1.00  0.00     0.421 A 
HETATM   10  C12 UNL     1      21.490   2.642  51.368  1.00  0.00     0.202 A 
HETATM   11  N3  UNL     1      20.896   3.790  51.343  1.00  0.00    -0.216 NA
HETATM   12  C13 UNL     1      19.489   3.817  51.637  1.00  0.00     0.257 A 
HETATM   13  N4  UNL     1      18.866   2.718  51.905  1.00  0.00    -0.163 NA
HETATM   14  N5  UNL     1      19.515   1.475  51.920  1.00  0.00    -0.228 N 
HETATM   15  O2  UNL     1      22.852   2.717  51.066  1.00  0.00    -0.291 OA
HETATM   16  H10 UNL     1      20.786   0.198  53.370  1.00  0.00     0.319 HD
ENDROOT
BRANCH  14  17
HETATM   17  C14 UNL     1      18.665   0.367  52.204  1.00  0.00     0.057 A 
HETATM   18  C15 UNL     1      18.950  -0.580  53.168  1.00  0.00     0.031 A 
HETATM   19  C16 UNL     1      18.156  -1.654  53.475  1.00  0.00     0.004 A 
HETATM   20  C17 UNL     1      16.967  -1.824  52.775  1.00  0.00     0.019 A 
HETATM   21  C18 UNL     1      16.623  -0.918  51.801  1.00  0.00     0.013 A 
HETATM   22 BR1  UNL     1      14.997  -1.120  50.818  1.00  0.00    -0.051 Br
HETATM   23  C19 UNL     1      17.472   0.127  51.555  1.00  0.00     0.050 A 
ENDBRANCH  14  17
BRANCH   1  24
HETATM   24  N1  UNL     1      27.448  -0.009  52.713  1.00  0.00    -0.324 N 
HETATM   25  C3  UNL     1      28.024   0.460  53.909  1.00  0.00     0.244 C 
HETATM   26  O1  UNL     1      27.607   1.390  54.614  1.00  0.00    -0.268 OA
HETATM   27  H4  UNL     1      27.841  -0.799  52.155  1.00  0.00     0.169 HD
BRANCH  25  28
HETATM   28  C2  UNL     1      29.228  -0.192  54.390  1.00  0.00     0.064 C 
HETATM   29  C1  UNL     1      29.963  -0.977  53.644  1.00  0.00     0.017 C 
ENDBRANCH  25  28
ENDBRANCH   1  24
TORSDOF 3
ENDMDL
MODEL 3
REMARK VINA RESULT:      -8.5      2.122      2.905
REMARK  3 active torsions:
REMARK  status: ('A' for Active; 'I' for Inactive)
REMARK    1  A    between atoms: C2_2  and  C3_3 
REMARK       I    between atoms: C3_3  and  N1_5 
REMARK    2  A    between atoms: N1_5  and  C4_6 
REMARK    3  A    between atoms: N5_19  and  C14_20 
ROOT
HETATM    1  C4  UNL     1      25.708   0.003  53.045  1.00  0.00     0.035 A 
HETATM    2  C5  UNL     1      24.786  -0.716  53.792  1.00  0.00     0.032 A 
HETATM    3  C6  UNL     1      23.491  -0.291  53.790  1.00  0.00     0.040 A 
HETATM    4  C7  UNL     1      23.084   0.821  53.072  1.00  0.00     0.086 A 
HETATM    5  C8  UNL     1      24.035   1.531  52.325  1.00  0.00     0.006 A 
HETATM    6  C9  UNL     1      25.355   1.125  52.307  1.00  0.00     0.041 A 
HETATM    7  C10 UNL     1      23.852   2.731  51.487  1.00  0.00     0.314 C 
HETATM    8  N2  UNL     1      22.557   2.985  51.029  1.00  0.00     0.120 NA
HETATM    9  C11 UNL     1      21.542   3.275  51.996  1.00  0.00     0.421 A 
HETATM   10  C12 UNL     1      20.896   1.994  52.484  1.00  0.00     0.202 A 
HETATM   11  N3  UNL     1      19.679   1.578  52.345  1.00  0.00    -0.216 NA
HETATM   12  C13 UNL     1      18.765   2.426  51.630  1.00  0.00     0.257 A 
HETATM   13  N4  UNL     1      19.171   3.558  51.161  1.00  0.00    -0.163 NA
HETATM   14  N5  UNL     1      20.488   4.007  51.325  1.00  0.00    -0.228 N 
HETATM   15  O2  UNL     1      21.706   1.104  53.196  1.00  0.00    -0.291 OA
HETATM   16  H10 UNL     1      22.552   3.736  50.318  1.00  0.00     0.319 HD
ENDROOT
BRANCH  14  17
HETATM   17  C14 UNL     1      20.750   5.294  50.771  1.00  0.00     0.057 A 
HETATM   18  C15 UNL     1      21.775   6.112  51.203  1.00  0.00     0.031 A 
HETATM   19  C16 UNL     1      22.063   7.350  50.690  1.00  0.00     0.004 A 
HETATM   20  C17 UNL     1      21.275   7.841  49.655  1.00  0.00     0.019 A 
HETATM   21  C18 UNL     1      20.238   7.078  49.177  1.00  0.00     0.013 A 
HETATM   22 BR1  UNL     1      19.134   7.720  47.755  1.00  0.00    -0.051 Br
HETATM   23  C19 UNL     1      20.016   5.852  49.744  1.00  0.00     0.050 A 
ENDBRANCH  14  17
BRANCH   1  24
HETATM   24  N1  UNL     1      27.090  -0.393  53.004  1.00  0.00    -0.324 N 
HETATM   25  C3  UNL     1      27.898   0.148  54.022  1.00  0.00     0.244 C 
HETATM   26  O1  UNL     1      27.533   0.914  54.925  1.00  0.00    -0.268 OA
HETATM   27  H4  UNL     1      27.449  -1.037  52.264  1.00  0.00     0.169 HD
BRANCH  25  28
HETATM   28  C2  UNL     1      29.304  -0.210  54.042  1.00  0.00     0.064 C 
HETATM   29  C1  UNL     1      29.785  -1.255  53.419  1.00  0.00     0.017 C 
ENDBRANCH  25  28
ENDBRANCH   1  24
TORSDOF 3
ENDMDL
MODEL 4
REMARK VINA RESULT:      -8.3      5.542      6.644
REMARK  3 active torsions:
REMARK  status: ('A' for Active; 'I' for Inactive)
REMARK    1  A    between atoms: C2_2  and  C3_3 
REMARK       I    between atoms: C3_3  and  N1_5 
REMARK    2  A    between atoms: N1_5  and  C4_6 
REMARK    3  A    between atoms: N5_19  and  C14_20 
ROOT
HETATM    1  C4  UNL     1      26.101   0.822  52.266  1.00  0.00     0.035 A 
HETATM    2  C5  UNL     1      25.017   1.043  53.104  1.00  0.00     0.032 A 
HETATM    3  C6  UNL     1      24.310   2.197  52.942  1.00  0.00     0.040 A 
HETATM    4  C7  UNL     1      24.643   3.134  51.979  1.00  0.00     0.086 A 
HETATM    5  C8  UNL     1      25.744   2.887  51.144  1.00  0.00     0.006 A 
HETATM    6  C9  UNL     1      26.480   1.727  51.284  1.00  0.00     0.041 A 
HETATM    7  C10 UNL     1      26.291   3.720  50.056  1.00  0.00     0.314 C 
HETATM    8  N2  UNL     1      25.425   4.657  49.487  1.00  0.00     0.120 NA
HETATM    9  C11 UNL     1      24.943   5.722  50.314  1.00  0.00     0.421 A 
HETATM   10  C12 UNL     1      23.679   5.300  51.036  1.00  0.00     0.202 A 
HETATM   11  N3  UNL     1      22.475   5.759  50.929  1.00  0.00    -0.216 NA
HETATM   12  C13 UNL     1      22.254   6.833  49.999  1.00  0.00     0.257 A 
HETATM   13  N4  UNL     1      23.242   7.306  49.316  1.00  0.00    -0.163 NA
HETATM   14  N5  UNL     1      24.547   6.811  49.446  1.00  0.00    -0.228 N 
HETATM   15  O2  UNL     1      23.794   4.262  51.965  1.00  0.00    -0.291 OA
HETATM   16  H10 UNL     1      25.831   5.069  48.631  1.00  0.00     0.319 HD
ENDROOT
BRANCH  14  17
HETATM   17  C14 UNL     1      25.517   7.474  48.639  1.00  0.00     0.057 A 
HETATM   18  C15 UNL     1      25.345   7.715  47.290  1.00  0.00     0.031 A 
HETATM   19  C16 UNL     1      26.249   8.355  46.484  1.00  0.00     0.004 A 
HETATM   20  C17 UNL     1      27.439   8.805  47.045  1.00  0.00     0.019 A 
HETATM   21  C18 UNL     1      27.674   8.598  48.382  1.00  0.00     0.013 A 
HETATM   22 BR1  UNL     1      29.298   9.202  49.188  1.00  0.00    -0.051 Br
HETATM   23  C19 UNL     1      26.720   7.949  49.118  1.00  0.00     0.050 A 
ENDBRANCH  14  17
BRANCH   1  24
HETATM   24  N1  UNL     1      26.889  -0.375  52.385  1.00  0.00    -0.324 N 
HETATM   25  C3  UNL     1      28.020  -0.269  53.216  1.00  0.00     0.244 C 
HETATM   26  O1  UNL     1      28.385   0.739  53.838  1.00  0.00    -0.268 OA
HETATM   27  H4  UNL     1      26.624  -1.252  51.881  1.00  0.00     0.169 HD
BRANCH  25  28
HETATM   28  C2  UNL     1      28.860  -1.439  53.382  1.00  0.00     0.064 C 
HETATM   29  C1  UNL     1      30.118  -1.372  53.738  1.00  0.00     0.017 C 
ENDBRANCH  25  28
ENDBRANCH   1  24
TORSDOF 3
ENDMDL
MODEL 5
REMARK VINA RESULT:      -8.2      4.997      7.015
REMARK  3 active torsions:
REMARK  status: ('A' for Active; 'I' for Inactive)
REMARK    1  A    between atoms: C2_2  and  C3_3 
REMARK       I    between atoms: C3_3  and  N1_5 
REMARK    2  A    between atoms: N1_5  and  C4_6 
REMARK    3  A    between atoms: N5_19  and  C14_20 
ROOT
HETATM    1  C4  UNL     1      24.977   0.955  52.981  1.00  0.00     0.035 A 
HETATM    2  C5  UNL     1      26.117   0.434  52.384  1.00  0.00     0.032 A 
HETATM    3  C6  UNL     1      26.691   1.147  51.374  1.00  0.00     0.040 A 
HETATM    4  C7  UNL     1      26.172   2.354  50.939  1.00  0.00     0.086 A 
HETATM    5  C8  UNL     1      25.018   2.859  51.559  1.00  0.00     0.006 A 
HETATM    6  C9  UNL     1      24.414   2.161  52.585  1.00  0.00     0.041 A 
HETATM    7  C10 UNL     1      24.284   4.108  51.280  1.00  0.00     0.314 C 
HETATM    8  N2  UNL     1      24.993   5.121  50.629  1.00  0.00     0.120 NA
HETATM    9  C11 UNL     1      25.456   4.874  49.297  1.00  0.00     0.421 A 
HETATM   10  C12 UNL     1      26.823   4.219  49.325  1.00  0.00     0.202 A 
HETATM   11  N3  UNL     1      27.961   4.666  48.901  1.00  0.00    -0.216 NA
HETATM   12  C13 UNL     1      27.980   5.973  48.305  1.00  0.00     0.257 A 
HETATM   13  N4  UNL     1      26.886   6.651  48.202  1.00  0.00    -0.163 NA
HETATM   14  N5  UNL     1      25.655   6.156  48.653  1.00  0.00    -0.228 N 
HETATM   15  O2  UNL     1      26.904   2.941  49.884  1.00  0.00    -0.291 OA
HETATM   16  H10 UNL     1      24.463   6.008  50.630  1.00  0.00     0.319 HD
ENDROOT
BRANCH  14  17
HETATM   17  C14 UNL     1      24.548   7.025  48.430  1.00  0.00     0.057 A 
HETATM   18  C15 UNL     1      24.469   8.303  48.948  1.00  0.00     0.031 A 
HETATM   19  C16 UNL     1      23.427   9.170  48.749  1.00  0.00     0.004 A 
HETATM   20  C17 UNL     1      22.355   8.752  47.968  1.00  0.00     0.019 A 
HETATM   21  C18 UNL     1      22.369   7.492  47.422  1.00  0.00     0.013 A 
HETATM   22 BR1  UNL     1      20.912   6.885  46.344  1.00  0.00    -0.051 Br
HETATM   23  C19 UNL     1      23.447   6.687  47.669  1.00  0.00     0.050 A 
ENDBRANCH  14  17
BRANCH   1  24
HETATM   24  N1  UNL     1      24.323   0.253  54.052  1.00  0.00    -0.324 N 
HETATM   25  C3  UNL     1      23.163  -0.454  53.684  1.00  0.00     0.244 C 
HETATM   26  O1  UNL     1      22.670  -0.523  52.549  1.00  0.00    -0.268 OA
HETATM   27  H4  UNL     1      24.697   0.279  55.027  1.00  0.00     0.169 HD
BRANCH  25  28
HETATM   28  C2  UNL     1      22.451  -1.186  54.715  1.00  0.00     0.064 C 
HETATM   29  C1  UNL     1      21.221  -1.610  54.573  1.00  0.00     0.017 C 
ENDBRANCH  25  28
ENDBRANCH   1  24
TORSDOF 3
ENDMDL
MODEL 6
REMARK VINA RESULT:      -8.2      7.232      8.691
REMARK  3 active torsions:
REMARK  status: ('A' for Active; 'I' for Inactive)
REMARK    1  A    between atoms: C2_2  and  C3_3 
REMARK       I    between atoms: C3_3  and  N1_5 
REMARK    2  A    between atoms: N1_5  and  C4_6 
REMARK    3  A    between atoms: N5_19  and  C14_20 
ROOT
HETATM    1  C4  UNL     1      30.276   6.112  47.763  1.00  0.00     0.035 A 
HETATM    2  C5  UNL     1      29.963   7.462  47.684  1.00  0.00     0.032 A 
HETATM    3  C6  UNL     1      28.712   7.851  48.062  1.00  0.00     0.040 A 
HETATM    4  C7  UNL     1      27.766   6.946  48.513  1.00  0.00     0.086 A 
HETATM    5  C8  UNL     1      28.107   5.587  48.582  1.00  0.00     0.006 A 
HETATM    6  C9  UNL     1      29.367   5.162  48.207  1.00  0.00     0.041 A 
HETATM    7  C10 UNL     1      27.286   4.444  49.025  1.00  0.00     0.314 C 
HETATM    8  N2  UNL     1      26.198   4.735  49.851  1.00  0.00     0.120 NA
HETATM    9  C11 UNL     1      25.136   5.533  49.316  1.00  0.00     0.421 A 
HETATM   10  C12 UNL     1      25.425   7.006  49.525  1.00  0.00     0.202 A 
HETATM   11  N3  UNL     1      24.794   7.877  50.243  1.00  0.00    -0.216 NA
HETATM   12  C13 UNL     1      23.637   7.427  50.968  1.00  0.00     0.257 A 
HETATM   13  N4  UNL     1      23.261   6.195  50.880  1.00  0.00    -0.163 NA
HETATM   14  N5  UNL     1      23.944   5.259  50.091  1.00  0.00    -0.228 N 
HETATM   15  O2  UNL     1      26.531   7.538  48.856  1.00  0.00    -0.291 OA
HETATM   16  H10 UNL     1      25.789   3.873  50.248  1.00  0.00     0.319 HD
ENDROOT
BRANCH  14  17
HETATM   17  C14 UNL     1      23.370   3.955  50.087  1.00  0.00     0.057 A 
HETATM   18  C15 UNL     1      22.842   3.361  48.957  1.00  0.00     0.031 A 
HETATM   19  C16 UNL     1      22.290   2.107  48.912  1.00  0.00     0.004 A 
HETATM   20  C17 UNL     1      22.247   1.358  50.082  1.00  0.00     0.019 A 
HETATM   21  C18 UNL     1      22.755   1.889  51.243  1.00  0.00     0.013 A 
HETATM   22 BR1  UNL     1      22.712   0.887  52.869  1.00  0.00    -0.051 Br
HETATM   23  C19 UNL     1      23.289   3.148  51.203  1.00  0.00     0.050 A 
ENDBRANCH  14  17
BRANCH   1  24
HETATM   24  N1  UNL     1      31.578   5.637  47.380  1.00  0.00    -0.324 N 
HETATM   25  C3  UNL     1      32.521   5.568  48.422  1.00  0.00     0.244 C 
HETATM   26  O1  UNL     1      32.333   5.873  49.608  1.00  0.00    -0.268 OA
HETATM   27  H4  UNL     1      31.789   5.367  46.393  1.00  0.00     0.169 HD
BRANCH  25  28
HETATM   28  C2  UNL     1      33.856   5.097  48.107  1.00  0.00     0.064 C 
HETATM   29  C1  UNL     1      34.924   5.484  48.758  1.00  0.00     0.017 C 
ENDBRANCH  25  28
ENDBRANCH   1  24
TORSDOF 3
ENDMDL
MODEL 7
REMARK VINA RESULT:      -8.2      1.716      2.235
REMARK  3 active torsions:
REMARK  status: ('A' for Active; 'I' for Inactive)
REMARK    1  A    between atoms: C2_2  and  C3_3 
REMARK       I    between atoms: C3_3  and  N1_5 
REMARK    2  A    between atoms: N1_5  and  C4_6 
REMARK    3  A    between atoms: N5_19  and  C14_20 
ROOT
HETATM    1  C4  UNL     1      25.446  -0.405  53.529  1.00  0.00     0.035 A 
HETATM    2  C5  UNL     1      24.483  -0.964  54.357  1.00  0.00     0.032 A 
HETATM    3  C6  UNL     1      23.200  -0.519  54.237  1.00  0.00     0.040 A 
HETATM    4  C7  UNL     1      22.845   0.461  53.326  1.00  0.00     0.086 A 
HETATM    5  C8  UNL     1      23.837   1.011  52.500  1.00  0.00     0.006 A 
HETATM    6  C9  UNL     1      25.146   0.580  52.597  1.00  0.00     0.041 A 
HETATM    7  C10 UNL     1      23.711   2.052  51.463  1.00  0.00     0.314 C 
HETATM    8  N2  UNL     1      22.438   2.251  50.923  1.00  0.00     0.120 NA
HETATM    9  C11 UNL     1      21.402   2.724  51.791  1.00  0.00     0.421 A 
HETATM   10  C12 UNL     1      20.708   1.560  52.470  1.00  0.00     0.202 A 
HETATM   11  N3  UNL     1      19.485   1.152  52.363  1.00  0.00    -0.216 NA
HETATM   12  C13 UNL     1      18.616   1.883  51.481  1.00  0.00     0.257 A 
HETATM   13  N4  UNL     1      19.065   2.909  50.839  1.00  0.00    -0.163 NA
HETATM   14  N5  UNL     1      20.389   3.352  50.968  1.00  0.00    -0.228 N 
HETATM   15  O2  UNL     1      21.472   0.790  53.351  1.00  0.00    -0.291 OA
HETATM   16  H10 UNL     1      22.475   2.867  50.094  1.00  0.00     0.319 HD
ENDROOT
BRANCH  14  17
HETATM   17  C14 UNL     1      20.702   4.518  50.211  1.00  0.00     0.057 A 
HETATM   18  C15 UNL     1      20.061   4.853  49.034  1.00  0.00     0.031 A 
HETATM   19  C16 UNL     1      20.327   5.968  48.283  1.00  0.00     0.004 A 
HETATM   20  C17 UNL     1      21.315   6.843  48.720  1.00  0.00     0.019 A 
HETATM   21  C18 UNL     1      21.993   6.569  49.883  1.00  0.00     0.013 A 
HETATM   22 BR1  UNL     1      23.357   7.749  50.513  1.00  0.00    -0.051 Br
HETATM   23  C19 UNL     1      21.666   5.434  50.575  1.00  0.00     0.050 A 
ENDBRANCH  14  17
BRANCH   1  24
HETATM   24  N1  UNL     1      26.817  -0.831  53.605  1.00  0.00    -0.324 N 
HETATM   25  C3  UNL     1      27.666   0.013  54.346  1.00  0.00     0.244 C 
HETATM   26  O1  UNL     1      27.344   1.061  54.923  1.00  0.00    -0.268 OA
HETATM   27  H4  UNL     1      27.140  -1.706  53.136  1.00  0.00     0.169 HD
BRANCH  25  28
HETATM   28  C2  UNL     1      29.064  -0.357  54.464  1.00  0.00     0.064 C 
HETATM   29  C1  UNL     1      29.778  -0.789  53.456  1.00  0.00     0.017 C 
ENDBRANCH  25  28
ENDBRANCH   1  24
TORSDOF 3
ENDMDL
MODEL 8
REMARK VINA RESULT:      -8.1      5.207      7.364
REMARK  3 active torsions:
REMARK  status: ('A' for Active; 'I' for Inactive)
REMARK    1  A    between atoms: C2_2  and  C3_3 
REMARK       I    between atoms: C3_3  and  N1_5 
REMARK    2  A    between atoms: N1_5  and  C4_6 
REMARK    3  A    between atoms: N5_19  and  C14_20 
ROOT
HETATM    1  C4  UNL     1      24.330   7.910  50.489  1.00  0.00     0.035 A 
HETATM    2  C5  UNL     1      23.320   8.155  49.569  1.00  0.00     0.032 A 
HETATM    3  C6  UNL     1      22.290   7.265  49.500  1.00  0.00     0.040 A 
HETATM    4  C7  UNL     1      22.230   6.145  50.312  1.00  0.00     0.086 A 
HETATM    5  C8  UNL     1      23.264   5.921  51.234  1.00  0.00     0.006 A 
HETATM    6  C9  UNL     1      24.321   6.804  51.328  1.00  0.00     0.041 A 
HETATM    7  C10 UNL     1      23.426   4.815  52.197  1.00  0.00     0.314 C 
HETATM    8  N2  UNL     1      22.268   4.121  52.556  1.00  0.00     0.120 NA
HETATM    9  C11 UNL     1      21.578   3.384  51.540  1.00  0.00     0.421 A 
HETATM   10  C12 UNL     1      20.577   4.273  50.831  1.00  0.00     0.202 A 
HETATM   11  N3  UNL     1      19.286   4.198  50.796  1.00  0.00    -0.216 NA
HETATM   12  C13 UNL     1      18.664   3.126  51.523  1.00  0.00     0.257 A 
HETATM   13  N4  UNL     1      19.392   2.279  52.170  1.00  0.00    -0.163 NA
HETATM   14  N5  UNL     1      20.791   2.360  52.194  1.00  0.00    -0.228 N 
HETATM   15  O2  UNL     1      21.088   5.345  50.093  1.00  0.00    -0.291 OA
HETATM   16  H10 UNL     1      22.444   3.488  53.354  1.00  0.00     0.319 HD
ENDROOT
BRANCH  14  17
HETATM   17  C14 UNL     1      21.433   1.324  52.932  1.00  0.00     0.057 A 
HETATM   18  C15 UNL     1      20.784   0.546  53.871  1.00  0.00     0.031 A 
HETATM   19  C16 UNL     1      21.364  -0.463  54.594  1.00  0.00     0.004 A 
HETATM   20  C17 UNL     1      22.709  -0.744  54.382  1.00  0.00     0.019 A 
HETATM   21  C18 UNL     1      23.415  -0.008  53.462  1.00  0.00     0.013 A 
HETATM   22 BR1  UNL     1      25.266  -0.365  53.145  1.00  0.00    -0.051 Br
HETATM   23  C19 UNL     1      22.762   0.984  52.782  1.00  0.00     0.050 A 
ENDBRANCH  14  17
BRANCH   1  24
HETATM   24  N1  UNL     1      25.445   8.810  50.612  1.00  0.00    -0.324 N 
HETATM   25  C3  UNL     1      26.606   8.423  49.917  1.00  0.00     0.244 C 
HETATM   26  O1  UNL     1      26.748   7.404  49.227  1.00  0.00    -0.268 OA
HETATM   27  H4  UNL     1      25.378   9.683  51.182  1.00  0.00     0.169 HD
BRANCH  25  28
HETATM   28  C2  UNL     1      27.771   9.285  49.997  1.00  0.00     0.064 C 
HETATM   29  C1  UNL     1      27.953  10.316  49.212  1.00  0.00     0.017 C 
ENDBRANCH  25  28
ENDBRANCH   1  24
TORSDOF 3
ENDMDL
MODEL 9
REMARK VINA RESULT:      -8.0      2.883      7.822
REMARK  3 active torsions:
REMARK  status: ('A' for Active; 'I' for Inactive)
REMARK    1  A    between atoms: C2_2  and  C3_3 
REMARK       I    between atoms: C3_3  and  N1_5 
REMARK    2  A    between atoms: N1_5  and  C4_6 
REMARK    3  A    between atoms: N5_19  and  C14_20 
ROOT
HETATM    1  C4  UNL     1      16.919   0.097  51.836  1.00  0.00     0.035 A 
HETATM    2  C5  UNL     1      16.742  -1.042  52.609  1.00  0.00     0.032 A 
HETATM    3  C6  UNL     1      17.837  -1.575  53.222  1.00  0.00     0.040 A 
HETATM    4  C7  UNL     1      19.097  -1.015  53.093  1.00  0.00     0.086 A 
HETATM    5  C8  UNL     1      19.249   0.137  52.306  1.00  0.00     0.006 A 
HETATM    6  C9  UNL     1      18.159   0.700  51.672  1.00  0.00     0.041 A 
HETATM    7  C10 UNL     1      20.472   0.911  52.018  1.00  0.00     0.314 C 
HETATM    8  N2  UNL     1      21.531   0.770  52.919  1.00  0.00     0.120 NA
HETATM    9  C11 UNL     1      22.148  -0.516  53.042  1.00  0.00     0.421 A 
HETATM   10  C12 UNL     1      21.425  -1.352  54.080  1.00  0.00     0.202 A 
HETATM   11  N3  UNL     1      21.847  -1.803  55.216  1.00  0.00    -0.216 NA
HETATM   12  C13 UNL     1      23.199  -1.493  55.592  1.00  0.00     0.257 A 
HETATM   13  N4  UNL     1      23.944  -0.794  54.802  1.00  0.00    -0.163 NA
HETATM   14  N5  UNL     1      23.482  -0.318  53.567  1.00  0.00    -0.228 N 
HETATM   15  O2  UNL     1      20.103  -1.708  53.801  1.00  0.00    -0.291 OA
HETATM   16  H10 UNL     1      22.270   1.469  52.739  1.00  0.00     0.319 HD
ENDROOT
BRANCH  14  17
HETATM   17  C14 UNL     1      24.449   0.407  52.812  1.00  0.00     0.057 A 
HETATM   18  C15 UNL     1      25.777   0.038  52.725  1.00  0.00     0.031 A 
HETATM   19  C16 UNL     1      26.733   0.704  52.004  1.00  0.00     0.004 A 
HETATM   20  C17 UNL     1      26.361   1.842  51.298  1.00  0.00     0.019 A 
HETATM   21  C18 UNL     1      25.055   2.266  51.341  1.00  0.00     0.013 A 
HETATM   22 BR1  UNL     1      24.507   3.826  50.383  1.00  0.00    -0.051 Br
HETATM   23  C19 UNL     1      24.161   1.544  52.086  1.00  0.00     0.050 A 
ENDBRANCH  14  17
BRANCH   1  24
HETATM   24  N1  UNL     1      15.806   0.708  51.163  1.00  0.00    -0.324 N 
HETATM   25  C3  UNL     1      14.996   1.530  51.969  1.00  0.00     0.244 C 
HETATM   26  O1  UNL     1      15.155   1.766  53.176  1.00  0.00    -0.268 OA
HETATM   27  H4  UNL     1      15.627   0.541  50.147  1.00  0.00     0.169 HD
BRANCH  25  28
HETATM   28  C2  UNL     1      13.853   2.180  51.355  1.00  0.00     0.064 C 
HETATM   29  C1  UNL     1      13.275   1.734  50.269  1.00  0.00     0.017 C 
ENDBRANCH  25  28
ENDBRANCH   1  24
TORSDOF 3
ENDMDL
