MODEL 1
REMARK VINA RESULT:      -8.7      0.000      0.000
REMARK  6 active torsions:
REMARK  status: ('A' for Active; 'I' for Inactive)
REMARK    1  A    between atoms: C2_2  and  C3_3 
REMARK       I    between atoms: C3_3  and  N1_5 
REMARK    2  A    between atoms: N1_5  and  C4_6 
REMARK    3  A    between atoms: C10_12  and  N2_13 
REMARK    4  A    between atoms: N2_13  and  C11_14 
REMARK    5  A    between atoms: C14_19  and  N5_20 
REMARK    6  A    between atoms: N5_20  and  C15_21 
ROOT
HETATM    1  C11 UNL     1      27.566   2.068  52.708  1.00  0.00     0.094 A 
HETATM    2  C12 UNL     1      28.565   2.500  53.526  1.00  0.00     0.151 A 
HETATM    3  N3  UNL     1      28.866   1.706  54.563  1.00  0.00    -0.252 NA
HETATM    4  C13 UNL     1      28.219   0.551  54.779  1.00  0.00     0.235 A 
HETATM    5  N4  UNL     1      27.210   0.090  53.975  1.00  0.00    -0.222 NA
HETATM    6  C14 UNL     1      26.857   0.866  52.891  1.00  0.00     0.157 A 
ENDROOT
BRANCH   1   7
HETATM    7  N2  UNL     1      26.898   2.519  51.527  1.00  0.00    -0.355 N 
HETATM    8  H9  UNL     1      27.715   2.217  50.907  1.00  0.00     0.162 HD
BRANCH   7   9
HETATM    9  C10 UNL     1      26.372   2.906  50.278  1.00  0.00     0.265 A 
HETATM   10  C8  UNL     1      25.607   4.218  50.352  1.00  0.00     0.026 A 
HETATM   11  C7  UNL     1      26.501   4.726  49.461  1.00  0.00     0.082 A 
HETATM   12  C9  UNL     1      24.546   4.931  50.891  1.00  0.00     0.044 A 
HETATM   13  C6  UNL     1      26.371   6.053  49.040  1.00  0.00     0.040 A 
HETATM   14  O2  UNL     1      27.216   3.564  49.365  1.00  0.00    -0.321 OA
HETATM   15  C5  UNL     1      25.319   6.799  49.559  1.00  0.00     0.032 A 
HETATM   16  C4  UNL     1      24.426   6.242  50.469  1.00  0.00     0.035 A 
BRANCH  16  17
HETATM   17  N1  UNL     1      23.354   7.033  50.984  1.00  0.00    -0.324 N 
HETATM   18  C3  UNL     1      22.179   7.068  50.197  1.00  0.00     0.244 C 
HETATM   19  O1  UNL     1      22.048   6.453  49.101  1.00  0.00    -0.268 OA
HETATM   20  H4  UNL     1      23.201   7.632  51.848  1.00  0.00     0.169 HD
BRANCH  18  21
HETATM   21  C2  UNL     1      20.937   7.792  50.482  1.00  0.00     0.064 C 
HETATM   22  C1  UNL     1      20.893   8.758  49.567  1.00  0.00     0.017 C 
ENDBRANCH  18  21
ENDBRANCH  16  17
ENDBRANCH   7   9
ENDBRANCH   1   7
BRANCH   6  23
HETATM   23  N5  UNL     1      25.807   0.158  52.262  1.00  0.00    -0.339 N 
HETATM   24  H12 UNL     1      26.001  -0.511  51.477  1.00  0.00     0.167 HD
BRANCH  23  25
HETATM   25  C15 UNL     1      24.463   0.347  52.690  1.00  0.00     0.035 A 
HETATM   26  C16 UNL     1      23.759   1.490  52.442  1.00  0.00     0.032 A 
HETATM   27  C17 UNL     1      22.457   1.763  52.810  1.00  0.00     0.046 A 
HETATM   28  C18 UNL     1      21.824   0.730  53.511  1.00  0.00     0.138 A 
HETATM   29  F1  UNL     1      20.540   1.008  53.869  1.00  0.00    -0.204 F 
HETATM   30  C19 UNL     1      22.503  -0.461  53.788  1.00  0.00     0.074 A 
HETATM   31 CL1  UNL     1      21.631  -1.685  54.664  1.00  0.00    -0.081 Cl
HETATM   32  C20 UNL     1      23.806  -0.642  53.381  1.00  0.00     0.056 A 
ENDBRANCH  23  25
ENDBRANCH   6  23
TORSDOF 6
ENDMDL
MODEL 2
REMARK VINA RESULT:      -8.2      3.261      4.937
REMARK  6 active torsions:
REMARK  status: ('A' for Active; 'I' for Inactive)
REMARK    1  A    between atoms: C2_2  and  C3_3 
REMARK       I    between atoms: C3_3  and  N1_5 
REMARK    2  A    between atoms: N1_5  and  C4_6 
REMARK    3  A    between atoms: C10_12  and  N2_13 
REMARK    4  A    between atoms: N2_13  and  C11_14 
REMARK    5  A    between atoms: C14_19  and  N5_20 
REMARK    6  A    between atoms: N5_20  and  C15_21 
ROOT
HETATM    1  C11 UNL     1      22.186   0.319  53.652  1.00  0.00     0.094 A 
HETATM    2  C12 UNL     1      21.489  -0.262  54.667  1.00  0.00     0.151 A 
HETATM    3  N3  UNL     1      22.173  -1.113  55.444  1.00  0.00    -0.252 NA
HETATM    4  C13 UNL     1      23.472  -1.375  55.231  1.00  0.00     0.235 A 
HETATM    5  N4  UNL     1      24.200  -0.806  54.220  1.00  0.00    -0.222 NA
HETATM    6  C14 UNL     1      23.547   0.079  53.387  1.00  0.00     0.157 A 
ENDROOT
BRANCH   1   7
HETATM    7  N2  UNL     1      21.936   1.251  52.597  1.00  0.00    -0.355 N 
HETATM    8  H9  UNL     1      20.885   1.242  52.789  1.00  0.00     0.162 HD
BRANCH   7   9
HETATM    9  C10 UNL     1      21.530   2.164  51.602  1.00  0.00     0.265 A 
HETATM   10  C8  UNL     1      22.680   3.019  51.094  1.00  0.00     0.026 A 
HETATM   11  C7  UNL     1      22.454   2.492  49.860  1.00  0.00     0.082 A 
HETATM   12  C9  UNL     1      23.670   3.948  51.381  1.00  0.00     0.044 A 
HETATM   13  C6  UNL     1      23.256   2.893  48.787  1.00  0.00     0.040 A 
HETATM   14  O2  UNL     1      21.414   1.708  50.276  1.00  0.00    -0.321 OA
HETATM   15  C5  UNL     1      24.258   3.824  49.036  1.00  0.00     0.032 A 
HETATM   16  C4  UNL     1      24.456   4.339  50.313  1.00  0.00     0.035 A 
BRANCH  16  17
HETATM   17  N1  UNL     1      25.493   5.294  50.539  1.00  0.00    -0.324 N 
HETATM   18  C3  UNL     1      25.181   6.634  50.205  1.00  0.00     0.244 C 
HETATM   19  O1  UNL     1      24.068   7.000  49.734  1.00  0.00    -0.268 OA
HETATM   20  H4  UNL     1      26.488   5.261  50.910  1.00  0.00     0.169 HD
BRANCH  18  21
HETATM   21  C2  UNL     1      26.048   7.809  50.332  1.00  0.00     0.064 C 
HETATM   22  C1  UNL     1      26.873   7.732  49.291  1.00  0.00     0.017 C 
ENDBRANCH  18  21
ENDBRANCH  16  17
ENDBRANCH   7   9
ENDBRANCH   1   7
BRANCH   6  23
HETATM   23  N5  UNL     1      24.527   0.492  52.455  1.00  0.00    -0.339 N 
HETATM   24  H12 UNL     1      24.279   0.661  51.449  1.00  0.00     0.167 HD
BRANCH  23  25
HETATM   25  C15 UNL     1      25.874   0.682  52.873  1.00  0.00     0.035 A 
HETATM   26  C16 UNL     1      26.355   1.884  53.306  1.00  0.00     0.032 A 
HETATM   27  C17 UNL     1      27.636   2.163  53.735  1.00  0.00     0.046 A 
HETATM   28  C18 UNL     1      28.509   1.069  53.707  1.00  0.00     0.138 A 
HETATM   29  F1  UNL     1      29.771   1.354  54.132  1.00  0.00    -0.204 F 
HETATM   30  C19 UNL     1      28.063  -0.183  53.272  1.00  0.00     0.074 A 
HETATM   31 CL1  UNL     1      29.221  -1.482  53.274  1.00  0.00    -0.081 Cl
HETATM   32  C20 UNL     1      26.762  -0.367  52.861  1.00  0.00     0.056 A 
ENDBRANCH  23  25
ENDBRANCH   6  23
TORSDOF 6
ENDMDL
MODEL 3
REMARK VINA RESULT:      -8.2      3.889      8.223
REMARK  6 active torsions:
REMARK  status: ('A' for Active; 'I' for Inactive)
REMARK    1  A    between atoms: C2_2  and  C3_3 
REMARK       I    between atoms: C3_3  and  N1_5 
REMARK    2  A    between atoms: N1_5  and  C4_6 
REMARK    3  A    between atoms: C10_12  and  N2_13 
REMARK    4  A    between atoms: N2_13  and  C11_14 
REMARK    5  A    between atoms: C14_19  and  N5_20 
REMARK    6  A    between atoms: N5_20  and  C15_21 
ROOT
HETATM    1  C11 UNL     1      22.145   5.081  50.154  1.00  0.00     0.094 A 
HETATM    2  C12 UNL     1      20.932   5.620  49.851  1.00  0.00     0.151 A 
HETATM    3  N3  UNL     1      20.804   6.939  50.050  1.00  0.00    -0.252 NA
HETATM    4  C13 UNL     1      21.818   7.684  50.519  1.00  0.00     0.235 A 
HETATM    5  N4  UNL     1      23.048   7.171  50.831  1.00  0.00    -0.222 NA
HETATM    6  C14 UNL     1      23.238   5.817  50.648  1.00  0.00     0.157 A 
ENDROOT
BRANCH   1   7
HETATM    7  N2  UNL     1      22.766   3.793  50.123  1.00  0.00    -0.355 N 
HETATM    8  H9  UNL     1      21.820   3.296  50.153  1.00  0.00     0.162 HD
BRANCH   7   9
HETATM    9  C10 UNL     1      23.225   2.461  50.091  1.00  0.00     0.265 A 
HETATM   10  C8  UNL     1      24.053   2.103  51.315  1.00  0.00     0.026 A 
HETATM   11  C7  UNL     1      23.126   1.147  51.594  1.00  0.00     0.082 A 
HETATM   12  C9  UNL     1      25.180   2.351  52.085  1.00  0.00     0.044 A 
HETATM   13  C6  UNL     1      23.289   0.345  52.728  1.00  0.00     0.040 A 
HETATM   14  O2  UNL     1      22.353   1.437  50.505  1.00  0.00    -0.321 OA
HETATM   15  C5  UNL     1      24.407   0.564  53.524  1.00  0.00     0.032 A 
HETATM   16  C4  UNL     1      25.333   1.552  53.203  1.00  0.00     0.035 A 
BRANCH  16  17
HETATM   17  N1  UNL     1      26.472   1.754  54.040  1.00  0.00    -0.324 N 
HETATM   18  C3  UNL     1      27.598   0.944  53.756  1.00  0.00     0.244 C 
HETATM   19  O1  UNL     1      27.630   0.085  52.831  1.00  0.00    -0.268 OA
HETATM   20  H4  UNL     1      26.708   2.385  54.861  1.00  0.00     0.169 HD
BRANCH  18  21
HETATM   21  C2  UNL     1      28.889   0.940  54.448  1.00  0.00     0.064 C 
HETATM   22  C1  UNL     1      29.655   0.126  53.727  1.00  0.00     0.017 C 
ENDBRANCH  18  21
ENDBRANCH  16  17
ENDBRANCH   7   9
ENDBRANCH   1   7
BRANCH   6  23
HETATM   23  N5  UNL     1      24.572   5.578  51.052  1.00  0.00    -0.339 N 
HETATM   24  H12 UNL     1      24.793   5.263  52.028  1.00  0.00     0.167 HD
BRANCH  23  25
HETATM   25  C15 UNL     1      25.640   5.766  50.130  1.00  0.00     0.035 A 
HETATM   26  C16 UNL     1      26.328   4.729  49.568  1.00  0.00     0.032 A 
HETATM   27  C17 UNL     1      27.368   4.812  48.666  1.00  0.00     0.046 A 
HETATM   28  C18 UNL     1      27.729   6.118  48.314  1.00  0.00     0.138 A 
HETATM   29  F1  UNL     1      28.757   6.189  47.424  1.00  0.00    -0.204 F 
HETATM   30  C19 UNL     1      27.055   7.213  48.863  1.00  0.00     0.074 A 
HETATM   31 CL1  UNL     1      27.575   8.796  48.364  1.00  0.00    -0.081 Cl
HETATM   32  C20 UNL     1      26.025   7.032  49.759  1.00  0.00     0.056 A 
ENDBRANCH  23  25
ENDBRANCH   6  23
TORSDOF 6
ENDMDL
MODEL 4
REMARK VINA RESULT:      -8.1      4.201      8.111
REMARK  6 active torsions:
REMARK  status: ('A' for Active; 'I' for Inactive)
REMARK    1  A    between atoms: C2_2  and  C3_3 
REMARK       I    between atoms: C3_3  and  N1_5 
REMARK    2  A    between atoms: N1_5  and  C4_6 
REMARK    3  A    between atoms: C10_12  and  N2_13 
REMARK    4  A    between atoms: N2_13  and  C11_14 
REMARK    5  A    between atoms: C14_19  and  N5_20 
REMARK    6  A    between atoms: N5_20  and  C15_21 
ROOT
HETATM    1  C11 UNL     1      21.477   2.937  49.390  1.00  0.00     0.094 A 
HETATM    2  C12 UNL     1      20.752   2.207  48.496  1.00  0.00     0.151 A 
HETATM    3  N3  UNL     1      20.896   2.539  47.206  1.00  0.00    -0.252 NA
HETATM    4  C13 UNL     1      21.710   3.534  46.819  1.00  0.00     0.235 A 
HETATM    5  N4  UNL     1      22.450   4.285  47.693  1.00  0.00    -0.222 NA
HETATM    6  C14 UNL     1      22.342   3.988  49.036  1.00  0.00     0.157 A 
ENDROOT
BRANCH   1   7
HETATM    7  N2  UNL     1      21.672   2.981  50.806  1.00  0.00    -0.355 N 
HETATM    8  H9  UNL     1      22.560   3.567  50.701  1.00  0.00     0.162 HD
BRANCH   7   9
HETATM    9  C10 UNL     1      21.997   3.121  52.170  1.00  0.00     0.265 A 
HETATM   10  C8  UNL     1      23.115   2.183  52.598  1.00  0.00     0.026 A 
HETATM   11  C7  UNL     1      23.839   3.286  52.928  1.00  0.00     0.082 A 
HETATM   12  C9  UNL     1      23.564   0.878  52.743  1.00  0.00     0.044 A 
HETATM   13  C6  UNL     1      25.128   3.130  53.449  1.00  0.00     0.040 A 
HETATM   14  O2  UNL     1      22.860   4.163  52.554  1.00  0.00    -0.321 OA
HETATM   15  C5  UNL     1      25.612   1.836  53.608  1.00  0.00     0.032 A 
HETATM   16  C4  UNL     1      24.839   0.733  53.259  1.00  0.00     0.035 A 
BRANCH  16  17
HETATM   17  N1  UNL     1      25.362  -0.583  53.434  1.00  0.00    -0.324 N 
HETATM   18  C3  UNL     1      26.347  -0.986  52.501  1.00  0.00     0.244 C 
HETATM   19  O1  UNL     1      26.762  -0.254  51.558  1.00  0.00    -0.268 OA
HETATM   20  H4  UNL     1      25.197  -1.381  54.116  1.00  0.00     0.169 HD
BRANCH  18  21
HETATM   21  C2  UNL     1      27.049  -2.271  52.444  1.00  0.00     0.064 C 
HETATM   22  C1  UNL     1      28.222  -2.040  53.029  1.00  0.00     0.017 C 
ENDBRANCH  18  21
ENDBRANCH  16  17
ENDBRANCH   7   9
ENDBRANCH   1   7
BRANCH   6  23
HETATM   23  N5  UNL     1      23.197   4.911  49.683  1.00  0.00    -0.339 N 
HETATM   24  H12 UNL     1      22.823   5.589  50.390  1.00  0.00     0.167 HD
BRANCH  23  25
HETATM   25  C15 UNL     1      24.586   4.931  49.377  1.00  0.00     0.035 A 
HETATM   26  C16 UNL     1      25.410   3.864  49.596  1.00  0.00     0.032 A 
HETATM   27  C17 UNL     1      26.761   3.786  49.328  1.00  0.00     0.046 A 
HETATM   28  C18 UNL     1      27.311   4.949  48.773  1.00  0.00     0.138 A 
HETATM   29  F1  UNL     1      28.645   4.862  48.513  1.00  0.00    -0.204 F 
HETATM   30  C19 UNL     1      26.508   6.067  48.530  1.00  0.00     0.074 A 
HETATM   31 CL1  UNL     1      27.281   7.464  47.838  1.00  0.00    -0.081 Cl
HETATM   32  C20 UNL     1      25.164   6.052  48.832  1.00  0.00     0.056 A 
ENDBRANCH  23  25
ENDBRANCH   6  23
TORSDOF 6
ENDMDL
MODEL 5
REMARK VINA RESULT:      -8.1      2.654      3.098
REMARK  6 active torsions:
REMARK  status: ('A' for Active; 'I' for Inactive)
REMARK    1  A    between atoms: C2_2  and  C3_3 
REMARK       I    between atoms: C3_3  and  N1_5 
REMARK    2  A    between atoms: N1_5  and  C4_6 
REMARK    3  A    between atoms: C10_12  and  N2_13 
REMARK    4  A    between atoms: N2_13  and  C11_14 
REMARK    5  A    between atoms: C14_19  and  N5_20 
REMARK    6  A    between atoms: N5_20  and  C15_21 
ROOT
HETATM    1  C11 UNL     1      26.674   1.098  52.160  1.00  0.00     0.094 A 
HETATM    2  C12 UNL     1      27.203  -0.131  52.414  1.00  0.00     0.151 A 
HETATM    3  N3  UNL     1      27.094  -0.574  53.674  1.00  0.00    -0.252 NA
HETATM    4  C13 UNL     1      26.495   0.155  54.629  1.00  0.00     0.235 A 
HETATM    5  N4  UNL     1      25.955   1.393  54.405  1.00  0.00    -0.222 NA
HETATM    6  C14 UNL     1      26.038   1.900  53.125  1.00  0.00     0.157 A 
ENDROOT
BRANCH   1   7
HETATM    7  N2  UNL     1      26.535   1.977  51.042  1.00  0.00    -0.355 N 
HETATM    8  H9  UNL     1      27.249   1.424  50.471  1.00  0.00     0.162 HD
BRANCH   7   9
HETATM    9  C10 UNL     1      26.505   2.745  49.860  1.00  0.00     0.265 A 
HETATM   10  C8  UNL     1      25.104   3.229  49.518  1.00  0.00     0.026 A 
HETATM   11  C7  UNL     1      25.578   4.500  49.621  1.00  0.00     0.082 A 
HETATM   12  C9  UNL     1      23.792   2.905  49.205  1.00  0.00     0.044 A 
HETATM   13  C6  UNL     1      24.710   5.575  49.404  1.00  0.00     0.040 A 
HETATM   14  O2  UNL     1      26.850   4.107  49.931  1.00  0.00    -0.321 OA
HETATM   15  C5  UNL     1      23.388   5.288  49.088  1.00  0.00     0.032 A 
HETATM   16  C4  UNL     1      22.942   3.974  48.991  1.00  0.00     0.035 A 
BRANCH  16  17
HETATM   17  N1  UNL     1      21.577   3.710  48.664  1.00  0.00    -0.324 N 
HETATM   18  C3  UNL     1      21.278   3.630  47.283  1.00  0.00     0.244 C 
HETATM   19  O1  UNL     1      22.137   3.778  46.368  1.00  0.00    -0.268 OA
HETATM   20  H4  UNL     1      20.682   3.551  49.213  1.00  0.00     0.169 HD
BRANCH  18  21
HETATM   21  C2  UNL     1      19.974   3.373  46.667  1.00  0.00     0.064 C 
HETATM   22  C1  UNL     1      19.112   3.398  47.681  1.00  0.00     0.017 C 
ENDBRANCH  18  21
ENDBRANCH  16  17
ENDBRANCH   7   9
ENDBRANCH   1   7
BRANCH   6  23
HETATM   23  N5  UNL     1      25.415   3.168  53.195  1.00  0.00    -0.339 N 
HETATM   24  H12 UNL     1      25.957   4.022  53.477  1.00  0.00     0.167 HD
BRANCH  23  25
HETATM   25  C15 UNL     1      24.033   3.302  52.882  1.00  0.00     0.035 A 
HETATM   26  C16 UNL     1      23.414   4.512  52.757  1.00  0.00     0.032 A 
HETATM   27  C17 UNL     1      22.088   4.741  52.453  1.00  0.00     0.046 A 
HETATM   28  C18 UNL     1      21.328   3.581  52.258  1.00  0.00     0.138 A 
HETATM   29  F1  UNL     1      20.021   3.818  51.958  1.00  0.00    -0.204 F 
HETATM   30  C19 UNL     1      21.917   2.319  52.375  1.00  0.00     0.074 A 
HETATM   31 CL1  UNL     1      20.892   0.937  52.115  1.00  0.00    -0.081 Cl
HETATM   32  C20 UNL     1      23.253   2.188  52.684  1.00  0.00     0.056 A 
ENDBRANCH  23  25
ENDBRANCH   6  23
TORSDOF 6
ENDMDL
MODEL 6
REMARK VINA RESULT:      -8.0      3.906      6.887
REMARK  6 active torsions:
REMARK  status: ('A' for Active; 'I' for Inactive)
REMARK    1  A    between atoms: C2_2  and  C3_3 
REMARK       I    between atoms: C3_3  and  N1_5 
REMARK    2  A    between atoms: N1_5  and  C4_6 
REMARK    3  A    between atoms: C10_12  and  N2_13 
REMARK    4  A    between atoms: N2_13  and  C11_14 
REMARK    5  A    between atoms: C14_19  and  N5_20 
REMARK    6  A    between atoms: N5_20  and  C15_21 
ROOT
HETATM    1  C11 UNL     1      24.478   2.360  51.241  1.00  0.00     0.094 A 
HETATM    2  C12 UNL     1      24.094   2.664  49.969  1.00  0.00     0.151 A 
HETATM    3  N3  UNL     1      25.030   3.214  49.184  1.00  0.00    -0.252 NA
HETATM    4  C13 UNL     1      26.274   3.450  49.627  1.00  0.00     0.235 A 
HETATM    5  N4  UNL     1      26.690   3.156  50.899  1.00  0.00    -0.222 NA
HETATM    6  C14 UNL     1      25.768   2.588  51.753  1.00  0.00     0.157 A 
ENDROOT
BRANCH   1   7
HETATM    7  N2  UNL     1      23.892   1.788  52.413  1.00  0.00    -0.355 N 
HETATM    8  H9  UNL     1      24.796   1.914  52.970  1.00  0.00     0.162 HD
BRANCH   7   9
HETATM    9  C10 UNL     1      23.460   1.255  53.644  1.00  0.00     0.265 A 
HETATM   10  C8  UNL     1      22.085   0.612  53.546  1.00  0.00     0.026 A 
HETATM   11  C7  UNL     1      22.667  -0.558  53.926  1.00  0.00     0.082 A 
HETATM   12  C9  UNL     1      20.734   0.761  53.267  1.00  0.00     0.044 A 
HETATM   13  C6  UNL     1      21.878  -1.706  54.052  1.00  0.00     0.040 A 
HETATM   14  O2  UNL     1      23.919  -0.018  54.026  1.00  0.00    -0.321 OA
HETATM   15  C5  UNL     1      20.520  -1.594  53.781  1.00  0.00     0.032 A 
HETATM   16  C4  UNL     1      19.963  -0.379  53.395  1.00  0.00     0.035 A 
BRANCH  16  17
HETATM   17  N1  UNL     1      18.564  -0.294  53.123  1.00  0.00    -0.324 N 
HETATM   18  C3  UNL     1      18.208  -0.132  51.763  1.00  0.00     0.244 C 
HETATM   19  O1  UNL     1      19.046  -0.061  50.821  1.00  0.00    -0.268 OA
HETATM   20  H4  UNL     1      17.675  -0.322  53.705  1.00  0.00     0.169 HD
BRANCH  18  21
HETATM   21  C2  UNL     1      16.858  -0.018  51.203  1.00  0.00     0.064 C 
HETATM   22  C1  UNL     1      16.060   0.073  52.264  1.00  0.00     0.017 C 
ENDBRANCH  18  21
ENDBRANCH  16  17
ENDBRANCH   7   9
ENDBRANCH   1   7
BRANCH   6  23
HETATM   23  N5  UNL     1      26.464   2.406  52.971  1.00  0.00    -0.339 N 
HETATM   24  H12 UNL     1      26.326   3.064  53.776  1.00  0.00     0.167 HD
BRANCH  23  25
HETATM   25  C15 UNL     1      27.370   1.318  53.118  1.00  0.00     0.035 A 
HETATM   26  C16 UNL     1      28.645   1.471  53.583  1.00  0.00     0.032 A 
HETATM   27  C17 UNL     1      29.589   0.482  53.765  1.00  0.00     0.046 A 
HETATM   28  C18 UNL     1      29.155  -0.805  53.424  1.00  0.00     0.138 A 
HETATM   29  F1  UNL     1      30.095  -1.774  53.607  1.00  0.00    -0.204 F 
HETATM   30  C19 UNL     1      27.859  -1.013  52.944  1.00  0.00     0.074 A 
HETATM   31 CL1  UNL     1      27.412  -2.647  52.548  1.00  0.00    -0.081 Cl
HETATM   32  C20 UNL     1      26.983   0.040  52.795  1.00  0.00     0.056 A 
ENDBRANCH  23  25
ENDBRANCH   6  23
TORSDOF 6
ENDMDL
MODEL 7
REMARK VINA RESULT:      -8.0      3.587      5.934
REMARK  6 active torsions:
REMARK  status: ('A' for Active; 'I' for Inactive)
REMARK    1  A    between atoms: C2_2  and  C3_3 
REMARK       I    between atoms: C3_3  and  N1_5 
REMARK    2  A    between atoms: N1_5  and  C4_6 
REMARK    3  A    between atoms: C10_12  and  N2_13 
REMARK    4  A    between atoms: N2_13  and  C11_14 
REMARK    5  A    between atoms: C14_19  and  N5_20 
REMARK    6  A    between atoms: N5_20  and  C15_21 
ROOT
HETATM    1  C11 UNL     1      25.399   4.840  50.392  1.00  0.00     0.094 A 
HETATM    2  C12 UNL     1      25.764   6.047  49.877  1.00  0.00     0.151 A 
HETATM    3  N3  UNL     1      26.809   6.041  49.037  1.00  0.00    -0.252 NA
HETATM    4  C13 UNL     1      27.455   4.907  48.722  1.00  0.00     0.235 A 
HETATM    5  N4  UNL     1      27.111   3.680  49.224  1.00  0.00    -0.222 NA
HETATM    6  C14 UNL     1      26.043   3.625  50.094  1.00  0.00     0.157 A 
ENDROOT
BRANCH   1   7
HETATM    7  N2  UNL     1      24.405   4.330  51.284  1.00  0.00    -0.355 N 
HETATM    8  H9  UNL     1      24.972   4.622  52.141  1.00  0.00     0.162 HD
BRANCH   7   9
HETATM    9  C10 UNL     1      23.521   3.883  52.287  1.00  0.00     0.265 A 
HETATM   10  C8  UNL     1      22.515   2.869  51.764  1.00  0.00     0.026 A 
HETATM   11  C7  UNL     1      23.029   1.982  52.658  1.00  0.00     0.082 A 
HETATM   12  C9  UNL     1      21.480   2.586  50.885  1.00  0.00     0.044 A 
HETATM   13  C6  UNL     1      22.501   0.689  52.721  1.00  0.00     0.040 A 
HETATM   14  O2  UNL     1      23.947   2.864  53.156  1.00  0.00    -0.321 OA
HETATM   15  C5  UNL     1      21.461   0.369  51.855  1.00  0.00     0.032 A 
HETATM   16  C4  UNL     1      20.964   1.305  50.955  1.00  0.00     0.035 A 
BRANCH  16  17
HETATM   17  N1  UNL     1      19.895   0.948  50.078  1.00  0.00    -0.324 N 
HETATM   18  C3  UNL     1      18.591   1.252  50.539  1.00  0.00     0.244 C 
HETATM   19  O1  UNL     1      18.348   1.803  51.649  1.00  0.00    -0.268 OA
HETATM   20  H4  UNL     1      19.818   0.490  49.123  1.00  0.00     0.169 HD
BRANCH  18  21
HETATM   21  C2  UNL     1      17.322   0.998  49.851  1.00  0.00     0.064 C 
HETATM   22  C1  UNL     1      17.057  -0.282  50.096  1.00  0.00     0.017 C 
ENDBRANCH  18  21
ENDBRANCH  16  17
ENDBRANCH   7   9
ENDBRANCH   1   7
BRANCH   6  23
HETATM   23  N5  UNL     1      25.928   2.260  50.445  1.00  0.00    -0.339 N 
HETATM   24  H12 UNL     1      25.283   1.619  49.921  1.00  0.00     0.167 HD
BRANCH  23  25
HETATM   25  C15 UNL     1      26.691   1.736  51.526  1.00  0.00     0.035 A 
HETATM   26  C16 UNL     1      27.379   2.526  52.402  1.00  0.00     0.032 A 
HETATM   27  C17 UNL     1      28.137   2.112  53.477  1.00  0.00     0.046 A 
HETATM   28  C18 UNL     1      28.184   0.724  53.656  1.00  0.00     0.138 A 
HETATM   29  F1  UNL     1      28.935   0.326  54.720  1.00  0.00    -0.204 F 
HETATM   30  C19 UNL     1      27.496  -0.127  52.785  1.00  0.00     0.074 A 
HETATM   31 CL1  UNL     1      27.613  -1.836  53.089  1.00  0.00    -0.081 Cl
HETATM   32  C20 UNL     1      26.762   0.380  51.735  1.00  0.00     0.056 A 
ENDBRANCH  23  25
ENDBRANCH   6  23
TORSDOF 6
ENDMDL
MODEL 8
REMARK VINA RESULT:      -8.0      8.170     10.740
REMARK  6 active torsions:
REMARK  status: ('A' for Active; 'I' for Inactive)
REMARK    1  A    between atoms: C2_2  and  C3_3 
REMARK       I    between atoms: C3_3  and  N1_5 
REMARK    2  A    between atoms: N1_5  and  C4_6 
REMARK    3  A    between atoms: C10_12  and  N2_13 
REMARK    4  A    between atoms: N2_13  and  C11_14 
REMARK    5  A    between atoms: C14_19  and  N5_20 
REMARK    6  A    between atoms: N5_20  and  C15_21 
ROOT
HETATM    1  C11 UNL     1      32.957   6.654  43.450  1.00  0.00     0.094 A 
HETATM    2  C12 UNL     1      32.425   6.643  42.196  1.00  0.00     0.151 A 
HETATM    3  N3  UNL     1      32.863   5.677  41.376  1.00  0.00    -0.252 NA
HETATM    4  C13 UNL     1      33.773   4.774  41.771  1.00  0.00     0.235 A 
HETATM    5  N4  UNL     1      34.326   4.759  43.024  1.00  0.00    -0.222 NA
HETATM    6  C14 UNL     1      33.913   5.730  43.912  1.00  0.00     0.157 A 
ENDROOT
BRANCH   1   7
HETATM    7  N2  UNL     1      32.832   7.431  44.643  1.00  0.00    -0.355 N 
HETATM    8  H9  UNL     1      33.883   7.627  44.668  1.00  0.00     0.162 HD
BRANCH   7   9
HETATM    9  C10 UNL     1      32.873   8.225  45.807  1.00  0.00     0.265 A 
HETATM   10  C8  UNL     1      31.807   7.829  46.817  1.00  0.00     0.026 A 
HETATM   11  C7  UNL     1      32.813   7.554  47.689  1.00  0.00     0.082 A 
HETATM   12  C9  UNL     1      30.458   7.679  47.104  1.00  0.00     0.044 A 
HETATM   13  C6  UNL     1      32.502   7.087  48.970  1.00  0.00     0.040 A 
HETATM   14  O2  UNL     1      33.803   7.901  46.812  1.00  0.00    -0.321 OA
HETATM   15  C5  UNL     1      31.160   6.925  49.294  1.00  0.00     0.032 A 
HETATM   16  C4  UNL     1      30.159   7.217  48.372  1.00  0.00     0.035 A 
BRANCH  16  17
HETATM   17  N1  UNL     1      28.789   7.042  48.734  1.00  0.00    -0.324 N 
HETATM   18  C3  UNL     1      28.253   5.751  48.513  1.00  0.00     0.244 C 
HETATM   19  O1  UNL     1      28.913   4.789  48.027  1.00  0.00    -0.268 OA
HETATM   20  H4  UNL     1      28.028   7.658  49.146  1.00  0.00     0.169 HD
BRANCH  18  21
HETATM   21  C2  UNL     1      26.889   5.293  48.789  1.00  0.00     0.064 C 
HETATM   22  C1  UNL     1      27.038   4.063  49.272  1.00  0.00     0.017 C 
ENDBRANCH  18  21
ENDBRANCH  16  17
ENDBRANCH   7   9
ENDBRANCH   1   7
BRANCH   6  23
HETATM   23  N5  UNL     1      34.642   5.475  45.096  1.00  0.00    -0.339 N 
HETATM   24  H12 UNL     1      35.502   6.029  45.331  1.00  0.00     0.167 HD
BRANCH  23  25
HETATM   25  C15 UNL     1      34.216   4.453  45.990  1.00  0.00     0.035 A 
HETATM   26  C16 UNL     1      34.955   4.051  47.066  1.00  0.00     0.032 A 
HETATM   27  C17 UNL     1      34.624   3.078  47.986  1.00  0.00     0.046 A 
HETATM   28  C18 UNL     1      33.389   2.459  47.758  1.00  0.00     0.138 A 
HETATM   29  F1  UNL     1      33.072   1.500  48.672  1.00  0.00    -0.204 F 
HETATM   30  C19 UNL     1      32.596   2.836  46.670  1.00  0.00     0.074 A 
HETATM   31 CL1  UNL     1      31.079   2.009  46.470  1.00  0.00    -0.081 Cl
HETATM   32  C20 UNL     1      33.011   3.820  45.801  1.00  0.00     0.056 A 
ENDBRANCH  23  25
ENDBRANCH   6  23
TORSDOF 6
ENDMDL
MODEL 9
REMARK VINA RESULT:      -7.9      4.330      8.154
REMARK  6 active torsions:
REMARK  status: ('A' for Active; 'I' for Inactive)
REMARK    1  A    between atoms: C2_2  and  C3_3 
REMARK       I    between atoms: C3_3  and  N1_5 
REMARK    2  A    between atoms: N1_5  and  C4_6 
REMARK    3  A    between atoms: C10_12  and  N2_13 
REMARK    4  A    between atoms: N2_13  and  C11_14 
REMARK    5  A    between atoms: C14_19  and  N5_20 
REMARK    6  A    between atoms: N5_20  and  C15_21 
ROOT
HETATM    1  C11 UNL     1      23.792   3.382  49.105  1.00  0.00     0.094 A 
HETATM    2  C12 UNL     1      22.870   2.650  48.419  1.00  0.00     0.151 A 
HETATM    3  N3  UNL     1      22.076   3.333  47.583  1.00  0.00    -0.252 NA
HETATM    4  C13 UNL     1      22.185   4.662  47.431  1.00  0.00     0.235 A 
HETATM    5  N4  UNL     1      23.102   5.424  48.107  1.00  0.00    -0.222 NA
HETATM    6  C14 UNL     1      23.947   4.775  48.982  1.00  0.00     0.157 A 
ENDROOT
BRANCH   1   7
HETATM    7  N2  UNL     1      24.823   3.147  50.067  1.00  0.00    -0.355 N 
HETATM    8  H9  UNL     1      24.167   3.373  50.880  1.00  0.00     0.162 HD
BRANCH   7   9
HETATM    9  C10 UNL     1      25.725   2.947  51.131  1.00  0.00     0.265 A 
HETATM   10  C8  UNL     1      25.321   1.783  52.022  1.00  0.00     0.026 A 
HETATM   11  C7  UNL     1      26.505   1.196  51.697  1.00  0.00     0.082 A 
HETATM   12  C9  UNL     1      24.376   1.224  52.870  1.00  0.00     0.044 A 
HETATM   13  C6  UNL     1      26.820  -0.056  52.236  1.00  0.00     0.040 A 
HETATM   14  O2  UNL     1      26.906   2.222  50.887  1.00  0.00    -0.321 OA
HETATM   15  C5  UNL     1      25.896  -0.647  53.090  1.00  0.00     0.032 A 
HETATM   16  C4  UNL     1      24.696  -0.013  53.397  1.00  0.00     0.035 A 
BRANCH  16  17
HETATM   17  N1  UNL     1      23.767  -0.644  54.278  1.00  0.00    -0.324 N 
HETATM   18  C3  UNL     1      22.517  -0.991  53.712  1.00  0.00     0.244 C 
HETATM   19  O1  UNL     1      22.205  -0.771  52.508  1.00  0.00    -0.268 OA
HETATM   20  H4  UNL     1      23.768  -0.937  55.300  1.00  0.00     0.169 HD
BRANCH  18  21
HETATM   21  C2  UNL     1      21.386  -1.643  54.379  1.00  0.00     0.064 C 
HETATM   22  C1  UNL     1      20.309  -1.039  53.883  1.00  0.00     0.017 C 
ENDBRANCH  18  21
ENDBRANCH  16  17
ENDBRANCH   7   9
ENDBRANCH   1   7
BRANCH   6  23
HETATM   23  N5  UNL     1      24.761   5.795  49.527  1.00  0.00    -0.339 N 
HETATM   24  H12 UNL     1      24.559   6.200  50.474  1.00  0.00     0.167 HD
BRANCH  23  25
HETATM   25  C15 UNL     1      25.872   6.291  48.789  1.00  0.00     0.035 A 
HETATM   26  C16 UNL     1      25.823   7.443  48.057  1.00  0.00     0.032 A 
HETATM   27  C17 UNL     1      26.844   8.004  47.318  1.00  0.00     0.046 A 
HETATM   28  C18 UNL     1      28.044   7.283  47.345  1.00  0.00     0.138 A 
HETATM   29  F1  UNL     1      29.045   7.844  46.612  1.00  0.00    -0.204 F 
HETATM   30  C19 UNL     1      28.144   6.097  48.080  1.00  0.00     0.074 A 
HETATM   31 CL1  UNL     1      29.676   5.274  48.053  1.00  0.00    -0.081 Cl
HETATM   32  C20 UNL     1      27.067   5.613  48.790  1.00  0.00     0.056 A 
ENDBRANCH  23  25
ENDBRANCH   6  23
TORSDOF 6
ENDMDL
