MODEL 1
REMARK VINA RESULT:      -9.5      0.000      0.000
REMARK  6 active torsions:
REMARK  status: ('A' for Active; 'I' for Inactive)
REMARK    1  A    between atoms: O1_2  and  C2_3 
REMARK    2  A    between atoms: C7_9  and  N2_11 
REMARK    3  A    between atoms: N2_11  and  C8_12 
REMARK    4  A    between atoms: C12_16  and  N3_17 
REMARK    5  A    between atoms: N3_17  and  C13_18 
REMARK    6  A    between atoms: C16_22  and  C17_23 
ROOT
HETATM    1  C8  UNL     1      23.236  -0.348  53.434  1.00  0.00     0.035 A 
HETATM    2  C9  UNL     1      22.403  -0.594  54.485  1.00  0.00     0.029 A 
HETATM    3  C10 UNL     1      21.167   0.029  54.579  1.00  0.00     0.004 A 
HETATM    4  C11 UNL     1      20.830   0.910  53.560  1.00  0.00     0.030 A 
HETATM    5  C12 UNL     1      21.666   1.164  52.497  1.00  0.00     0.051 A 
HETATM    6  C22 UNL     1      22.903   0.521  52.427  1.00  0.00     0.059 A 
ENDROOT
BRANCH   5   7
HETATM    7  N3  UNL     1      21.252   2.107  51.520  1.00  0.00    -0.188 N 
HETATM    8  H11 UNL     1      20.418   1.885  50.906  1.00  0.00     0.184 HD
BRANCH   7   9
HETATM    9  C13 UNL     1      21.916   3.353  51.300  1.00  0.00     0.727 A 
HETATM   10  N4  UNL     1      21.283   4.466  51.654  1.00  0.00    -0.075 NA
HETATM   11  C14 UNL     1      21.814   5.672  51.464  1.00  0.00     0.139 A 
HETATM   12  C15 UNL     1      23.050   5.780  50.887  1.00  0.00     0.053 A 
HETATM   13  C16 UNL     1      23.694   4.618  50.525  1.00  0.00     0.089 A 
HETATM   14  N6  UNL     1      23.158   3.384  50.719  1.00  0.00    -0.062 NA
BRANCH  13  15
HETATM   15  C17 UNL     1      24.984   4.744  49.881  1.00  0.00     0.011 A 
HETATM   16  C18 UNL     1      25.562   5.744  49.221  1.00  0.00     0.017 A 
HETATM   17  C19 UNL     1      26.732   6.029  48.580  1.00  0.00     0.020 A 
HETATM   18  C20 UNL     1      27.521   4.886  48.683  1.00  0.00     0.116 A 
HETATM   19  N5  UNL     1      27.151   3.726  49.313  1.00  0.00    -0.272 NA
HETATM   20  C21 UNL     1      25.909   3.689  49.886  1.00  0.00     0.130 A 
ENDBRANCH  13  15
ENDBRANCH   7   9
ENDBRANCH   5   7
BRANCH   1  21
HETATM   21  N2  UNL     1      24.501  -0.881  53.155  1.00  0.00    -0.337 N 
HETATM   22  H7  UNL     1      24.818  -1.731  52.678  1.00  0.00     0.168 HD
BRANCH  21  23
HETATM   23  C7  UNL     1      25.638  -0.196  53.547  1.00  0.00     0.169 A 
HETATM   24  C6  UNL     1      26.997  -0.057  53.718  1.00  0.00     0.215 A 
HETATM   25  C2  UNL     1      28.344   0.078  53.887  1.00  0.00     0.096 A 
HETATM   26  C5  UNL     1      27.185  -1.500  53.280  1.00  0.00     0.143 A 
HETATM   27  O2  UNL     1      25.769   0.928  54.062  1.00  0.00    -0.303 OA
HETATM   28  C3  UNL     1      29.523  -0.578  53.791  1.00  0.00     0.055 A 
HETATM   29  C4  UNL     1      29.500  -1.881  53.381  1.00  0.00     0.118 A 
HETATM   30  N1  UNL     1      28.264  -2.361  53.112  1.00  0.00    -0.273 NA
BRANCH  25  31
HETATM   31  O1  UNL     1      28.021   1.425  54.281  1.00  0.00    -0.356 OA
HETATM   32  C1  UNL     1      28.687   2.481  53.688  1.00  0.00     0.209 C 
ENDBRANCH  25  31
ENDBRANCH  21  23
ENDBRANCH   1  21
TORSDOF 6
ENDMDL
MODEL 2
REMARK VINA RESULT:      -9.5      1.760      2.454
REMARK  6 active torsions:
REMARK  status: ('A' for Active; 'I' for Inactive)
REMARK    1  A    between atoms: O1_2  and  C2_3 
REMARK    2  A    between atoms: C7_9  and  N2_11 
REMARK    3  A    between atoms: N2_11  and  C8_12 
REMARK    4  A    between atoms: C12_16  and  N3_17 
REMARK    5  A    between atoms: N3_17  and  C13_18 
REMARK    6  A    between atoms: C16_22  and  C17_23 
ROOT
HETATM    1  C8  UNL     1      23.273   0.618  52.777  1.00  0.00     0.035 A 
HETATM    2  C9  UNL     1      22.182  -0.197  52.702  1.00  0.00     0.029 A 
HETATM    3  C10 UNL     1      21.333  -0.155  51.606  1.00  0.00     0.004 A 
HETATM    4  C11 UNL     1      21.648   0.753  50.603  1.00  0.00     0.030 A 
HETATM    5  C12 UNL     1      22.746   1.579  50.674  1.00  0.00     0.051 A 
HETATM    6  C22 UNL     1      23.584   1.514  51.788  1.00  0.00     0.059 A 
ENDROOT
BRANCH   5   7
HETATM    7  N3  UNL     1      22.969   2.501  49.617  1.00  0.00    -0.188 N 
HETATM    8  H11 UNL     1      22.681   2.240  48.632  1.00  0.00     0.184 HD
BRANCH   7   9
HETATM    9  C13 UNL     1      23.585   3.777  49.806  1.00  0.00     0.727 A 
HETATM   10  N4  UNL     1      22.912   4.696  50.489  1.00  0.00    -0.075 NA
HETATM   11  C14 UNL     1      23.396   5.920  50.693  1.00  0.00     0.139 A 
HETATM   12  C15 UNL     1      24.623   6.251  50.186  1.00  0.00     0.053 A 
HETATM   13  C16 UNL     1      25.309   5.288  49.480  1.00  0.00     0.089 A 
HETATM   14  N6  UNL     1      24.820   4.037  49.271  1.00  0.00    -0.062 NA
BRANCH  13  15
HETATM   15  C17 UNL     1      26.589   5.659  48.916  1.00  0.00     0.011 A 
HETATM   16  C18 UNL     1      27.066   6.815  48.463  1.00  0.00     0.017 A 
HETATM   17  C19 UNL     1      28.210   7.329  47.926  1.00  0.00     0.020 A 
HETATM   18  C20 UNL     1      29.117   6.274  47.856  1.00  0.00     0.116 A 
HETATM   19  N5  UNL     1      28.864   4.988  48.260  1.00  0.00    -0.272 NA
HETATM   20  C21 UNL     1      27.623   4.721  48.771  1.00  0.00     0.130 A 
ENDBRANCH  13  15
ENDBRANCH   7   9
ENDBRANCH   5   7
BRANCH   1  21
HETATM   21  N2  UNL     1      24.246   0.714  53.781  1.00  0.00    -0.337 N 
HETATM   22  H7  UNL     1      24.282   1.197  54.684  1.00  0.00     0.168 HD
BRANCH  21  23
HETATM   23  C7  UNL     1      25.449   0.045  53.639  1.00  0.00     0.169 A 
HETATM   24  C6  UNL     1      26.824  -0.039  53.658  1.00  0.00     0.215 A 
HETATM   25  C2  UNL     1      28.185  -0.121  53.676  1.00  0.00     0.096 A 
HETATM   26  C5  UNL     1      26.898   1.460  53.891  1.00  0.00     0.143 A 
HETATM   27  O2  UNL     1      25.688  -1.133  53.320  1.00  0.00    -0.303 OA
HETATM   28  C3  UNL     1      29.316   0.609  53.814  1.00  0.00     0.055 A 
HETATM   29  C4  UNL     1      29.190   1.954  54.015  1.00  0.00     0.118 A 
HETATM   30  N1  UNL     1      27.913   2.397  54.056  1.00  0.00    -0.273 NA
BRANCH  25  31
HETATM   31  O1  UNL     1      27.968  -1.527  53.454  1.00  0.00    -0.356 OA
HETATM   32  C1  UNL     1      29.050  -2.343  53.183  1.00  0.00     0.209 C 
ENDBRANCH  25  31
ENDBRANCH  21  23
ENDBRANCH   1  21
TORSDOF 6
ENDMDL
MODEL 3
REMARK VINA RESULT:      -9.1      3.617      6.688
REMARK  6 active torsions:
REMARK  status: ('A' for Active; 'I' for Inactive)
REMARK    1  A    between atoms: O1_2  and  C2_3 
REMARK    2  A    between atoms: C7_9  and  N2_11 
REMARK    3  A    between atoms: N2_11  and  C8_12 
REMARK    4  A    between atoms: C12_16  and  N3_17 
REMARK    5  A    between atoms: N3_17  and  C13_18 
REMARK    6  A    between atoms: C16_22  and  C17_23 
ROOT
HETATM    1  C8  UNL     1      26.133   3.754  50.107  1.00  0.00     0.035 A 
HETATM    2  C9  UNL     1      25.111   4.523  50.580  1.00  0.00     0.029 A 
HETATM    3  C10 UNL     1      24.952   5.836  50.164  1.00  0.00     0.004 A 
HETATM    4  C11 UNL     1      25.883   6.323  49.255  1.00  0.00     0.030 A 
HETATM    5  C12 UNL     1      26.918   5.553  48.776  1.00  0.00     0.051 A 
HETATM    6  C22 UNL     1      27.052   4.234  49.210  1.00  0.00     0.059 A 
ENDROOT
BRANCH   5   7
HETATM    7  N3  UNL     1      27.842   6.147  47.876  1.00  0.00    -0.188 N 
HETATM    8  H11 UNL     1      27.533   6.371  46.888  1.00  0.00     0.184 HD
BRANCH   7   9
HETATM    9  C13 UNL     1      29.194   6.450  48.226  1.00  0.00     0.727 A 
HETATM   10  N4  UNL     1      29.457   7.664  48.696  1.00  0.00    -0.075 NA
HETATM   11  C14 UNL     1      30.691   8.043  49.024  1.00  0.00     0.139 A 
HETATM   12  C15 UNL     1      31.727   7.162  48.875  1.00  0.00     0.053 A 
HETATM   13  C16 UNL     1      31.440   5.908  48.387  1.00  0.00     0.089 A 
HETATM   14  N6  UNL     1      30.182   5.515  48.052  1.00  0.00    -0.062 NA
BRANCH  13  15
HETATM   15  C17 UNL     1      32.548   4.996  48.198  1.00  0.00     0.011 A 
HETATM   16  C18 UNL     1      32.609   3.740  47.763  1.00  0.00     0.017 A 
HETATM   17  C19 UNL     1      33.535   2.768  47.521  1.00  0.00     0.020 A 
HETATM   18  C20 UNL     1      34.773   3.317  47.846  1.00  0.00     0.116 A 
HETATM   19  N5  UNL     1      34.972   4.590  48.316  1.00  0.00    -0.272 NA
HETATM   20  C21 UNL     1      33.868   5.382  48.476  1.00  0.00     0.130 A 
ENDBRANCH  13  15
ENDBRANCH   7   9
ENDBRANCH   5   7
BRANCH   1  21
HETATM   21  N2  UNL     1      26.450   2.419  50.391  1.00  0.00    -0.337 N 
HETATM   22  H7  UNL     1      26.466   1.563  49.827  1.00  0.00     0.168 HD
BRANCH  21  23
HETATM   23  C7  UNL     1      26.854   2.065  51.666  1.00  0.00     0.169 A 
HETATM   24  C6  UNL     1      26.739   1.366  52.847  1.00  0.00     0.215 A 
HETATM   25  C2  UNL     1      26.622   0.674  54.017  1.00  0.00     0.096 A 
HETATM   26  C5  UNL     1      25.402   0.819  52.377  1.00  0.00     0.143 A 
HETATM   27  O2  UNL     1      27.818   2.456  52.349  1.00  0.00    -0.303 OA
HETATM   28  C3  UNL     1      25.821  -0.170  54.706  1.00  0.00     0.055 A 
HETATM   29  C4  UNL     1      24.646  -0.557  54.123  1.00  0.00     0.118 A 
HETATM   30  N1  UNL     1      24.432  -0.032  52.895  1.00  0.00    -0.273 NA
BRANCH  25  31
HETATM   31  O1  UNL     1      27.897   1.264  54.335  1.00  0.00    -0.356 OA
HETATM   32  C1  UNL     1      28.954   0.445  54.682  1.00  0.00     0.209 C 
ENDBRANCH  25  31
ENDBRANCH  21  23
ENDBRANCH   1  21
TORSDOF 6
ENDMDL
MODEL 4
REMARK VINA RESULT:      -9.0      4.241      7.943
REMARK  6 active torsions:
REMARK  status: ('A' for Active; 'I' for Inactive)
REMARK    1  A    between atoms: O1_2  and  C2_3 
REMARK    2  A    between atoms: C7_9  and  N2_11 
REMARK    3  A    between atoms: N2_11  and  C8_12 
REMARK    4  A    between atoms: C12_16  and  N3_17 
REMARK    5  A    between atoms: N3_17  and  C13_18 
REMARK    6  A    between atoms: C16_22  and  C17_23 
ROOT
HETATM    1  C8  UNL     1      28.611   5.712  48.279  1.00  0.00     0.035 A 
HETATM    2  C9  UNL     1      28.298   7.035  48.396  1.00  0.00     0.029 A 
HETATM    3  C10 UNL     1      27.058   7.437  48.868  1.00  0.00     0.004 A 
HETATM    4  C11 UNL     1      26.159   6.432  49.206  1.00  0.00     0.030 A 
HETATM    5  C12 UNL     1      26.469   5.096  49.088  1.00  0.00     0.051 A 
HETATM    6  C22 UNL     1      27.726   4.721  48.613  1.00  0.00     0.059 A 
ENDROOT
BRANCH   5   7
HETATM    7  N3  UNL     1      25.475   4.139  49.424  1.00  0.00    -0.188 N 
HETATM    8  H11 UNL     1      24.733   3.890  48.710  1.00  0.00     0.184 HD
BRANCH   7   9
HETATM    9  C13 UNL     1      25.405   3.495  50.697  1.00  0.00     0.727 A 
HETATM   10  N4  UNL     1      24.354   3.753  51.468  1.00  0.00    -0.075 NA
HETATM   11  C14 UNL     1      24.218   3.218  52.680  1.00  0.00     0.139 A 
HETATM   12  C15 UNL     1      25.185   2.375  53.156  1.00  0.00     0.053 A 
HETATM   13  C16 UNL     1      26.268   2.116  52.346  1.00  0.00     0.089 A 
HETATM   14  N6  UNL     1      26.412   2.658  51.108  1.00  0.00    -0.062 NA
BRANCH  13  15
HETATM   15  C17 UNL     1      27.304   1.254  52.873  1.00  0.00     0.011 A 
HETATM   16  C18 UNL     1      27.480  -0.064  52.829  1.00  0.00     0.017 A 
HETATM   17  C19 UNL     1      28.370  -1.009  53.248  1.00  0.00     0.020 A 
HETATM   18  C20 UNL     1      29.380  -0.324  53.919  1.00  0.00     0.116 A 
HETATM   19  N5  UNL     1      29.426   1.035  54.099  1.00  0.00    -0.272 NA
HETATM   20  C21 UNL     1      28.400   1.774  53.578  1.00  0.00     0.130 A 
ENDBRANCH  13  15
ENDBRANCH   7   9
ENDBRANCH   5   7
BRANCH   1  21
HETATM   21  N2  UNL     1      29.800   5.113  47.843  1.00  0.00    -0.337 N 
HETATM   22  H7  UNL     1      30.005   4.306  47.245  1.00  0.00     0.168 HD
BRANCH  21  23
HETATM   23  C7  UNL     1      31.019   5.645  48.226  1.00  0.00     0.169 A 
HETATM   24  C6  UNL     1      32.390   5.623  48.351  1.00  0.00     0.215 A 
HETATM   25  C2  UNL     1      33.749   5.599  48.476  1.00  0.00     0.096 A 
HETATM   26  C5  UNL     1      32.400   4.195  47.833  1.00  0.00     0.143 A 
HETATM   27  O2  UNL     1      31.293   6.718  48.793  1.00  0.00    -0.303 OA
HETATM   28  C3  UNL     1      34.843   4.822  48.301  1.00  0.00     0.055 A 
HETATM   29  C4  UNL     1      34.659   3.555  47.825  1.00  0.00     0.118 A 
HETATM   30  N1  UNL     1      33.370   3.230  47.580  1.00  0.00    -0.273 NA
BRANCH  25  31
HETATM   31  O1  UNL     1      33.593   6.949  48.951  1.00  0.00    -0.356 OA
HETATM   32  C1  UNL     1      34.449   7.931  48.490  1.00  0.00     0.209 C 
ENDBRANCH  25  31
ENDBRANCH  21  23
ENDBRANCH   1  21
TORSDOF 6
ENDMDL
MODEL 5
REMARK VINA RESULT:      -8.8      2.178      3.218
REMARK  6 active torsions:
REMARK  status: ('A' for Active; 'I' for Inactive)
REMARK    1  A    between atoms: O1_2  and  C2_3 
REMARK    2  A    between atoms: C7_9  and  N2_11 
REMARK    3  A    between atoms: N2_11  and  C8_12 
REMARK    4  A    between atoms: C12_16  and  N3_17 
REMARK    5  A    between atoms: N3_17  and  C13_18 
REMARK    6  A    between atoms: C16_22  and  C17_23 
ROOT
HETATM    1  C8  UNL     1      23.643   1.634  52.435  1.00  0.00     0.035 A 
HETATM    2  C9  UNL     1      22.962   1.009  51.433  1.00  0.00     0.029 A 
HETATM    3  C10 UNL     1      22.454   1.725  50.359  1.00  0.00     0.004 A 
HETATM    4  C11 UNL     1      22.668   3.097  50.362  1.00  0.00     0.030 A 
HETATM    5  C12 UNL     1      23.352   3.734  51.372  1.00  0.00     0.051 A 
HETATM    6  C22 UNL     1      23.855   2.988  52.438  1.00  0.00     0.059 A 
ENDROOT
BRANCH   5   7
HETATM    7  N3  UNL     1      23.492   5.146  51.309  1.00  0.00    -0.188 N 
HETATM    8  H11 UNL     1      23.144   5.738  52.115  1.00  0.00     0.184 HD
BRANCH   7   9
HETATM    9  C13 UNL     1      24.071   5.828  50.194  1.00  0.00     0.727 A 
HETATM   10  N4  UNL     1      23.262   6.527  49.405  1.00  0.00    -0.075 NA
HETATM   11  C14 UNL     1      23.709   7.173  48.330  1.00  0.00     0.139 A 
HETATM   12  C15 UNL     1      25.040   7.121  48.018  1.00  0.00     0.053 A 
HETATM   13  C16 UNL     1      25.866   6.393  48.844  1.00  0.00     0.089 A 
HETATM   14  N6  UNL     1      25.416   5.733  49.944  1.00  0.00    -0.062 NA
BRANCH  13  15
HETATM   15  C17 UNL     1      27.266   6.313  48.486  1.00  0.00     0.011 A 
HETATM   16  C18 UNL     1      28.143   7.232  48.092  1.00  0.00     0.017 A 
HETATM   17  C19 UNL     1      29.456   7.331  47.735  1.00  0.00     0.020 A 
HETATM   18  C20 UNL     1      29.985   6.046  47.832  1.00  0.00     0.116 A 
HETATM   19  N5  UNL     1      29.284   4.931  48.215  1.00  0.00    -0.272 NA
HETATM   20  C21 UNL     1      27.962   5.095  48.526  1.00  0.00     0.130 A 
ENDBRANCH  13  15
ENDBRANCH   7   9
ENDBRANCH   5   7
BRANCH   1  21
HETATM   21  N2  UNL     1      24.238   1.092  53.582  1.00  0.00    -0.337 N 
HETATM   22  H7  UNL     1      24.020   1.145  54.582  1.00  0.00     0.168 HD
BRANCH  21  23
HETATM   23  C7  UNL     1      25.355   0.284  53.460  1.00  0.00     0.169 A 
HETATM   24  C6  UNL     1      26.705   0.025  53.540  1.00  0.00     0.215 A 
HETATM   25  C2  UNL     1      28.043  -0.229  53.620  1.00  0.00     0.096 A 
HETATM   26  C5  UNL     1      26.952   1.489  53.863  1.00  0.00     0.143 A 
HETATM   27  O2  UNL     1      25.464  -0.897  53.086  1.00  0.00    -0.303 OA
HETATM   28  C3  UNL     1      29.247   0.343  53.854  1.00  0.00     0.055 A 
HETATM   29  C4  UNL     1      29.278   1.682  54.126  1.00  0.00     0.118 A 
HETATM   30  N1  UNL     1      28.065   2.280  54.130  1.00  0.00    -0.273 NA
BRANCH  25  31
HETATM   31  O1  UNL     1      27.666  -1.584  53.308  1.00  0.00    -0.356 OA
HETATM   32  C1  UNL     1      28.652  -2.522  53.073  1.00  0.00     0.209 C 
ENDBRANCH  25  31
ENDBRANCH  21  23
ENDBRANCH   1  21
TORSDOF 6
ENDMDL
MODEL 6
REMARK VINA RESULT:      -8.7      3.747      7.938
REMARK  6 active torsions:
REMARK  status: ('A' for Active; 'I' for Inactive)
REMARK    1  A    between atoms: O1_2  and  C2_3 
REMARK    2  A    between atoms: C7_9  and  N2_11 
REMARK    3  A    between atoms: N2_11  and  C8_12 
REMARK    4  A    between atoms: C12_16  and  N3_17 
REMARK    5  A    between atoms: N3_17  and  C13_18 
REMARK    6  A    between atoms: C16_22  and  C17_23 
ROOT
HETATM    1  C8  UNL     1      27.605   6.908  48.513  1.00  0.00     0.035 A 
HETATM    2  C9  UNL     1      27.151   7.938  49.284  1.00  0.00     0.029 A 
HETATM    3  C10 UNL     1      26.090   7.762  50.159  1.00  0.00     0.004 A 
HETATM    4  C11 UNL     1      25.517   6.497  50.204  1.00  0.00     0.030 A 
HETATM    5  C12 UNL     1      25.969   5.455  49.428  1.00  0.00     0.051 A 
HETATM    6  C22 UNL     1      27.040   5.660  48.558  1.00  0.00     0.059 A 
ENDROOT
BRANCH   5   7
HETATM    7  N3  UNL     1      25.299   4.206  49.515  1.00  0.00    -0.188 N 
HETATM    8  H11 UNL     1      24.931   3.752  48.632  1.00  0.00     0.184 HD
BRANCH   7   9
HETATM    9  C13 UNL     1      25.073   3.521  50.749  1.00  0.00     0.727 A 
HETATM   10  N4  UNL     1      23.867   3.611  51.298  1.00  0.00    -0.075 NA
HETATM   11  C14 UNL     1      23.573   3.027  52.458  1.00  0.00     0.139 A 
HETATM   12  C15 UNL     1      24.537   2.311  53.114  1.00  0.00     0.053 A 
HETATM   13  C16 UNL     1      25.783   2.227  52.533  1.00  0.00     0.089 A 
HETATM   14  N6  UNL     1      26.088   2.819  51.348  1.00  0.00    -0.062 NA
BRANCH  13  15
HETATM   15  C17 UNL     1      26.806   1.499  53.253  1.00  0.00     0.011 A 
HETATM   16  C18 UNL     1      28.135   1.545  53.210  1.00  0.00     0.017 A 
HETATM   17  C19 UNL     1      29.215   0.959  53.803  1.00  0.00     0.020 A 
HETATM   18  C20 UNL     1      28.708   0.045  54.723  1.00  0.00     0.116 A 
HETATM   19  N5  UNL     1      27.376  -0.187  54.953  1.00  0.00    -0.272 NA
HETATM   20  C21 UNL     1      26.475   0.537  54.220  1.00  0.00     0.130 A 
ENDBRANCH  13  15
ENDBRANCH   7   9
ENDBRANCH   5   7
BRANCH   1  21
HETATM   21  N2  UNL     1      28.660   6.883  47.591  1.00  0.00    -0.337 N 
HETATM   22  H7  UNL     1      28.824   7.353  46.695  1.00  0.00     0.168 HD
BRANCH  21  23
HETATM   23  C7  UNL     1      29.776   6.105  47.845  1.00  0.00     0.169 A 
HETATM   24  C6  UNL     1      31.101   5.917  48.169  1.00  0.00     0.215 A 
HETATM   25  C2  UNL     1      32.414   5.732  48.490  1.00  0.00     0.096 A 
HETATM   26  C5  UNL     1      31.315   7.420  48.104  1.00  0.00     0.143 A 
HETATM   27  O2  UNL     1      29.923   4.870  47.829  1.00  0.00    -0.303 OA
HETATM   28  C3  UNL     1      33.580   6.381  48.712  1.00  0.00     0.055 A 
HETATM   29  C4  UNL     1      33.586   7.743  48.606  1.00  0.00     0.118 A 
HETATM   30  N1  UNL     1      32.389   8.285  48.285  1.00  0.00    -0.273 NA
BRANCH  25  31
HETATM   31  O1  UNL     1      32.069   4.334  48.518  1.00  0.00    -0.356 OA
HETATM   32  C1  UNL     1      32.876   3.427  47.857  1.00  0.00     0.209 C 
ENDBRANCH  25  31
ENDBRANCH  21  23
ENDBRANCH   1  21
TORSDOF 6
ENDMDL
MODEL 7
REMARK VINA RESULT:      -8.7      2.220      3.116
REMARK  6 active torsions:
REMARK  status: ('A' for Active; 'I' for Inactive)
REMARK    1  A    between atoms: O1_2  and  C2_3 
REMARK    2  A    between atoms: C7_9  and  N2_11 
REMARK    3  A    between atoms: N2_11  and  C8_12 
REMARK    4  A    between atoms: C12_16  and  N3_17 
REMARK    5  A    between atoms: N3_17  and  C13_18 
REMARK    6  A    between atoms: C16_22  and  C17_23 
ROOT
HETATM    1  C8  UNL     1      23.438   0.200  53.287  1.00  0.00     0.035 A 
HETATM    2  C9  UNL     1      23.277  -0.735  54.267  1.00  0.00     0.029 A 
HETATM    3  C10 UNL     1      22.049  -0.915  54.887  1.00  0.00     0.004 A 
HETATM    4  C11 UNL     1      21.008  -0.098  54.466  1.00  0.00     0.030 A 
HETATM    5  C12 UNL     1      21.166   0.848  53.480  1.00  0.00     0.051 A 
HETATM    6  C22 UNL     1      22.411   1.005  52.871  1.00  0.00     0.059 A 
ENDROOT
BRANCH   5   7
HETATM    7  N3  UNL     1      20.053   1.662  53.139  1.00  0.00    -0.188 N 
HETATM    8  H11 UNL     1      19.144   1.547  53.671  1.00  0.00     0.184 HD
BRANCH   7   9
HETATM    9  C13 UNL     1      20.083   2.633  52.092  1.00  0.00     0.727 A 
HETATM   10  N4  UNL     1      19.225   2.491  51.087  1.00  0.00    -0.075 NA
HETATM   11  C14 UNL     1      19.198   3.332  50.055  1.00  0.00     0.139 A 
HETATM   12  C15 UNL     1      20.077   4.380  50.019  1.00  0.00     0.053 A 
HETATM   13  C16 UNL     1      20.960   4.515  51.067  1.00  0.00     0.089 A 
HETATM   14  N6  UNL     1      20.991   3.661  52.123  1.00  0.00    -0.062 NA
BRANCH  13  15
HETATM   15  C17 UNL     1      21.911   5.605  51.001  1.00  0.00     0.011 A 
HETATM   16  C18 UNL     1      23.206   5.681  51.294  1.00  0.00     0.017 A 
HETATM   17  C19 UNL     1      24.223   6.591  51.282  1.00  0.00     0.020 A 
HETATM   18  C20 UNL     1      23.677   7.782  50.811  1.00  0.00     0.116 A 
HETATM   19  N5  UNL     1      22.367   7.958  50.443  1.00  0.00    -0.272 NA
HETATM   20  C21 UNL     1      21.533   6.878  50.548  1.00  0.00     0.130 A 
ENDBRANCH  13  15
ENDBRANCH   7   9
ENDBRANCH   5   7
BRANCH   1  21
HETATM   21  N2  UNL     1      24.580   0.519  52.540  1.00  0.00    -0.337 N 
HETATM   22  H7  UNL     1      24.759   1.172  51.770  1.00  0.00     0.168 HD
BRANCH  21  23
HETATM   23  C7  UNL     1      25.782  -0.106  52.820  1.00  0.00     0.169 A 
HETATM   24  C6  UNL     1      27.080  -0.135  53.279  1.00  0.00     0.215 A 
HETATM   25  C2  UNL     1      28.366  -0.162  53.734  1.00  0.00     0.096 A 
HETATM   26  C5  UNL     1      27.037   1.374  53.453  1.00  0.00     0.143 A 
HETATM   27  O2  UNL     1      26.141  -1.285  52.650  1.00  0.00    -0.303 OA
HETATM   28  C3  UNL     1      29.374   0.617  54.190  1.00  0.00     0.055 A 
HETATM   29  C4  UNL     1      29.155   1.963  54.278  1.00  0.00     0.118 A 
HETATM   30  N1  UNL     1      27.921   2.356  53.888  1.00  0.00    -0.273 NA
BRANCH  25  31
HETATM   31  O1  UNL     1      28.268  -1.583  53.521  1.00  0.00    -0.356 OA
HETATM   32  C1  UNL     1      29.419  -2.312  53.292  1.00  0.00     0.209 C 
ENDBRANCH  25  31
ENDBRANCH  21  23
ENDBRANCH   1  21
TORSDOF 6
ENDMDL
MODEL 8
REMARK VINA RESULT:      -8.5      3.987      7.324
REMARK  6 active torsions:
REMARK  status: ('A' for Active; 'I' for Inactive)
REMARK    1  A    between atoms: O1_2  and  C2_3 
REMARK    2  A    between atoms: C7_9  and  N2_11 
REMARK    3  A    between atoms: N2_11  and  C8_12 
REMARK    4  A    between atoms: C12_16  and  N3_17 
REMARK    5  A    between atoms: N3_17  and  C13_18 
REMARK    6  A    between atoms: C16_22  and  C17_23 
ROOT
HETATM    1  C8  UNL     1      25.970   4.912  49.552  1.00  0.00     0.035 A 
HETATM    2  C9  UNL     1      25.204   5.800  50.248  1.00  0.00     0.029 A 
HETATM    3  C10 UNL     1      25.435   7.165  50.161  1.00  0.00     0.004 A 
HETATM    4  C11 UNL     1      26.480   7.573  49.342  1.00  0.00     0.030 A 
HETATM    5  C12 UNL     1      27.258   6.682  48.639  1.00  0.00     0.051 A 
HETATM    6  C22 UNL     1      27.000   5.315  48.743  1.00  0.00     0.059 A 
ENDROOT
BRANCH   5   7
HETATM    7  N3  UNL     1      28.327   7.189  47.854  1.00  0.00    -0.188 N 
HETATM    8  H11 UNL     1      28.126   7.558  46.882  1.00  0.00     0.184 HD
BRANCH   7   9
HETATM    9  C13 UNL     1      29.684   7.215  48.300  1.00  0.00     0.727 A 
HETATM   10  N4  UNL     1      30.115   8.310  48.916  1.00  0.00    -0.075 NA
HETATM   11  C14 UNL     1      31.370   8.434  49.343  1.00  0.00     0.139 A 
HETATM   12  C15 UNL     1      32.252   7.406  49.146  1.00  0.00     0.053 A 
HETATM   13  C16 UNL     1      31.791   6.277  48.506  1.00  0.00     0.089 A 
HETATM   14  N6  UNL     1      30.511   6.145  48.070  1.00  0.00    -0.062 NA
BRANCH  13  15
HETATM   15  C17 UNL     1      32.741   5.211  48.269  1.00  0.00     0.011 A 
HETATM   16  C18 UNL     1      32.595   3.961  47.839  1.00  0.00     0.017 A 
HETATM   17  C19 UNL     1      33.353   2.863  47.557  1.00  0.00     0.020 A 
HETATM   18  C20 UNL     1      34.673   3.221  47.819  1.00  0.00     0.116 A 
HETATM   19  N5  UNL     1      35.081   4.450  48.271  1.00  0.00    -0.272 NA
HETATM   20  C21 UNL     1      34.116   5.397  48.481  1.00  0.00     0.130 A 
ENDBRANCH  13  15
ENDBRANCH   7   9
ENDBRANCH   5   7
BRANCH   1  21
HETATM   21  N2  UNL     1      25.885   3.514  49.497  1.00  0.00    -0.337 N 
HETATM   22  H7  UNL     1      26.170   2.818  48.801  1.00  0.00     0.168 HD
BRANCH  21  23
HETATM   23  C7  UNL     1      25.332   2.817  50.556  1.00  0.00     0.169 A 
HETATM   24  C6  UNL     1      25.385   2.180  51.776  1.00  0.00     0.215 A 
HETATM   25  C2  UNL     1      25.439   1.550  52.985  1.00  0.00     0.096 A 
HETATM   26  C5  UNL     1      26.894   2.354  51.786  1.00  0.00     0.143 A 
HETATM   27  O2  UNL     1      24.168   2.420  50.745  1.00  0.00    -0.303 OA
HETATM   28  C3  UNL     1      26.282   1.136  53.958  1.00  0.00     0.055 A 
HETATM   29  C4  UNL     1      27.617   1.377  53.794  1.00  0.00     0.118 A 
HETATM   30  N1  UNL     1      27.934   2.020  52.647  1.00  0.00    -0.273 NA
BRANCH  25  31
HETATM   31  O1  UNL     1      24.008   1.454  52.846  1.00  0.00    -0.356 OA
HETATM   32  C1  UNL     1      23.353   0.348  53.351  1.00  0.00     0.209 C 
ENDBRANCH  25  31
ENDBRANCH  21  23
ENDBRANCH   1  21
TORSDOF 6
ENDMDL
MODEL 9
REMARK VINA RESULT:      -8.4      3.298      8.036
REMARK  6 active torsions:
REMARK  status: ('A' for Active; 'I' for Inactive)
REMARK    1  A    between atoms: O1_2  and  C2_3 
REMARK    2  A    between atoms: C7_9  and  N2_11 
REMARK    3  A    between atoms: N2_11  and  C8_12 
REMARK    4  A    between atoms: C12_16  and  N3_17 
REMARK    5  A    between atoms: N3_17  and  C13_18 
REMARK    6  A    between atoms: C16_22  and  C17_23 
ROOT
HETATM    1  C8  UNL     1      26.209   6.354  49.110  1.00  0.00     0.035 A 
HETATM    2  C9  UNL     1      25.760   7.237  50.047  1.00  0.00     0.029 A 
HETATM    3  C10 UNL     1      24.836   6.852  51.007  1.00  0.00     0.004 A 
HETATM    4  C11 UNL     1      24.393   5.536  50.960  1.00  0.00     0.030 A 
HETATM    5  C12 UNL     1      24.841   4.641  50.015  1.00  0.00     0.051 A 
HETATM    6  C22 UNL     1      25.773   5.056  49.063  1.00  0.00     0.059 A 
ENDROOT
BRANCH   5   7
HETATM    7  N3  UNL     1      24.306   3.326  50.022  1.00  0.00    -0.188 N 
HETATM    8  H11 UNL     1      23.703   3.007  49.212  1.00  0.00     0.184 HD
BRANCH   7   9
HETATM    9  C13 UNL     1      24.524   2.396  51.085  1.00  0.00     0.727 A 
HETATM   10  N4  UNL     1      25.772   2.201  51.495  1.00  0.00    -0.075 NA
HETATM   11  C14 UNL     1      26.072   1.336  52.461  1.00  0.00     0.139 A 
HETATM   12  C15 UNL     1      25.071   0.620  53.058  1.00  0.00     0.053 A 
HETATM   13  C16 UNL     1      23.782   0.832  52.624  1.00  0.00     0.089 A 
HETATM   14  N6  UNL     1      23.469   1.716  51.639  1.00  0.00    -0.062 NA
BRANCH  13  15
HETATM   15  C17 UNL     1      22.734   0.043  53.235  1.00  0.00     0.011 A 
HETATM   16  C18 UNL     1      21.428  -0.047  52.999  1.00  0.00     0.017 A 
HETATM   17  C19 UNL     1      20.332  -0.721  53.455  1.00  0.00     0.020 A 
HETATM   18  C20 UNL     1      20.783  -1.552  54.477  1.00  0.00     0.116 A 
HETATM   19  N5  UNL     1      22.082  -1.640  54.907  1.00  0.00    -0.272 NA
HETATM   20  C21 UNL     1      23.008  -0.850  54.282  1.00  0.00     0.130 A 
ENDBRANCH  13  15
ENDBRANCH   7   9
ENDBRANCH   5   7
BRANCH   1  21
HETATM   21  N2  UNL     1      27.139   6.544  48.080  1.00  0.00    -0.337 N 
HETATM   22  H7  UNL     1      27.077   6.947  47.139  1.00  0.00     0.168 HD
BRANCH  21  23
HETATM   23  C7  UNL     1      28.456   6.159  48.263  1.00  0.00     0.169 A 
HETATM   24  C6  UNL     1      29.779   6.393  48.563  1.00  0.00     0.215 A 
HETATM   25  C2  UNL     1      31.090   6.626  48.861  1.00  0.00     0.096 A 
HETATM   26  C5  UNL     1      29.489   7.883  48.619  1.00  0.00     0.143 A 
HETATM   27  O2  UNL     1      28.998   5.046  48.147  1.00  0.00    -0.303 OA
HETATM   28  C3  UNL     1      31.987   7.603  49.128  1.00  0.00     0.055 A 
HETATM   29  C4  UNL     1      31.544   8.896  49.132  1.00  0.00     0.118 A 
HETATM   30  N1  UNL     1      30.226   9.037  48.864  1.00  0.00    -0.273 NA
BRANCH  25  31
HETATM   31  O1  UNL     1      31.223   5.195  48.777  1.00  0.00    -0.356 OA
HETATM   32  C1  UNL     1      32.393   4.653  48.280  1.00  0.00     0.209 C 
ENDBRANCH  25  31
ENDBRANCH  21  23
ENDBRANCH   1  21
TORSDOF 6
ENDMDL
