MODEL 1
REMARK VINA RESULT:      -6.8      0.000      0.000
REMARK  12 active torsions:
REMARK  status: ('A' for Active; 'I' for Inactive)
REMARK    1  A    between atoms: O1_2  and  C2_3 
REMARK    2  A    between atoms: C2_3  and  C3_5 
REMARK    3  A    between atoms: C3_5  and  C4_6 
REMARK    4  A    between atoms: C4_6  and  C5_7 
REMARK    5  A    between atoms: C5_7  and  C6_8 
REMARK    6  A    between atoms: C6_8  and  N1_9 
REMARK    7  A    between atoms: N1_9  and  C7_10 
REMARK    8  A    between atoms: C7_10  and  C8_11 
REMARK    9  A    between atoms: C8_11  and  C9_12 
REMARK   10  A    between atoms: C9_12  and  C10_13 
REMARK   11  A    between atoms: C10_13  and  C11_14 
REMARK   12  A    between atoms: C11_14  and  O4_16 
ROOT
HETATM    1  C7  UNL     1      25.528   0.166  53.778  1.00  0.00     0.260 A 
HETATM    2  N2  UNL     1      26.284   1.073  54.588  1.00  0.00    -0.351 N 
HETATM    3  C13 UNL     1      27.526   0.378  54.354  1.00  0.00     0.041 A 
HETATM    4  C14 UNL     1      28.884   0.264  54.565  1.00  0.00     0.030 A 
HETATM    5  C15 UNL     1      29.535  -0.790  53.920  1.00  0.00     0.002 A 
HETATM    6  C16 UNL     1      28.819  -1.660  53.113  1.00  0.00     0.001 A 
HETATM    7  C17 UNL     1      27.464  -1.545  52.903  1.00  0.00     0.014 A 
HETATM    8  C18 UNL     1      26.840  -0.501  53.548  1.00  0.00     0.027 A 
HETATM    9  H22 UNL     1      25.956   1.928  55.128  1.00  0.00     0.162 HD
ENDROOT
BRANCH   1  10
HETATM   10  N1  UNL     1      24.667  -0.626  54.650  1.00  0.00     0.117 N 
HETATM   11  H12 UNL     1      24.590  -0.257  55.609  1.00  0.00     0.319 HD
BRANCH  10  12
HETATM   12  C6  UNL     1      23.467  -1.044  54.015  1.00  0.00     0.273 C 
BRANCH  12  13
HETATM   13  C5  UNL     1      22.370  -1.069  55.089  1.00  0.00     0.030 C 
BRANCH  13  14
HETATM   14  C4  UNL     1      21.273  -0.113  54.735  1.00  0.00     0.012 C 
BRANCH  14  15
HETATM   15  C3  UNL     1      21.183   0.153  53.264  1.00  0.00     0.111 C 
BRANCH  15  16
HETATM   16  C2  UNL     1      19.782   0.052  52.834  1.00  0.00     0.258 C 
HETATM   17  O2  UNL     1      18.953   0.575  52.047  1.00  0.00    -0.265 OA
BRANCH  16  18
HETATM   18  O1  UNL     1      19.104  -0.954  53.502  1.00  0.00    -0.326 OA
HETATM   19  C1  UNL     1      17.831  -1.448  53.084  1.00  0.00     0.213 C 
ENDBRANCH  16  18
ENDBRANCH  15  16
ENDBRANCH  14  15
ENDBRANCH  13  14
ENDBRANCH  12  13
ENDBRANCH  10  12
ENDBRANCH   1  10
BRANCH   1  20
HETATM   20  C8  UNL     1      24.884   0.635  52.532  1.00  0.00     0.070 C 
BRANCH  20  21
HETATM   21  C9  UNL     1      24.529   2.066  52.406  1.00  0.00     0.014 C 
BRANCH  21  22
HETATM   22  C10 UNL     1      25.060   2.727  51.193  1.00  0.00     0.111 C 
BRANCH  22  23
HETATM   23  C11 UNL     1      26.569   2.839  51.230  1.00  0.00     0.258 C 
HETATM   24  O3  UNL     1      27.600   2.551  51.917  1.00  0.00    -0.265 OA
BRANCH  23  25
HETATM   25  O4  UNL     1      27.122   3.496  50.129  1.00  0.00    -0.326 OA
HETATM   26  C12 UNL     1      26.397   4.318  49.262  1.00  0.00     0.213 C 
ENDBRANCH  23  25
ENDBRANCH  22  23
ENDBRANCH  21  22
ENDBRANCH  20  21
ENDBRANCH   1  20
TORSDOF 12
ENDMDL
MODEL 2
REMARK VINA RESULT:      -6.7      2.802      5.914
REMARK  12 active torsions:
REMARK  status: ('A' for Active; 'I' for Inactive)
REMARK    1  A    between atoms: O1_2  and  C2_3 
REMARK    2  A    between atoms: C2_3  and  C3_5 
REMARK    3  A    between atoms: C3_5  and  C4_6 
REMARK    4  A    between atoms: C4_6  and  C5_7 
REMARK    5  A    between atoms: C5_7  and  C6_8 
REMARK    6  A    between atoms: C6_8  and  N1_9 
REMARK    7  A    between atoms: N1_9  and  C7_10 
REMARK    8  A    between atoms: C7_10  and  C8_11 
REMARK    9  A    between atoms: C8_11  and  C9_12 
REMARK   10  A    between atoms: C9_12  and  C10_13 
REMARK   11  A    between atoms: C10_13  and  C11_14 
REMARK   12  A    between atoms: C11_14  and  O4_16 
ROOT
HETATM    1  C7  UNL     1      25.375  -0.114  53.806  1.00  0.00     0.260 A 
HETATM    2  N2  UNL     1      25.237  -0.924  54.978  1.00  0.00    -0.351 N 
HETATM    3  C13 UNL     1      23.812  -1.073  54.811  1.00  0.00     0.041 A 
HETATM    4  C14 UNL     1      22.609  -1.583  55.250  1.00  0.00     0.030 A 
HETATM    5  C15 UNL     1      21.483  -1.298  54.474  1.00  0.00     0.002 A 
HETATM    6  C16 UNL     1      21.607  -0.535  53.323  1.00  0.00     0.001 A 
HETATM    7  C17 UNL     1      22.808  -0.026  52.886  1.00  0.00     0.014 A 
HETATM    8  C18 UNL     1      23.906  -0.318  53.664  1.00  0.00     0.027 A 
HETATM    9  H22 UNL     1      25.982  -1.249  55.664  1.00  0.00     0.162 HD
ENDROOT
BRANCH   1  10
HETATM   10  N1  UNL     1      25.691   1.249  54.220  1.00  0.00     0.117 N 
HETATM   11  H12 UNL     1      26.355   1.305  55.005  1.00  0.00     0.319 HD
BRANCH  10  12
HETATM   12  C6  UNL     1      25.905   2.127  53.123  1.00  0.00     0.273 C 
BRANCH  12  13
HETATM   13  C5  UNL     1      24.726   3.110  53.093  1.00  0.00     0.030 C 
BRANCH  13  14
HETATM   14  C4  UNL     1      24.245   3.302  51.688  1.00  0.00     0.012 C 
BRANCH  14  15
HETATM   15  C3  UNL     1      25.065   2.554  50.683  1.00  0.00     0.111 C 
BRANCH  15  16
HETATM   16  C2  UNL     1      25.891   3.501  49.924  1.00  0.00     0.258 C 
HETATM   17  O2  UNL     1      27.091   3.775  49.665  1.00  0.00    -0.265 OA
BRANCH  16  18
HETATM   18  O1  UNL     1      25.124   4.432  49.242  1.00  0.00    -0.326 OA
HETATM   19  C1  UNL     1      25.473   5.813  49.149  1.00  0.00     0.213 C 
ENDBRANCH  16  18
ENDBRANCH  15  16
ENDBRANCH  14  15
ENDBRANCH  13  14
ENDBRANCH  12  13
ENDBRANCH  10  12
ENDBRANCH   1  10
BRANCH   1  20
HETATM   20  C8  UNL     1      26.148  -0.604  52.644  1.00  0.00     0.070 C 
BRANCH  20  21
HETATM   21  C9  UNL     1      27.062  -1.753  52.828  1.00  0.00     0.014 C 
BRANCH  21  22
HETATM   22  C10 UNL     1      28.488  -1.386  52.980  1.00  0.00     0.111 C 
BRANCH  22  23
HETATM   23  C11 UNL     1      28.701  -0.423  54.127  1.00  0.00     0.258 C 
HETATM   24  O3  UNL     1      28.372  -0.176  55.331  1.00  0.00    -0.265 OA
BRANCH  23  25
HETATM   25  O4  UNL     1      29.578   0.625  53.840  1.00  0.00    -0.326 OA
HETATM   26  C12 UNL     1      29.407   1.936  54.295  1.00  0.00     0.213 C 
ENDBRANCH  23  25
ENDBRANCH  22  23
ENDBRANCH  21  22
ENDBRANCH  20  21
ENDBRANCH   1  20
TORSDOF 12
ENDMDL
MODEL 3
REMARK VINA RESULT:      -6.7      2.300      3.276
REMARK  12 active torsions:
REMARK  status: ('A' for Active; 'I' for Inactive)
REMARK    1  A    between atoms: O1_2  and  C2_3 
REMARK    2  A    between atoms: C2_3  and  C3_5 
REMARK    3  A    between atoms: C3_5  and  C4_6 
REMARK    4  A    between atoms: C4_6  and  C5_7 
REMARK    5  A    between atoms: C5_7  and  C6_8 
REMARK    6  A    between atoms: C6_8  and  N1_9 
REMARK    7  A    between atoms: N1_9  and  C7_10 
REMARK    8  A    between atoms: C7_10  and  C8_11 
REMARK    9  A    between atoms: C8_11  and  C9_12 
REMARK   10  A    between atoms: C9_12  and  C10_13 
REMARK   11  A    between atoms: C10_13  and  C11_14 
REMARK   12  A    between atoms: C11_14  and  O4_16 
ROOT
HETATM    1  C7  UNL     1      26.306   1.789  52.589  1.00  0.00     0.260 A 
HETATM    2  N2  UNL     1      27.251   2.546  53.354  1.00  0.00    -0.351 N 
HETATM    3  C13 UNL     1      28.085   1.399  53.616  1.00  0.00     0.041 A 
HETATM    4  C14 UNL     1      29.208   0.852  54.199  1.00  0.00     0.030 A 
HETATM    5  C15 UNL     1      29.424  -0.513  53.995  1.00  0.00     0.002 A 
HETATM    6  C16 UNL     1      28.531  -1.252  53.235  1.00  0.00     0.001 A 
HETATM    7  C17 UNL     1      27.410  -0.706  52.653  1.00  0.00     0.014 A 
HETATM    8  C18 UNL     1      27.215   0.641  52.866  1.00  0.00     0.027 A 
HETATM    9  H22 UNL     1      27.251   3.583  53.589  1.00  0.00     0.162 HD
ENDROOT
BRANCH   1  10
HETATM   10  N1  UNL     1      25.066   1.690  53.351  1.00  0.00     0.117 N 
HETATM   11  H12 UNL     1      25.204   1.478  54.349  1.00  0.00     0.319 HD
BRANCH  10  12
HETATM   12  C6  UNL     1      24.132   2.711  53.026  1.00  0.00     0.273 C 
BRANCH  12  13
HETATM   13  C5  UNL     1      22.847   2.016  52.555  1.00  0.00     0.030 C 
BRANCH  13  14
HETATM   14  C4  UNL     1      22.972   0.532  52.709  1.00  0.00     0.012 C 
BRANCH  14  15
HETATM   15  C3  UNL     1      21.970  -0.042  53.662  1.00  0.00     0.111 C 
BRANCH  15  16
HETATM   16  C2  UNL     1      22.648  -0.948  54.598  1.00  0.00     0.258 C 
HETATM   17  O2  UNL     1      22.410  -1.801  55.490  1.00  0.00    -0.265 OA
BRANCH  16  18
HETATM   18  O1  UNL     1      24.027  -0.865  54.496  1.00  0.00    -0.326 OA
HETATM   19  C1  UNL     1      24.908  -1.154  55.582  1.00  0.00     0.213 C 
ENDBRANCH  16  18
ENDBRANCH  15  16
ENDBRANCH  14  15
ENDBRANCH  13  14
ENDBRANCH  12  13
ENDBRANCH  10  12
ENDBRANCH   1  10
BRANCH   1  20
HETATM   20  C8  UNL     1      26.127   2.057  51.145  1.00  0.00     0.070 C 
BRANCH  20  21
HETATM   21  C9  UNL     1      26.870   3.179  50.530  1.00  0.00     0.014 C 
BRANCH  21  22
HETATM   22  C10 UNL     1      26.125   3.905  49.477  1.00  0.00     0.111 C 
BRANCH  22  23
HETATM   23  C11 UNL     1      26.989   4.940  48.790  1.00  0.00     0.258 C 
HETATM   24  O3  UNL     1      28.158   5.162  48.339  1.00  0.00    -0.265 OA
BRANCH  23  25
HETATM   25  O4  UNL     1      26.332   6.140  48.509  1.00  0.00    -0.326 OA
HETATM   26  C12 UNL     1      26.958   7.390  48.494  1.00  0.00     0.213 C 
ENDBRANCH  23  25
ENDBRANCH  22  23
ENDBRANCH  21  22
ENDBRANCH  20  21
ENDBRANCH   1  20
TORSDOF 12
ENDMDL
MODEL 4
REMARK VINA RESULT:      -6.7      2.072      3.013
REMARK  12 active torsions:
REMARK  status: ('A' for Active; 'I' for Inactive)
REMARK    1  A    between atoms: O1_2  and  C2_3 
REMARK    2  A    between atoms: C2_3  and  C3_5 
REMARK    3  A    between atoms: C3_5  and  C4_6 
REMARK    4  A    between atoms: C4_6  and  C5_7 
REMARK    5  A    between atoms: C5_7  and  C6_8 
REMARK    6  A    between atoms: C6_8  and  N1_9 
REMARK    7  A    between atoms: N1_9  and  C7_10 
REMARK    8  A    between atoms: C7_10  and  C8_11 
REMARK    9  A    between atoms: C8_11  and  C9_12 
REMARK   10  A    between atoms: C9_12  and  C10_13 
REMARK   11  A    between atoms: C10_13  and  C11_14 
REMARK   12  A    between atoms: C11_14  and  O4_16 
ROOT
HETATM    1  C7  UNL     1      26.484   2.289  51.829  1.00  0.00     0.260 A 
HETATM    2  N2  UNL     1      27.558   2.801  52.626  1.00  0.00    -0.351 N 
HETATM    3  C13 UNL     1      27.988   1.488  53.040  1.00  0.00     0.041 A 
HETATM    4  C14 UNL     1      28.852   0.691  53.761  1.00  0.00     0.030 A 
HETATM    5  C15 UNL     1      28.660  -0.689  53.668  1.00  0.00     0.002 A 
HETATM    6  C16 UNL     1      27.641  -1.199  52.880  1.00  0.00     0.001 A 
HETATM    7  C17 UNL     1      26.779  -0.403  52.161  1.00  0.00     0.014 A 
HETATM    8  C18 UNL     1      26.983   0.955  52.265  1.00  0.00     0.027 A 
HETATM    9  H22 UNL     1      27.853   3.809  52.791  1.00  0.00     0.162 HD
ENDROOT
BRANCH   1  10
HETATM   10  N1  UNL     1      25.222   2.630  52.478  1.00  0.00     0.117 N 
HETATM   11  H12 UNL     1      25.128   3.629  52.710  1.00  0.00     0.319 HD
BRANCH  10  12
HETATM   12  C6  UNL     1      24.101   1.991  51.882  1.00  0.00     0.273 C 
BRANCH  12  13
HETATM   13  C5  UNL     1      23.186   1.525  53.023  1.00  0.00     0.030 C 
BRANCH  13  14
HETATM   14  C4  UNL     1      23.539   0.129  53.435  1.00  0.00     0.012 C 
BRANCH  14  15
HETATM   15  C3  UNL     1      22.492  -0.873  53.056  1.00  0.00     0.111 C 
BRANCH  15  16
HETATM   16  C2  UNL     1      21.895  -1.440  54.273  1.00  0.00     0.258 C 
HETATM   17  O2  UNL     1      22.206  -2.000  55.354  1.00  0.00    -0.265 OA
BRANCH  16  18
HETATM   18  O1  UNL     1      20.513  -1.346  54.267  1.00  0.00    -0.326 OA
HETATM   19  C1  UNL     1      19.792  -0.485  53.385  1.00  0.00     0.213 C 
ENDBRANCH  16  18
ENDBRANCH  15  16
ENDBRANCH  14  15
ENDBRANCH  13  14
ENDBRANCH  12  13
ENDBRANCH  10  12
ENDBRANCH   1  10
BRANCH   1  20
HETATM   20  C8  UNL     1      26.493   2.466  50.361  1.00  0.00     0.070 C 
BRANCH  20  21
HETATM   21  C9  UNL     1      26.635   3.830  49.806  1.00  0.00     0.014 C 
BRANCH  21  22
HETATM   22  C10 UNL     1      25.398   4.385  49.213  1.00  0.00     0.111 C 
BRANCH  22  23
HETATM   23  C11 UNL     1      24.696   5.331  50.162  1.00  0.00     0.258 C 
HETATM   24  O3  UNL     1      24.218   5.435  51.337  1.00  0.00    -0.265 OA
BRANCH  23  25
HETATM   25  O4  UNL     1      24.433   6.592  49.624  1.00  0.00    -0.326 OA
HETATM   26  C12 UNL     1      24.182   6.829  48.270  1.00  0.00     0.213 C 
ENDBRANCH  23  25
ENDBRANCH  22  23
ENDBRANCH  21  22
ENDBRANCH  20  21
ENDBRANCH   1  20
TORSDOF 12
ENDMDL
MODEL 5
REMARK VINA RESULT:      -6.6      1.377      1.919
REMARK  12 active torsions:
REMARK  status: ('A' for Active; 'I' for Inactive)
REMARK    1  A    between atoms: O1_2  and  C2_3 
REMARK    2  A    between atoms: C2_3  and  C3_5 
REMARK    3  A    between atoms: C3_5  and  C4_6 
REMARK    4  A    between atoms: C4_6  and  C5_7 
REMARK    5  A    between atoms: C5_7  and  C6_8 
REMARK    6  A    between atoms: C6_8  and  N1_9 
REMARK    7  A    between atoms: N1_9  and  C7_10 
REMARK    8  A    between atoms: C7_10  and  C8_11 
REMARK    9  A    between atoms: C8_11  and  C9_12 
REMARK   10  A    between atoms: C9_12  and  C10_13 
REMARK   11  A    between atoms: C10_13  and  C11_14 
REMARK   12  A    between atoms: C11_14  and  O4_16 
ROOT
HETATM    1  C7  UNL     1      26.156   1.618  52.965  1.00  0.00     0.260 A 
HETATM    2  N2  UNL     1      27.088   2.381  53.739  1.00  0.00    -0.351 N 
HETATM    3  C13 UNL     1      28.024   1.289  53.844  1.00  0.00     0.041 A 
HETATM    4  C14 UNL     1      29.223   0.788  54.307  1.00  0.00     0.030 A 
HETATM    5  C15 UNL     1      29.528  -0.531  53.965  1.00  0.00     0.002 A 
HETATM    6  C16 UNL     1      28.646  -1.272  53.194  1.00  0.00     0.001 A 
HETATM    7  C17 UNL     1      27.450  -0.772  52.733  1.00  0.00     0.014 A 
HETATM    8  C18 UNL     1      27.167   0.529  53.080  1.00  0.00     0.027 A 
HETATM    9  H22 UNL     1      27.024   3.390  54.069  1.00  0.00     0.162 HD
ENDROOT
BRANCH   1  10
HETATM   10  N1  UNL     1      24.981   1.351  53.788  1.00  0.00     0.117 N 
HETATM   11  H12 UNL     1      24.825   2.044  54.533  1.00  0.00     0.319 HD
BRANCH  10  12
HETATM   12  C6  UNL     1      23.850   0.950  53.026  1.00  0.00     0.273 C 
BRANCH  12  13
HETATM   13  C5  UNL     1      23.587  -0.527  53.349  1.00  0.00     0.030 C 
BRANCH  13  14
HETATM   14  C4  UNL     1      22.226  -0.694  53.951  1.00  0.00     0.012 C 
BRANCH  14  15
HETATM   15  C3  UNL     1      21.327   0.475  53.693  1.00  0.00     0.111 C 
BRANCH  15  16
HETATM   16  C2  UNL     1      20.194   0.046  52.862  1.00  0.00     0.258 C 
HETATM   17  O2  UNL     1      19.746   0.124  51.690  1.00  0.00    -0.265 OA
BRANCH  16  18
HETATM   18  O1  UNL     1      19.278  -0.706  53.580  1.00  0.00    -0.326 OA
HETATM   19  C1  UNL     1      18.013  -1.108  53.052  1.00  0.00     0.213 C 
ENDBRANCH  16  18
ENDBRANCH  15  16
ENDBRANCH  14  15
ENDBRANCH  13  14
ENDBRANCH  12  13
ENDBRANCH  10  12
ENDBRANCH   1  10
BRANCH   1  20
HETATM   20  C8  UNL     1      25.861   1.996  51.566  1.00  0.00     0.070 C 
BRANCH  20  21
HETATM   21  C9  UNL     1      26.751   2.961  50.884  1.00  0.00     0.014 C 
BRANCH  21  22
HETATM   22  C10 UNL     1      26.384   3.249  49.479  1.00  0.00     0.111 C 
BRANCH  22  23
HETATM   23  C11 UNL     1      26.861   4.617  49.043  1.00  0.00     0.258 C 
HETATM   24  O3  UNL     1      26.510   5.835  48.931  1.00  0.00    -0.265 OA
BRANCH  23  25
HETATM   25  O4  UNL     1      28.174   4.643  48.569  1.00  0.00    -0.326 OA
HETATM   26  C12 UNL     1      28.844   5.808  48.183  1.00  0.00     0.213 C 
ENDBRANCH  23  25
ENDBRANCH  22  23
ENDBRANCH  21  22
ENDBRANCH  20  21
ENDBRANCH   1  20
TORSDOF 12
ENDMDL
MODEL 6
REMARK VINA RESULT:      -6.6      3.068      6.963
REMARK  12 active torsions:
REMARK  status: ('A' for Active; 'I' for Inactive)
REMARK    1  A    between atoms: O1_2  and  C2_3 
REMARK    2  A    between atoms: C2_3  and  C3_5 
REMARK    3  A    between atoms: C3_5  and  C4_6 
REMARK    4  A    between atoms: C4_6  and  C5_7 
REMARK    5  A    between atoms: C5_7  and  C6_8 
REMARK    6  A    between atoms: C6_8  and  N1_9 
REMARK    7  A    between atoms: N1_9  and  C7_10 
REMARK    8  A    between atoms: C7_10  and  C8_11 
REMARK    9  A    between atoms: C8_11  and  C9_12 
REMARK   10  A    between atoms: C9_12  and  C10_13 
REMARK   11  A    between atoms: C10_13  and  C11_14 
REMARK   12  A    between atoms: C11_14  and  O4_16 
ROOT
HETATM    1  C7  UNL     1      23.156   1.870  52.221  1.00  0.00     0.260 A 
HETATM    2  N2  UNL     1      21.822   2.321  52.480  1.00  0.00    -0.351 N 
HETATM    3  C13 UNL     1      21.451   1.102  53.155  1.00  0.00     0.041 A 
HETATM    4  C14 UNL     1      20.505   0.348  53.816  1.00  0.00     0.030 A 
HETATM    5  C15 UNL     1      20.906  -0.910  54.270  1.00  0.00     0.002 A 
HETATM    6  C16 UNL     1      22.202  -1.348  54.049  1.00  0.00     0.001 A 
HETATM    7  C17 UNL     1      23.146  -0.596  53.388  1.00  0.00     0.014 A 
HETATM    8  C18 UNL     1      22.731   0.641  52.949  1.00  0.00     0.027 A 
HETATM    9  H22 UNL     1      21.362   3.245  52.225  1.00  0.00     0.162 HD
ENDROOT
BRANCH   1  10
HETATM   10  N1  UNL     1      23.293   1.627  50.789  1.00  0.00     0.117 N 
HETATM   11  H12 UNL     1      23.041   0.672  50.500  1.00  0.00     0.319 HD
BRANCH  10  12
HETATM   12  C6  UNL     1      22.801   2.699  49.995  1.00  0.00     0.273 C 
BRANCH  12  13
HETATM   13  C5  UNL     1      23.896   3.050  48.979  1.00  0.00     0.030 C 
BRANCH  13  14
HETATM   14  C4  UNL     1      24.865   4.025  49.574  1.00  0.00     0.012 C 
BRANCH  14  15
HETATM   15  C3  UNL     1      26.277   3.530  49.555  1.00  0.00     0.111 C 
BRANCH  15  16
HETATM   16  C2  UNL     1      27.144   4.546  48.944  1.00  0.00     0.258 C 
HETATM   17  O2  UNL     1      28.322   4.725  48.544  1.00  0.00    -0.265 OA
BRANCH  16  18
HETATM   18  O1  UNL     1      26.469   5.733  48.710  1.00  0.00    -0.326 OA
HETATM   19  C1  UNL     1      27.108   7.010  48.723  1.00  0.00     0.213 C 
ENDBRANCH  16  18
ENDBRANCH  15  16
ENDBRANCH  14  15
ENDBRANCH  13  14
ENDBRANCH  12  13
ENDBRANCH  10  12
ENDBRANCH   1  10
BRANCH   1  20
HETATM   20  C8  UNL     1      24.310   2.551  52.848  1.00  0.00     0.070 C 
BRANCH  20  21
HETATM   21  C9  UNL     1      25.632   1.887  52.820  1.00  0.00     0.014 C 
BRANCH  21  22
HETATM   22  C10 UNL     1      26.405   2.003  54.077  1.00  0.00     0.111 C 
BRANCH  22  23
HETATM   23  C11 UNL     1      26.775   0.647  54.636  1.00  0.00     0.258 C 
HETATM   24  O3  UNL     1      26.313  -0.504  54.920  1.00  0.00    -0.265 OA
BRANCH  23  25
HETATM   25  O4  UNL     1      28.115   0.527  55.010  1.00  0.00    -0.326 OA
HETATM   26  C12 UNL     1      29.102  -0.053  54.207  1.00  0.00     0.213 C 
ENDBRANCH  23  25
ENDBRANCH  22  23
ENDBRANCH  21  22
ENDBRANCH  20  21
ENDBRANCH   1  20
TORSDOF 12
ENDMDL
MODEL 7
REMARK VINA RESULT:      -6.5      1.787      2.185
REMARK  12 active torsions:
REMARK  status: ('A' for Active; 'I' for Inactive)
REMARK    1  A    between atoms: O1_2  and  C2_3 
REMARK    2  A    between atoms: C2_3  and  C3_5 
REMARK    3  A    between atoms: C3_5  and  C4_6 
REMARK    4  A    between atoms: C4_6  and  C5_7 
REMARK    5  A    between atoms: C5_7  and  C6_8 
REMARK    6  A    between atoms: C6_8  and  N1_9 
REMARK    7  A    between atoms: N1_9  and  C7_10 
REMARK    8  A    between atoms: C7_10  and  C8_11 
REMARK    9  A    between atoms: C8_11  and  C9_12 
REMARK   10  A    between atoms: C9_12  and  C10_13 
REMARK   11  A    between atoms: C10_13  and  C11_14 
REMARK   12  A    between atoms: C11_14  and  O4_16 
ROOT
HETATM    1  C7  UNL     1      25.708   0.248  53.679  1.00  0.00     0.260 A 
HETATM    2  N2  UNL     1      26.475   1.118  54.520  1.00  0.00    -0.351 N 
HETATM    3  C13 UNL     1      27.698   0.385  54.304  1.00  0.00     0.041 A 
HETATM    4  C14 UNL     1      29.047   0.222  54.544  1.00  0.00     0.030 A 
HETATM    5  C15 UNL     1      29.677  -0.842  53.898  1.00  0.00     0.002 A 
HETATM    6  C16 UNL     1      28.952  -1.676  53.061  1.00  0.00     0.001 A 
HETATM    7  C17 UNL     1      27.607  -1.514  52.822  1.00  0.00     0.014 A 
HETATM    8  C18 UNL     1      27.003  -0.459  53.469  1.00  0.00     0.027 A 
HETATM    9  H22 UNL     1      26.162   1.974  55.066  1.00  0.00     0.162 HD
ENDROOT
BRANCH   1  10
HETATM   10  N1  UNL     1      24.802  -0.528  54.519  1.00  0.00     0.117 N 
HETATM   11  H12 UNL     1      24.808  -0.248  55.510  1.00  0.00     0.319 HD
BRANCH  10  12
HETATM   12  C6  UNL     1      23.536  -0.750  53.912  1.00  0.00     0.273 C 
BRANCH  12  13
HETATM   13  C5  UNL     1      22.581  -1.223  55.017  1.00  0.00     0.030 C 
BRANCH  13  14
HETATM   14  C4  UNL     1      21.162  -1.155  54.542  1.00  0.00     0.012 C 
BRANCH  14  15
HETATM   15  C3  UNL     1      20.706   0.244  54.267  1.00  0.00     0.111 C 
BRANCH  15  16
HETATM   16  C2  UNL     1      20.058   0.297  52.950  1.00  0.00     0.258 C 
HETATM   17  O2  UNL     1      19.037  -0.105  52.337  1.00  0.00    -0.265 OA
BRANCH  16  18
HETATM   18  O1  UNL     1      20.793   1.035  52.037  1.00  0.00    -0.326 OA
HETATM   19  C1  UNL     1      21.447   0.454  50.909  1.00  0.00     0.213 C 
ENDBRANCH  16  18
ENDBRANCH  15  16
ENDBRANCH  14  15
ENDBRANCH  13  14
ENDBRANCH  12  13
ENDBRANCH  10  12
ENDBRANCH   1  10
BRANCH   1  20
HETATM   20  C8  UNL     1      25.109   0.757  52.426  1.00  0.00     0.070 C 
BRANCH  20  21
HETATM   21  C9  UNL     1      24.975   2.219  52.241  1.00  0.00     0.014 C 
BRANCH  21  22
HETATM   22  C10 UNL     1      23.743   2.801  52.819  1.00  0.00     0.111 C 
BRANCH  22  23
HETATM   23  C11 UNL     1      23.386   4.119  52.169  1.00  0.00     0.258 C 
HETATM   24  O3  UNL     1      23.685   5.355  52.130  1.00  0.00    -0.265 OA
BRANCH  23  25
HETATM   25  O4  UNL     1      22.340   4.040  51.248  1.00  0.00    -0.326 OA
HETATM   26  C12 UNL     1      22.519   3.868  49.872  1.00  0.00     0.213 C 
ENDBRANCH  23  25
ENDBRANCH  22  23
ENDBRANCH  21  22
ENDBRANCH  20  21
ENDBRANCH   1  20
TORSDOF 12
ENDMDL
MODEL 8
REMARK VINA RESULT:      -6.4      3.603      7.202
REMARK  12 active torsions:
REMARK  status: ('A' for Active; 'I' for Inactive)
REMARK    1  A    between atoms: O1_2  and  C2_3 
REMARK    2  A    between atoms: C2_3  and  C3_5 
REMARK    3  A    between atoms: C3_5  and  C4_6 
REMARK    4  A    between atoms: C4_6  and  C5_7 
REMARK    5  A    between atoms: C5_7  and  C6_8 
REMARK    6  A    between atoms: C6_8  and  N1_9 
REMARK    7  A    between atoms: N1_9  and  C7_10 
REMARK    8  A    between atoms: C7_10  and  C8_11 
REMARK    9  A    between atoms: C8_11  and  C9_12 
REMARK   10  A    between atoms: C9_12  and  C10_13 
REMARK   11  A    between atoms: C10_13  and  C11_14 
REMARK   12  A    between atoms: C11_14  and  O4_16 
ROOT
HETATM    1  C7  UNL     1      24.848   2.730  52.363  1.00  0.00     0.260 A 
HETATM    2  N2  UNL     1      24.540   4.129  52.367  1.00  0.00    -0.351 N 
HETATM    3  C13 UNL     1      23.116   3.901  52.332  1.00  0.00     0.041 A 
HETATM    4  C14 UNL     1      21.831   4.401  52.303  1.00  0.00     0.030 A 
HETATM    5  C15 UNL     1      20.793   3.467  52.296  1.00  0.00     0.002 A 
HETATM    6  C16 UNL     1      21.076   2.111  52.318  1.00  0.00     0.001 A 
HETATM    7  C17 UNL     1      22.359   1.613  52.347  1.00  0.00     0.014 A 
HETATM    8  C18 UNL     1      23.369   2.549  52.354  1.00  0.00     0.027 A 
HETATM    9  H22 UNL     1      25.198   4.963  52.389  1.00  0.00     0.162 HD
ENDROOT
BRANCH   1  10
HETATM   10  N1  UNL     1      25.440   2.390  51.074  1.00  0.00     0.117 N 
HETATM   11  H12 UNL     1      24.766   2.367  50.297  1.00  0.00     0.319 HD
BRANCH  10  12
HETATM   12  C6  UNL     1      26.679   3.048  50.842  1.00  0.00     0.273 C 
BRANCH  12  13
HETATM   13  C5  UNL     1      26.677   3.515  49.380  1.00  0.00     0.030 C 
BRANCH  13  14
HETATM   14  C4  UNL     1      25.794   4.714  49.218  1.00  0.00     0.012 C 
BRANCH  14  15
HETATM   15  C3  UNL     1      26.561   5.969  48.940  1.00  0.00     0.111 C 
BRANCH  15  16
HETATM   16  C2  UNL     1      26.055   7.051  49.795  1.00  0.00     0.258 C 
HETATM   17  O2  UNL     1      26.258   8.258  50.081  1.00  0.00    -0.265 OA
BRANCH  16  18
HETATM   18  O1  UNL     1      24.983   6.642  50.572  1.00  0.00    -0.326 OA
HETATM   19  C1  UNL     1      23.910   7.509  50.940  1.00  0.00     0.213 C 
ENDBRANCH  16  18
ENDBRANCH  15  16
ENDBRANCH  14  15
ENDBRANCH  13  14
ENDBRANCH  12  13
ENDBRANCH  10  12
ENDBRANCH   1  10
BRANCH   1  20
HETATM   20  C8  UNL     1      25.505   2.106  53.532  1.00  0.00     0.070 C 
BRANCH  20  21
HETATM   21  C9  UNL     1      25.614   0.632  53.587  1.00  0.00     0.014 C 
BRANCH  21  22
HETATM   22  C10 UNL     1      26.271   0.109  54.806  1.00  0.00     0.111 C 
BRANCH  22  23
HETATM   23  C11 UNL     1      27.772   0.292  54.757  1.00  0.00     0.258 C 
HETATM   24  O3  UNL     1      28.712   1.112  55.006  1.00  0.00    -0.265 OA
BRANCH  23  25
HETATM   25  O4  UNL     1      28.468  -0.813  54.263  1.00  0.00    -0.326 OA
HETATM   26  C12 UNL     1      29.712  -0.735  53.628  1.00  0.00     0.213 C 
ENDBRANCH  23  25
ENDBRANCH  22  23
ENDBRANCH  21  22
ENDBRANCH  20  21
ENDBRANCH   1  20
TORSDOF 12
ENDMDL
MODEL 9
REMARK VINA RESULT:      -6.3      3.892      6.786
REMARK  12 active torsions:
REMARK  status: ('A' for Active; 'I' for Inactive)
REMARK    1  A    between atoms: O1_2  and  C2_3 
REMARK    2  A    between atoms: C2_3  and  C3_5 
REMARK    3  A    between atoms: C3_5  and  C4_6 
REMARK    4  A    between atoms: C4_6  and  C5_7 
REMARK    5  A    between atoms: C5_7  and  C6_8 
REMARK    6  A    between atoms: C6_8  and  N1_9 
REMARK    7  A    between atoms: N1_9  and  C7_10 
REMARK    8  A    between atoms: C7_10  and  C8_11 
REMARK    9  A    between atoms: C8_11  and  C9_12 
REMARK   10  A    between atoms: C9_12  and  C10_13 
REMARK   11  A    between atoms: C10_13  and  C11_14 
REMARK   12  A    between atoms: C11_14  and  O4_16 
ROOT
HETATM    1  C7  UNL     1      24.466   3.816  50.815  1.00  0.00     0.260 A 
HETATM    2  N2  UNL     1      23.988   5.142  50.561  1.00  0.00    -0.351 N 
HETATM    3  C13 UNL     1      25.148   5.502  49.783  1.00  0.00     0.041 A 
HETATM    4  C14 UNL     1      25.842   6.435  49.042  1.00  0.00     0.030 A 
HETATM    5  C15 UNL     1      27.064   6.028  48.501  1.00  0.00     0.002 A 
HETATM    6  C16 UNL     1      27.526   4.740  48.718  1.00  0.00     0.001 A 
HETATM    7  C17 UNL     1      26.833   3.809  49.458  1.00  0.00     0.014 A 
HETATM    8  C18 UNL     1      25.632   4.229  49.983  1.00  0.00     0.027 A 
HETATM    9  H22 UNL     1      23.084   5.604  50.876  1.00  0.00     0.162 HD
ENDROOT
BRANCH   1  10
HETATM   10  N1  UNL     1      24.822   3.715  52.226  1.00  0.00     0.117 N 
HETATM   11  H12 UNL     1      24.319   4.378  52.833  1.00  0.00     0.319 HD
BRANCH  10  12
HETATM   12  C6  UNL     1      24.927   2.371  52.677  1.00  0.00     0.273 C 
BRANCH  12  13
HETATM   13  C5  UNL     1      26.420   2.019  52.708  1.00  0.00     0.030 C 
BRANCH  13  14
HETATM   14  C4  UNL     1      26.682   0.787  51.898  1.00  0.00     0.012 C 
BRANCH  14  15
HETATM   15  C3  UNL     1      26.347  -0.475  52.631  1.00  0.00     0.111 C 
BRANCH  15  16
HETATM   16  C2  UNL     1      27.213  -0.599  53.810  1.00  0.00     0.258 C 
HETATM   17  O2  UNL     1      27.296  -0.246  55.014  1.00  0.00    -0.265 OA
BRANCH  16  18
HETATM   18  O1  UNL     1      28.341  -1.360  53.550  1.00  0.00    -0.326 OA
HETATM   19  C1  UNL     1      29.671  -0.867  53.715  1.00  0.00     0.213 C 
ENDBRANCH  16  18
ENDBRANCH  15  16
ENDBRANCH  14  15
ENDBRANCH  13  14
ENDBRANCH  12  13
ENDBRANCH  10  12
ENDBRANCH   1  10
BRANCH   1  20
HETATM   20  C8  UNL     1      23.746   2.645  50.271  1.00  0.00     0.070 C 
BRANCH  20  21
HETATM   21  C9  UNL     1      22.278   2.724  50.104  1.00  0.00     0.014 C 
BRANCH  21  22
HETATM   22  C10 UNL     1      21.800   2.448  48.731  1.00  0.00     0.111 C 
BRANCH  22  23
HETATM   23  C11 UNL     1      22.197   3.545  47.768  1.00  0.00     0.258 C 
HETATM   24  O3  UNL     1      22.567   4.760  47.696  1.00  0.00    -0.265 OA
BRANCH  23  25
HETATM   25  O4  UNL     1      22.174   3.165  46.424  1.00  0.00    -0.326 OA
HETATM   26  C12 UNL     1      21.778   4.005  45.379  1.00  0.00     0.213 C 
ENDBRANCH  23  25
ENDBRANCH  22  23
ENDBRANCH  21  22
ENDBRANCH  20  21
ENDBRANCH   1  20
TORSDOF 12
ENDMDL
