MODEL 1
REMARK VINA RESULT:      -8.7      0.000      0.000
REMARK  8 active torsions:
REMARK  status: ('A' for Active; 'I' for Inactive)
REMARK    1  A    between atoms: O1_2  and  C2_3 
REMARK    2  A    between atoms: C7_8  and  O2_9 
REMARK    3  A    between atoms: O2_9  and  C8_10 
REMARK    4  A    between atoms: C15_17  and  C16_18 
REMARK    5  A    between atoms: C16_18  and  C17_19 
REMARK    6  A    between atoms: C17_19  and  C18_20 
REMARK    7  A    between atoms: C18_20  and  C19_21 
REMARK    8  A    between atoms: C19_21  and  C20_22 
ROOT
HETATM    1  C8  UNL     1      24.410   0.179  53.038  1.00  0.00     0.159 C 
HETATM    2  C9  UNL     1      23.528  -0.336  54.155  1.00  0.00     0.041 C 
HETATM    3  C10 UNL     1      22.488  -1.308  53.662  1.00  0.00     0.030 C 
HETATM    4  C11 UNL     1      21.538  -0.717  52.722  1.00  0.00    -0.026 C 
HETATM    5  C12 UNL     1      21.552   0.430  52.067  1.00  0.00     0.003 C 
HETATM    6  C13 UNL     1      22.590   1.444  52.132  1.00  0.00    -0.057 C 
HETATM    7  C14 UNL     1      22.238   2.814  51.664  1.00  0.00     0.048 C 
HETATM    8  C15 UNL     1      23.847   1.493  52.517  1.00  0.00    -0.034 C 
ENDROOT
BRANCH   8   9
HETATM    9  C16 UNL     1      24.881   2.479  52.581  1.00  0.00     0.131 C 
BRANCH   9  10
HETATM   10  C17 UNL     1      25.561   2.925  51.415  1.00  0.00    -0.098 C 
BRANCH  10  11
HETATM   11  C18 UNL     1      26.125   3.317  50.412  1.00  0.00    -0.077 C 
BRANCH  11  12
HETATM   12  C19 UNL     1      26.805   3.764  49.234  1.00  0.00     0.089 C 
BRANCH  12  13
HETATM   13  C20 UNL     1      27.090   5.025  48.986  1.00  0.00     0.084 C 
HETATM   14  S1  UNL     1      25.969   6.428  49.135  1.00  0.00    -0.046 SA
HETATM   15  C21 UNL     1      27.273   7.686  49.081  1.00  0.00     0.167 C 
HETATM   16  N1  UNL     1      27.172   8.925  49.412  1.00  0.00    -0.278 NA
HETATM   17  N2  UNL     1      28.428   7.011  48.595  1.00  0.00    -0.301 N 
HETATM   18  H21 UNL     1      26.250   9.272  49.754  1.00  0.00     0.189 HD
HETATM   19  C22 UNL     1      28.352   5.608  48.537  1.00  0.00     0.265 C 
HETATM   20  H22 UNL     1      29.269   7.559  48.307  1.00  0.00     0.171 HD
HETATM   21  O3  UNL     1      29.276   4.853  48.136  1.00  0.00    -0.267 OA
ENDBRANCH  12  13
ENDBRANCH  11  12
ENDBRANCH  10  11
ENDBRANCH   9  10
ENDBRANCH   8   9
BRANCH   1  22
HETATM   22  O2  UNL     1      25.681   0.388  53.579  1.00  0.00    -0.339 OA
BRANCH  22  23
HETATM   23  C7  UNL     1      26.737  -0.462  53.396  1.00  0.00     0.102 A 
HETATM   24  C2  UNL     1      27.936   0.104  53.851  1.00  0.00     0.101 A 
HETATM   25  C3  UNL     1      29.123  -0.632  53.742  1.00  0.00     0.039 A 
HETATM   26  C4  UNL     1      29.169  -1.918  53.194  1.00  0.00     0.003 A 
HETATM   27  C5  UNL     1      27.976  -2.444  52.757  1.00  0.00     0.003 A 
HETATM   28  C6  UNL     1      26.825  -1.715  52.870  1.00  0.00     0.040 A 
BRANCH  24  29
HETATM   29  O1  UNL     1      28.031   1.387  54.424  1.00  0.00    -0.353 OA
HETATM   30  C1  UNL     1      28.597   2.397  53.637  1.00  0.00     0.210 C 
ENDBRANCH  24  29
ENDBRANCH  22  23
ENDBRANCH   1  22
TORSDOF 8
ENDMDL
MODEL 2
REMARK VINA RESULT:      -8.6      1.248      4.501
REMARK  8 active torsions:
REMARK  status: ('A' for Active; 'I' for Inactive)
REMARK    1  A    between atoms: O1_2  and  C2_3 
REMARK    2  A    between atoms: C7_8  and  O2_9 
REMARK    3  A    between atoms: O2_9  and  C8_10 
REMARK    4  A    between atoms: C15_17  and  C16_18 
REMARK    5  A    between atoms: C16_18  and  C17_19 
REMARK    6  A    between atoms: C17_19  and  C18_20 
REMARK    7  A    between atoms: C18_20  and  C19_21 
REMARK    8  A    between atoms: C19_21  and  C20_22 
ROOT
HETATM    1  C8  UNL     1      26.134  -0.257  53.119  1.00  0.00     0.159 C 
HETATM    2  C9  UNL     1      26.814  -1.179  52.130  1.00  0.00     0.041 C 
HETATM    3  C10 UNL     1      27.796  -2.108  52.793  1.00  0.00     0.030 C 
HETATM    4  C11 UNL     1      28.910  -1.414  53.436  1.00  0.00    -0.026 C 
HETATM    5  C12 UNL     1      29.098  -0.140  53.728  1.00  0.00     0.003 C 
HETATM    6  C13 UNL     1      28.174   0.948  53.459  1.00  0.00    -0.057 C 
HETATM    7  C14 UNL     1      28.725   2.333  53.476  1.00  0.00     0.048 C 
HETATM    8  C15 UNL     1      26.893   1.059  53.185  1.00  0.00    -0.034 C 
ENDROOT
BRANCH   8   9
HETATM    9  C16 UNL     1      25.969   2.121  52.925  1.00  0.00     0.131 C 
BRANCH   9  10
HETATM   10  C17 UNL     1      25.982   2.839  51.699  1.00  0.00    -0.098 C 
BRANCH  10  11
HETATM   11  C18 UNL     1      25.994   3.471  50.660  1.00  0.00    -0.077 C 
BRANCH  11  12
HETATM   12  C19 UNL     1      26.024   4.226  49.444  1.00  0.00     0.089 C 
BRANCH  12  13
HETATM   13  C20 UNL     1      26.293   5.514  49.387  1.00  0.00     0.084 C 
HETATM   14  S1  UNL     1      25.255   6.854  49.998  1.00  0.00    -0.046 SA
HETATM   15  C21 UNL     1      26.561   8.111  49.942  1.00  0.00     0.167 C 
HETATM   16  N1  UNL     1      26.555   9.264  50.511  1.00  0.00    -0.278 NA
HETATM   17  N2  UNL     1      27.589   7.548  49.136  1.00  0.00    -0.301 N 
HETATM   18  H21 UNL     1      25.719   9.533  51.075  1.00  0.00     0.189 HD
HETATM   19  C22 UNL     1      27.467   6.181  48.832  1.00  0.00     0.265 C 
HETATM   20  H22 UNL     1      28.378   8.148  48.806  1.00  0.00     0.171 HD
HETATM   21  O3  UNL     1      28.283   5.523  48.134  1.00  0.00    -0.267 OA
ENDBRANCH  12  13
ENDBRANCH  11  12
ENDBRANCH  10  11
ENDBRANCH   9  10
ENDBRANCH   8   9
BRANCH   1  22
HETATM   22  O2  UNL     1      24.836  -0.035  52.651  1.00  0.00    -0.339 OA
BRANCH  22  23
HETATM   23  C7  UNL     1      23.709  -0.251  53.396  1.00  0.00     0.102 A 
HETATM   24  C2  UNL     1      22.625   0.496  52.916  1.00  0.00     0.101 A 
HETATM   25  C3  UNL     1      21.387   0.394  53.562  1.00  0.00     0.039 A 
HETATM   26  C4  UNL     1      21.177  -0.424  54.675  1.00  0.00     0.003 A 
HETATM   27  C5  UNL     1      22.261  -1.144  55.122  1.00  0.00     0.003 A 
HETATM   28  C6  UNL     1      23.465  -1.036  54.482  1.00  0.00     0.040 A 
BRANCH  24  29
HETATM   29  O1  UNL     1      22.697   1.358  51.804  1.00  0.00    -0.353 OA
HETATM   30  C1  UNL     1      22.221   2.662  51.975  1.00  0.00     0.210 C 
ENDBRANCH  24  29
ENDBRANCH  22  23
ENDBRANCH   1  22
TORSDOF 8
ENDMDL
MODEL 3
REMARK VINA RESULT:      -8.3      3.574      6.515
REMARK  8 active torsions:
REMARK  status: ('A' for Active; 'I' for Inactive)
REMARK    1  A    between atoms: O1_2  and  C2_3 
REMARK    2  A    between atoms: C7_8  and  O2_9 
REMARK    3  A    between atoms: O2_9  and  C8_10 
REMARK    4  A    between atoms: C15_17  and  C16_18 
REMARK    5  A    between atoms: C16_18  and  C17_19 
REMARK    6  A    between atoms: C17_19  and  C18_20 
REMARK    7  A    between atoms: C18_20  and  C19_21 
REMARK    8  A    between atoms: C19_21  and  C20_22 
ROOT
HETATM    1  C8  UNL     1      22.752   3.369  49.999  1.00  0.00     0.159 C 
HETATM    2  C9  UNL     1      23.225   2.905  48.638  1.00  0.00     0.041 C 
HETATM    3  C10 UNL     1      22.148   3.010  47.590  1.00  0.00     0.030 C 
HETATM    4  C11 UNL     1      20.991   2.158  47.858  1.00  0.00    -0.026 C 
HETATM    5  C12 UNL     1      20.623   1.494  48.938  1.00  0.00     0.003 C 
HETATM    6  C13 UNL     1      21.335   1.450  50.204  1.00  0.00    -0.057 C 
HETATM    7  C14 UNL     1      20.998   0.341  51.140  1.00  0.00     0.048 C 
HETATM    8  C15 UNL     1      22.261   2.171  50.797  1.00  0.00    -0.034 C 
ENDROOT
BRANCH   8   9
HETATM    9  C16 UNL     1      22.965   2.145  52.043  1.00  0.00     0.131 C 
BRANCH   9  10
HETATM   10  C17 UNL     1      24.096   1.308  52.245  1.00  0.00    -0.098 C 
BRANCH  10  11
HETATM   11  C18 UNL     1      25.067   0.593  52.397  1.00  0.00    -0.077 C 
BRANCH  11  12
HETATM   12  C19 UNL     1      26.212  -0.253  52.555  1.00  0.00     0.089 C 
BRANCH  12  13
HETATM   13  C20 UNL     1      27.371   0.161  53.022  1.00  0.00     0.084 C 
HETATM   14  S1  UNL     1      27.932   1.869  53.139  1.00  0.00    -0.046 SA
HETATM   15  C21 UNL     1      29.306   1.513  54.267  1.00  0.00     0.167 C 
HETATM   16  N1  UNL     1      29.972   2.358  54.972  1.00  0.00    -0.278 NA
HETATM   17  N2  UNL     1      29.487   0.104  54.206  1.00  0.00    -0.301 N 
HETATM   18  H21 UNL     1      29.715   3.367  54.907  1.00  0.00     0.189 HD
HETATM   19  C22 UNL     1      28.478  -0.628  53.554  1.00  0.00     0.265 C 
HETATM   20  H22 UNL     1      30.335  -0.331  54.634  1.00  0.00     0.171 HD
HETATM   21  O3  UNL     1      28.476  -1.878  53.408  1.00  0.00    -0.267 OA
ENDBRANCH  12  13
ENDBRANCH  11  12
ENDBRANCH  10  11
ENDBRANCH   9  10
ENDBRANCH   8   9
BRANCH   1  22
HETATM   22  O2  UNL     1      23.848   3.952  50.640  1.00  0.00    -0.339 OA
BRANCH  22  23
HETATM   23  C7  UNL     1      24.975   4.376  49.991  1.00  0.00     0.102 A 
HETATM   24  C2  UNL     1      24.879   5.724  49.622  1.00  0.00     0.101 A 
HETATM   25  C3  UNL     1      25.948   6.325  48.947  1.00  0.00     0.039 A 
HETATM   26  C4  UNL     1      27.120   5.636  48.619  1.00  0.00     0.003 A 
HETATM   27  C5  UNL     1      27.184   4.315  48.995  1.00  0.00     0.003 A 
HETATM   28  C6  UNL     1      26.132   3.740  49.654  1.00  0.00     0.040 A 
BRANCH  24  29
HETATM   29  O1  UNL     1      23.758   6.533  49.890  1.00  0.00    -0.353 OA
HETATM   30  C1  UNL     1      23.890   7.492  50.900  1.00  0.00     0.210 C 
ENDBRANCH  24  29
ENDBRANCH  22  23
ENDBRANCH   1  22
TORSDOF 8
ENDMDL
MODEL 4
REMARK VINA RESULT:      -8.0      3.953      7.119
REMARK  8 active torsions:
REMARK  status: ('A' for Active; 'I' for Inactive)
REMARK    1  A    between atoms: O1_2  and  C2_3 
REMARK    2  A    between atoms: C7_8  and  O2_9 
REMARK    3  A    between atoms: O2_9  and  C8_10 
REMARK    4  A    between atoms: C15_17  and  C16_18 
REMARK    5  A    between atoms: C16_18  and  C17_19 
REMARK    6  A    between atoms: C17_19  and  C18_20 
REMARK    7  A    between atoms: C18_20  and  C19_21 
REMARK    8  A    between atoms: C19_21  and  C20_22 
ROOT
HETATM    1  C8  UNL     1      22.523   3.580  49.981  1.00  0.00     0.159 C 
HETATM    2  C9  UNL     1      23.240   2.948  48.808  1.00  0.00     0.041 C 
HETATM    3  C10 UNL     1      22.285   2.364  47.799  1.00  0.00     0.030 C 
HETATM    4  C11 UNL     1      21.472   1.273  48.332  1.00  0.00    -0.026 C 
HETATM    5  C12 UNL     1      21.265   0.856  49.568  1.00  0.00     0.003 C 
HETATM    6  C13 UNL     1      21.839   1.427  50.774  1.00  0.00    -0.057 C 
HETATM    7  C14 UNL     1      21.825   0.584  52.003  1.00  0.00     0.048 C 
HETATM    8  C15 UNL     1      22.409   2.565  51.107  1.00  0.00    -0.034 C 
ENDROOT
BRANCH   8   9
HETATM    9  C16 UNL     1      22.971   3.143  52.290  1.00  0.00     0.131 C 
BRANCH   9  10
HETATM   10  C17 UNL     1      24.246   2.750  52.780  1.00  0.00    -0.098 C 
BRANCH  10  11
HETATM   11  C18 UNL     1      25.342   2.408  53.180  1.00  0.00    -0.077 C 
BRANCH  11  12
HETATM   12  C19 UNL     1      26.635   2.026  53.661  1.00  0.00     0.089 C 
BRANCH  12  13
HETATM   13  C20 UNL     1      27.049   0.778  53.738  1.00  0.00     0.084 C 
HETATM   14  S1  UNL     1      26.240  -0.667  53.028  1.00  0.00    -0.046 SA
HETATM   15  C21 UNL     1      27.677  -1.759  53.200  1.00  0.00     0.167 C 
HETATM   16  N1  UNL     1      27.861  -2.896  52.627  1.00  0.00    -0.278 NA
HETATM   17  N2  UNL     1      28.552  -1.091  54.100  1.00  0.00    -0.301 N 
HETATM   18  H21 UNL     1      27.119  -3.254  51.987  1.00  0.00     0.189 HD
HETATM   19  C22 UNL     1      28.240   0.248  54.397  1.00  0.00     0.265 C 
HETATM   20  H22 UNL     1      29.374  -1.597  54.499  1.00  0.00     0.171 HD
HETATM   21  O3  UNL     1      28.902   0.988  55.170  1.00  0.00    -0.267 OA
ENDBRANCH  12  13
ENDBRANCH  11  12
ENDBRANCH  10  11
ENDBRANCH   9  10
ENDBRANCH   8   9
BRANCH   1  22
HETATM   22  O2  UNL     1      23.295   4.668  50.398  1.00  0.00    -0.339 OA
BRANCH  22  23
HETATM   23  C7  UNL     1      23.880   5.560  49.542  1.00  0.00     0.102 A 
HETATM   24  C2  UNL     1      25.275   5.423  49.533  1.00  0.00     0.101 A 
HETATM   25  C3  UNL     1      26.038   6.260  48.709  1.00  0.00     0.039 A 
HETATM   26  C4  UNL     1      25.469   7.237  47.887  1.00  0.00     0.003 A 
HETATM   27  C5  UNL     1      24.098   7.346  47.919  1.00  0.00     0.003 A 
HETATM   28  C6  UNL     1      23.365   6.523  48.728  1.00  0.00     0.040 A 
BRANCH  24  29
HETATM   29  O1  UNL     1      25.976   4.480  50.310  1.00  0.00    -0.353 OA
HETATM   30  C1  UNL     1      26.732   3.523  49.625  1.00  0.00     0.210 C 
ENDBRANCH  24  29
ENDBRANCH  22  23
ENDBRANCH   1  22
TORSDOF 8
ENDMDL
MODEL 5
REMARK VINA RESULT:      -8.0      3.759      6.888
REMARK  8 active torsions:
REMARK  status: ('A' for Active; 'I' for Inactive)
REMARK    1  A    between atoms: O1_2  and  C2_3 
REMARK    2  A    between atoms: C7_8  and  O2_9 
REMARK    3  A    between atoms: O2_9  and  C8_10 
REMARK    4  A    between atoms: C15_17  and  C16_18 
REMARK    5  A    between atoms: C16_18  and  C17_19 
REMARK    6  A    between atoms: C17_19  and  C18_20 
REMARK    7  A    between atoms: C18_20  and  C19_21 
REMARK    8  A    between atoms: C19_21  and  C20_22 
ROOT
HETATM    1  C8  UNL     1      21.117   1.622  50.569  1.00  0.00     0.159 C 
HETATM    2  C9  UNL     1      20.130   2.618  50.001  1.00  0.00     0.041 C 
HETATM    3  C10 UNL     1      19.880   2.403  48.531  1.00  0.00     0.030 C 
HETATM    4  C11 UNL     1      21.070   2.592  47.705  1.00  0.00    -0.026 C 
HETATM    5  C12 UNL     1      22.348   2.699  48.020  1.00  0.00     0.003 C 
HETATM    6  C13 UNL     1      22.910   2.649  49.359  1.00  0.00    -0.057 C 
HETATM    7  C14 UNL     1      24.283   3.195  49.545  1.00  0.00     0.048 C 
HETATM    8  C15 UNL     1      22.513   2.224  50.539  1.00  0.00    -0.034 C 
ENDROOT
BRANCH   8   9
HETATM    9  C16 UNL     1      23.056   2.162  51.862  1.00  0.00     0.131 C 
BRANCH   9  10
HETATM   10  C17 UNL     1      24.145   1.307  52.183  1.00  0.00    -0.098 C 
BRANCH  10  11
HETATM   11  C18 UNL     1      25.075   0.582  52.477  1.00  0.00    -0.077 C 
BRANCH  11  12
HETATM   12  C19 UNL     1      26.171  -0.280  52.804  1.00  0.00     0.089 C 
BRANCH  12  13
HETATM   13  C20 UNL     1      27.354   0.151  53.188  1.00  0.00     0.084 C 
HETATM   14  S1  UNL     1      27.892   1.868  53.282  1.00  0.00    -0.046 SA
HETATM   15  C21 UNL     1      29.351   1.526  54.303  1.00  0.00     0.167 C 
HETATM   16  N1  UNL     1      30.052   2.377  54.965  1.00  0.00    -0.278 NA
HETATM   17  N2  UNL     1      29.552   0.121  54.213  1.00  0.00    -0.301 N 
HETATM   18  H21 UNL     1      29.773   3.382  54.931  1.00  0.00     0.189 HD
HETATM   19  C22 UNL     1      28.512  -0.623  53.629  1.00  0.00     0.265 C 
HETATM   20  H22 UNL     1      30.437  -0.302  54.572  1.00  0.00     0.171 HD
HETATM   21  O3  UNL     1      28.520  -1.872  53.470  1.00  0.00    -0.267 OA
ENDBRANCH  12  13
ENDBRANCH  11  12
ENDBRANCH  10  11
ENDBRANCH   9  10
ENDBRANCH   8   9
BRANCH   1  22
HETATM   22  O2  UNL     1      20.736   1.371  51.890  1.00  0.00    -0.339 OA
BRANCH  22  23
HETATM   23  C7  UNL     1      19.808   0.433  52.251  1.00  0.00     0.102 A 
HETATM   24  C2  UNL     1      20.257  -0.347  53.325  1.00  0.00     0.101 A 
HETATM   25  C3  UNL     1      19.429  -1.359  53.827  1.00  0.00     0.039 A 
HETATM   26  C4  UNL     1      18.163  -1.633  53.301  1.00  0.00     0.003 A 
HETATM   27  C5  UNL     1      17.751  -0.850  52.248  1.00  0.00     0.003 A 
HETATM   28  C6  UNL     1      18.570   0.135  51.767  1.00  0.00     0.040 A 
BRANCH  24  29
HETATM   29  O1  UNL     1      21.508  -0.178  53.949  1.00  0.00    -0.353 OA
HETATM   30  C1  UNL     1      22.027  -1.273  54.648  1.00  0.00     0.210 C 
ENDBRANCH  24  29
ENDBRANCH  22  23
ENDBRANCH   1  22
TORSDOF 8
ENDMDL
MODEL 6
REMARK VINA RESULT:      -8.0      3.223      3.694
REMARK  8 active torsions:
REMARK  status: ('A' for Active; 'I' for Inactive)
REMARK    1  A    between atoms: O1_2  and  C2_3 
REMARK    2  A    between atoms: C7_8  and  O2_9 
REMARK    3  A    between atoms: O2_9  and  C8_10 
REMARK    4  A    between atoms: C15_17  and  C16_18 
REMARK    5  A    between atoms: C16_18  and  C17_19 
REMARK    6  A    between atoms: C17_19  and  C18_20 
REMARK    7  A    between atoms: C18_20  and  C19_21 
REMARK    8  A    between atoms: C19_21  and  C20_22 
ROOT
HETATM    1  C8  UNL     1      24.369  -0.466  53.400  1.00  0.00     0.159 C 
HETATM    2  C9  UNL     1      24.208  -0.374  54.902  1.00  0.00     0.041 C 
HETATM    3  C10 UNL     1      23.415  -1.523  55.466  1.00  0.00     0.030 C 
HETATM    4  C11 UNL     1      22.039  -1.576  54.978  1.00  0.00    -0.026 C 
HETATM    5  C12 UNL     1      21.436  -0.946  53.985  1.00  0.00     0.003 C 
HETATM    6  C13 UNL     1      22.045   0.015  53.082  1.00  0.00    -0.057 C 
HETATM    7  C14 UNL     1      21.131   0.910  52.318  1.00  0.00     0.048 C 
HETATM    8  C15 UNL     1      23.269   0.339  52.726  1.00  0.00    -0.034 C 
ENDROOT
BRANCH   8   9
HETATM    9  C16 UNL     1      23.882   1.276  51.835  1.00  0.00     0.131 C 
BRANCH   9  10
HETATM   10  C17 UNL     1      23.635   2.672  51.933  1.00  0.00    -0.098 C 
BRANCH  10  11
HETATM   11  C18 UNL     1      23.410   3.863  52.033  1.00  0.00    -0.077 C 
BRANCH  11  12
HETATM   12  C19 UNL     1      23.135   5.265  52.130  1.00  0.00     0.089 C 
BRANCH  12  13
HETATM   13  C20 UNL     1      22.400   5.930  51.263  1.00  0.00     0.084 C 
HETATM   14  S1  UNL     1      20.911   5.336  50.440  1.00  0.00    -0.046 SA
HETATM   15  C21 UNL     1      20.369   6.973  49.881  1.00  0.00     0.167 C 
HETATM   16  N1  UNL     1      19.204   7.299  49.445  1.00  0.00    -0.278 NA
HETATM   17  N2  UNL     1      21.506   7.816  50.028  1.00  0.00    -0.301 N 
HETATM   18  H21 UNL     1      18.469   6.560  49.398  1.00  0.00     0.189 HD
HETATM   19  C22 UNL     1      22.587   7.285  50.754  1.00  0.00     0.265 C 
HETATM   20  H22 UNL     1      21.503   8.772  49.608  1.00  0.00     0.171 HD
HETATM   21  O3  UNL     1      23.668   7.890  50.981  1.00  0.00    -0.267 OA
ENDBRANCH  12  13
ENDBRANCH  11  12
ENDBRANCH  10  11
ENDBRANCH   9  10
ENDBRANCH   8   9
BRANCH   1  22
HETATM   22  O2  UNL     1      25.617   0.076  53.085  1.00  0.00    -0.339 OA
BRANCH  22  23
HETATM   23  C7  UNL     1      26.789  -0.628  53.131  1.00  0.00     0.102 A 
HETATM   24  C2  UNL     1      27.829   0.140  53.671  1.00  0.00     0.101 A 
HETATM   25  C3  UNL     1      29.104  -0.427  53.793  1.00  0.00     0.039 A 
HETATM   26  C4  UNL     1      29.392  -1.737  53.398  1.00  0.00     0.003 A 
HETATM   27  C5  UNL     1      28.350  -2.464  52.872  1.00  0.00     0.003 A 
HETATM   28  C6  UNL     1      27.110  -1.898  52.758  1.00  0.00     0.040 A 
BRANCH  24  29
HETATM   29  O1  UNL     1      27.677   1.470  54.109  1.00  0.00    -0.353 OA
HETATM   30  C1  UNL     1      28.632   2.397  53.678  1.00  0.00     0.210 C 
ENDBRANCH  24  29
ENDBRANCH  22  23
ENDBRANCH   1  22
TORSDOF 8
ENDMDL
MODEL 7
REMARK VINA RESULT:      -7.9      2.782      3.886
REMARK  8 active torsions:
REMARK  status: ('A' for Active; 'I' for Inactive)
REMARK    1  A    between atoms: O1_2  and  C2_3 
REMARK    2  A    between atoms: C7_8  and  O2_9 
REMARK    3  A    between atoms: O2_9  and  C8_10 
REMARK    4  A    between atoms: C15_17  and  C16_18 
REMARK    5  A    between atoms: C16_18  and  C17_19 
REMARK    6  A    between atoms: C17_19  and  C18_20 
REMARK    7  A    between atoms: C18_20  and  C19_21 
REMARK    8  A    between atoms: C19_21  and  C20_22 
ROOT
HETATM    1  C8  UNL     1      22.079   0.246  52.045  1.00  0.00     0.159 C 
HETATM    2  C9  UNL     1      21.659   0.939  53.323  1.00  0.00     0.041 C 
HETATM    3  C10 UNL     1      20.753   0.083  54.168  1.00  0.00     0.030 C 
HETATM    4  C11 UNL     1      19.483  -0.237  53.520  1.00  0.00    -0.026 C 
HETATM    5  C12 UNL     1      19.079  -0.103  52.269  1.00  0.00     0.003 C 
HETATM    6  C13 UNL     1      19.860   0.432  51.167  1.00  0.00    -0.057 C 
HETATM    7  C14 UNL     1      19.115   0.885  49.958  1.00  0.00     0.048 C 
HETATM    8  C15 UNL     1      21.135   0.644  50.922  1.00  0.00    -0.034 C 
ENDROOT
BRANCH   8   9
HETATM    9  C16 UNL     1      21.917   1.162  49.842  1.00  0.00     0.131 C 
BRANCH   9  10
HETATM   10  C17 UNL     1      22.077   2.560  49.639  1.00  0.00    -0.098 C 
BRANCH  10  11
HETATM   11  C18 UNL     1      22.195   3.756  49.457  1.00  0.00    -0.077 C 
BRANCH  11  12
HETATM   12  C19 UNL     1      22.347   5.166  49.261  1.00  0.00     0.089 C 
BRANCH  12  13
HETATM   13  C20 UNL     1      23.216   5.908  49.916  1.00  0.00     0.084 C 
HETATM   14  S1  UNL     1      25.011   5.767  49.852  1.00  0.00    -0.046 SA
HETATM   15  C21 UNL     1      25.329   7.383  50.610  1.00  0.00     0.167 C 
HETATM   16  N1  UNL     1      26.438   8.033  50.617  1.00  0.00    -0.278 NA
HETATM   17  N2  UNL     1      24.091   7.776  51.192  1.00  0.00    -0.301 N 
HETATM   18  H21 UNL     1      27.264   7.608  50.142  1.00  0.00     0.189 HD
HETATM   19  C22 UNL     1      22.965   7.012  50.839  1.00  0.00     0.265 C 
HETATM   20  H22 UNL     1      24.057   8.593  51.841  1.00  0.00     0.171 HD
HETATM   21  O3  UNL     1      21.795   7.217  51.258  1.00  0.00    -0.267 OA
ENDBRANCH  12  13
ENDBRANCH  11  12
ENDBRANCH  10  11
ENDBRANCH   9  10
ENDBRANCH   8   9
BRANCH   1  22
HETATM   22  O2  UNL     1      23.377   0.674  51.751  1.00  0.00    -0.339 OA
BRANCH  22  23
HETATM   23  C7  UNL     1      24.414   0.636  52.642  1.00  0.00     0.102 A 
HETATM   24  C2  UNL     1      24.949   1.912  52.862  1.00  0.00     0.101 A 
HETATM   25  C3  UNL     1      26.022   2.059  53.750  1.00  0.00     0.039 A 
HETATM   26  C4  UNL     1      26.590   0.981  54.435  1.00  0.00     0.003 A 
HETATM   27  C5  UNL     1      26.042  -0.258  54.198  1.00  0.00     0.003 A 
HETATM   28  C6  UNL     1      24.995  -0.387  53.328  1.00  0.00     0.040 A 
BRANCH  24  29
HETATM   29  O1  UNL     1      24.472   3.082  52.239  1.00  0.00    -0.353 OA
HETATM   30  C1  UNL     1      23.836   4.025  53.053  1.00  0.00     0.210 C 
ENDBRANCH  24  29
ENDBRANCH  22  23
ENDBRANCH   1  22
TORSDOF 8
ENDMDL
MODEL 8
REMARK VINA RESULT:      -7.8      3.849      7.029
REMARK  8 active torsions:
REMARK  status: ('A' for Active; 'I' for Inactive)
REMARK    1  A    between atoms: O1_2  and  C2_3 
REMARK    2  A    between atoms: C7_8  and  O2_9 
REMARK    3  A    between atoms: O2_9  and  C8_10 
REMARK    4  A    between atoms: C15_17  and  C16_18 
REMARK    5  A    between atoms: C16_18  and  C17_19 
REMARK    6  A    between atoms: C17_19  and  C18_20 
REMARK    7  A    between atoms: C18_20  and  C19_21 
REMARK    8  A    between atoms: C19_21  and  C20_22 
ROOT
HETATM    1  C8  UNL     1      20.412   1.616  51.876  1.00  0.00     0.159 C 
HETATM    2  C9  UNL     1      19.938   0.589  50.871  1.00  0.00     0.041 C 
HETATM    3  C10 UNL     1      18.553   0.083  51.179  1.00  0.00     0.030 C 
HETATM    4  C11 UNL     1      18.462  -0.622  52.456  1.00  0.00    -0.026 C 
HETATM    5  C12 UNL     1      19.301  -0.704  53.474  1.00  0.00     0.003 C 
HETATM    6  C13 UNL     1      20.603  -0.068  53.567  1.00  0.00    -0.057 C 
HETATM    7  C14 UNL     1      21.555  -0.605  54.580  1.00  0.00     0.048 C 
HETATM    8  C15 UNL     1      21.221   0.922  52.961  1.00  0.00    -0.034 C 
ENDROOT
BRANCH   8   9
HETATM    9  C16 UNL     1      22.498   1.563  53.047  1.00  0.00     0.131 C 
BRANCH   9  10
HETATM   10  C17 UNL     1      23.710   0.837  52.894  1.00  0.00    -0.098 C 
BRANCH  10  11
HETATM   11  C18 UNL     1      24.755   0.227  52.779  1.00  0.00    -0.077 C 
BRANCH  11  12
HETATM   12  C19 UNL     1      25.989  -0.491  52.666  1.00  0.00     0.089 C 
BRANCH  12  13
HETATM   13  C20 UNL     1      27.156  -0.004  53.031  1.00  0.00     0.084 C 
HETATM   14  S1  UNL     1      27.619   1.736  53.103  1.00  0.00    -0.046 SA
HETATM   15  C21 UNL     1      29.104   1.469  54.108  1.00  0.00     0.167 C 
HETATM   16  N1  UNL     1      29.775   2.356  54.754  1.00  0.00    -0.278 NA
HETATM   17  N2  UNL     1      29.366   0.073  54.028  1.00  0.00    -0.301 N 
HETATM   18  H21 UNL     1      29.452   3.346  54.714  1.00  0.00     0.189 HD
HETATM   19  C22 UNL     1      28.352  -0.722  53.464  1.00  0.00     0.265 C 
HETATM   20  H22 UNL     1      30.273  -0.308  54.380  1.00  0.00     0.171 HD
HETATM   21  O3  UNL     1      28.414  -1.971  53.316  1.00  0.00    -0.267 OA
ENDBRANCH  12  13
ENDBRANCH  11  12
ENDBRANCH  10  11
ENDBRANCH   9  10
ENDBRANCH   8   9
BRANCH   1  22
HETATM   22  O2  UNL     1      21.221   2.525  51.187  1.00  0.00    -0.339 OA
BRANCH  22  23
HETATM   23  C7  UNL     1      20.774   3.717  50.688  1.00  0.00     0.102 A 
HETATM   24  C2  UNL     1      21.797   4.674  50.653  1.00  0.00     0.101 A 
HETATM   25  C3  UNL     1      21.515   5.957  50.167  1.00  0.00     0.039 A 
HETATM   26  C4  UNL     1      20.248   6.333  49.711  1.00  0.00     0.003 A 
HETATM   27  C5  UNL     1      19.266   5.371  49.759  1.00  0.00     0.003 A 
HETATM   28  C6  UNL     1      19.555   4.122  50.236  1.00  0.00     0.040 A 
BRANCH  24  29
HETATM   29  O1  UNL     1      23.117   4.429  51.080  1.00  0.00    -0.353 OA
HETATM   30  C1  UNL     1      23.570   5.143  52.194  1.00  0.00     0.210 C 
ENDBRANCH  24  29
ENDBRANCH  22  23
ENDBRANCH   1  22
TORSDOF 8
ENDMDL
MODEL 9
REMARK VINA RESULT:      -7.7      2.885      3.217
REMARK  8 active torsions:
REMARK  status: ('A' for Active; 'I' for Inactive)
REMARK    1  A    between atoms: O1_2  and  C2_3 
REMARK    2  A    between atoms: C7_8  and  O2_9 
REMARK    3  A    between atoms: O2_9  and  C8_10 
REMARK    4  A    between atoms: C15_17  and  C16_18 
REMARK    5  A    between atoms: C16_18  and  C17_19 
REMARK    6  A    between atoms: C17_19  and  C18_20 
REMARK    7  A    between atoms: C18_20  and  C19_21 
REMARK    8  A    between atoms: C19_21  and  C20_22 
ROOT
HETATM    1  C8  UNL     1      24.436  -0.313  53.390  1.00  0.00     0.159 C 
HETATM    2  C9  UNL     1      24.407  -0.475  54.894  1.00  0.00     0.041 C 
HETATM    3  C10 UNL     1      23.542  -1.628  55.331  1.00  0.00     0.030 C 
HETATM    4  C11 UNL     1      22.134  -1.465  54.978  1.00  0.00    -0.026 C 
HETATM    5  C12 UNL     1      21.525  -0.616  54.170  1.00  0.00     0.003 C 
HETATM    6  C13 UNL     1      22.160   0.430  53.387  1.00  0.00    -0.057 C 
HETATM    7  C14 UNL     1      21.289   1.527  52.878  1.00  0.00     0.048 C 
HETATM    8  C15 UNL     1      23.379   0.697  52.972  1.00  0.00    -0.034 C 
ENDROOT
BRANCH   8   9
HETATM    9  C16 UNL     1      24.017   1.717  52.196  1.00  0.00     0.131 C 
BRANCH   9  10
HETATM   10  C17 UNL     1      23.556   2.066  50.898  1.00  0.00    -0.098 C 
BRANCH  10  11
HETATM   11  C18 UNL     1      23.150   2.348  49.787  1.00  0.00    -0.077 C 
BRANCH  11  12
HETATM   12  C19 UNL     1      22.693   2.683  48.472  1.00  0.00     0.089 C 
BRANCH  12  13
HETATM   13  C20 UNL     1      22.618   3.914  48.013  1.00  0.00     0.084 C 
HETATM   14  S1  UNL     1      23.229   5.402  48.826  1.00  0.00    -0.046 SA
HETATM   15  C21 UNL     1      23.140   6.445  47.345  1.00  0.00     0.167 C 
HETATM   16  N1  UNL     1      23.697   7.591  47.168  1.00  0.00    -0.278 NA
HETATM   17  N2  UNL     1      22.326   5.726  46.427  1.00  0.00    -0.301 N 
HETATM   18  H21 UNL     1      24.270   7.988  47.944  1.00  0.00     0.189 HD
HETATM   19  C22 UNL     1      22.039   4.390  46.760  1.00  0.00     0.265 C 
HETATM   20  H22 UNL     1      21.978   6.196  45.562  1.00  0.00     0.171 HD
HETATM   21  O3  UNL     1      21.336   3.610  46.065  1.00  0.00    -0.267 OA
ENDBRANCH  12  13
ENDBRANCH  11  12
ENDBRANCH  10  11
ENDBRANCH   9  10
ENDBRANCH   8   9
BRANCH   1  22
HETATM   22  O2  UNL     1      25.706   0.158  53.049  1.00  0.00    -0.339 OA
BRANCH  22  23
HETATM   23  C7  UNL     1      26.842  -0.602  53.102  1.00  0.00     0.102 A 
HETATM   24  C2  UNL     1      27.895   0.089  53.716  1.00  0.00     0.101 A 
HETATM   25  C3  UNL     1      29.137  -0.543  53.856  1.00  0.00     0.039 A 
HETATM   26  C4  UNL     1      29.380  -1.844  53.407  1.00  0.00     0.003 A 
HETATM   27  C5  UNL     1      28.326  -2.496  52.809  1.00  0.00     0.003 A 
HETATM   28  C6  UNL     1      27.119  -1.867  52.679  1.00  0.00     0.040 A 
BRANCH  24  29
HETATM   29  O1  UNL     1      27.787   1.402  54.214  1.00  0.00    -0.353 OA
HETATM   30  C1  UNL     1      28.519   2.397  53.556  1.00  0.00     0.210 C 
ENDBRANCH  24  29
ENDBRANCH  22  23
ENDBRANCH   1  22
TORSDOF 8
ENDMDL
