MODEL 1
REMARK VINA RESULT:      -7.0      0.000      0.000
REMARK  7 active torsions:
REMARK  status: ('A' for Active; 'I' for Inactive)
REMARK    1  A    between atoms: C2_2  and  C3_3 
REMARK    2  A    between atoms: C3_3  and  N1_4 
REMARK    3  A    between atoms: N1_4  and  C4_5 
REMARK    4  A    between atoms: C7_8  and  O1_9 
REMARK    5  A    between atoms: O1_9  and  C8_10 
REMARK    6  A    between atoms: C10_14  and  N4_15 
REMARK    7  A    between atoms: C16_22  and  C17_23 
ROOT
HETATM    1  C8  UNL     1      22.807   2.534  51.331  1.00  0.00     0.188 A 
HETATM    2  N2  UNL     1      23.029   1.896  50.169  1.00  0.00    -0.217 NA
HETATM    3  C9  UNL     1      23.062   2.592  49.002  1.00  0.00     0.238 A 
HETATM    4  N3  UNL     1      22.869   3.937  49.016  1.00  0.00    -0.223 NA
HETATM    5  C10 UNL     1      22.642   4.611  50.181  1.00  0.00     0.149 A 
HETATM    6  C16 UNL     1      22.609   3.898  51.360  1.00  0.00     0.101 A 
ENDROOT
BRANCH   1   7
HETATM    7  O1  UNL     1      22.749   1.935  52.585  1.00  0.00    -0.291 OA
BRANCH   7   8
HETATM    8  C7  UNL     1      23.952   1.467  53.101  1.00  0.00     0.078 A 
HETATM    9  C6  UNL     1      25.091   2.174  53.395  1.00  0.00     0.039 A 
HETATM   10  C5  UNL     1      26.200   1.538  53.905  1.00  0.00     0.032 A 
HETATM   11  C4  UNL     1      26.205   0.183  54.138  1.00  0.00     0.028 A 
HETATM   12  C19 UNL     1      25.053  -0.531  53.841  1.00  0.00     0.032 A 
HETATM   13  C18 UNL     1      23.917   0.093  53.322  1.00  0.00     0.039 A 
BRANCH  11  14
HETATM   14  N1  UNL     1      27.350  -0.481  54.666  1.00  0.00    -0.386 N 
HETATM   15  H6  UNL     1      27.245  -1.474  54.969  1.00  0.00     0.160 HD
BRANCH  14  16
HETATM   16  C3  UNL     1      28.605   0.236  54.764  1.00  0.00     0.146 C 
BRANCH  16  17
HETATM   17  C2  UNL     1      29.501  -0.279  53.697  1.00  0.00    -0.018 C 
HETATM   18  C1  UNL     1      29.354  -1.551  53.343  1.00  0.00     0.008 C 
ENDBRANCH  16  17
ENDBRANCH  14  16
ENDBRANCH  11  14
ENDBRANCH   7   8
ENDBRANCH   1   7
BRANCH   6  19
HETATM   19  C17 UNL     1      22.358   4.746  52.517  1.00  0.00     0.278 C 
HETATM   20  O2  UNL     1      23.448   5.147  53.030  1.00  0.00    -0.301 OA
ENDBRANCH   6  19
BRANCH   5  21
HETATM   21  N4  UNL     1      22.474   5.994  49.910  1.00  0.00    -0.336 N 
HETATM   22  C11 UNL     1      23.678   6.725  49.663  1.00  0.00     0.112 A 
HETATM   23  C12 UNL     1      23.659   8.022  49.394  1.00  0.00     0.026 A 
HETATM   24 BR1  UNL     1      25.274   8.983  49.066  1.00  0.00    -0.050 Br
HETATM   25  C13 UNL     1      22.425   8.779  49.336  1.00  0.00     0.018 A 
HETATM   26  C14 UNL     1      21.303   8.083  49.571  1.00  0.00    -0.005 A 
HETATM   27  C15 UNL     1      21.192   6.640  49.881  1.00  0.00     0.157 A 
ENDBRANCH   5  21
TORSDOF 7
ENDMDL
MODEL 2
REMARK VINA RESULT:      -7.0      3.905      7.439
REMARK  7 active torsions:
REMARK  status: ('A' for Active; 'I' for Inactive)
REMARK    1  A    between atoms: C2_2  and  C3_3 
REMARK    2  A    between atoms: C3_3  and  N1_4 
REMARK    3  A    between atoms: N1_4  and  C4_5 
REMARK    4  A    between atoms: C7_8  and  O1_9 
REMARK    5  A    between atoms: O1_9  and  C8_10 
REMARK    6  A    between atoms: C10_14  and  N4_15 
REMARK    7  A    between atoms: C16_22  and  C17_23 
ROOT
HETATM    1  C8  UNL     1      24.374   3.384  51.060  1.00  0.00     0.188 A 
HETATM    2  N2  UNL     1      24.922   3.637  49.859  1.00  0.00    -0.217 NA
HETATM    3  C9  UNL     1      26.196   3.245  49.592  1.00  0.00     0.238 A 
HETATM    4  N3  UNL     1      26.914   2.597  50.547  1.00  0.00    -0.223 NA
HETATM    5  C10 UNL     1      26.383   2.327  51.776  1.00  0.00     0.149 A 
HETATM    6  C16 UNL     1      25.090   2.728  52.038  1.00  0.00     0.101 A 
ENDROOT
BRANCH   1   7
HETATM    7  O1  UNL     1      23.086   3.734  51.451  1.00  0.00    -0.291 OA
BRANCH   7   8
HETATM    8  C7  UNL     1      22.144   2.712  51.457  1.00  0.00     0.078 A 
HETATM    9  C6  UNL     1      22.102   1.581  50.681  1.00  0.00     0.039 A 
HETATM   10  C5  UNL     1      21.083   0.667  50.825  1.00  0.00     0.032 A 
HETATM   11  C4  UNL     1      20.079   0.854  51.745  1.00  0.00     0.028 A 
HETATM   12  C19 UNL     1      20.121   1.997  52.529  1.00  0.00     0.032 A 
HETATM   13  C18 UNL     1      21.146   2.938  52.400  1.00  0.00     0.039 A 
BRANCH  11  14
HETATM   14  N1  UNL     1      19.020  -0.089  51.899  1.00  0.00    -0.386 N 
HETATM   15  H6  UNL     1      18.381  -0.245  51.090  1.00  0.00     0.160 HD
BRANCH  14  16
HETATM   16  C3  UNL     1      18.872  -0.789  53.159  1.00  0.00     0.146 C 
BRANCH  16  17
HETATM   17  C2  UNL     1      17.682  -1.670  53.045  1.00  0.00    -0.018 C 
HETATM   18  C1  UNL     1      17.727  -2.836  53.681  1.00  0.00     0.008 C 
ENDBRANCH  16  17
ENDBRANCH  14  16
ENDBRANCH  11  14
ENDBRANCH   7   8
ENDBRANCH   1   7
BRANCH   6  19
HETATM   19  C17 UNL     1      24.659   2.373  53.383  1.00  0.00     0.278 C 
HETATM   20  O2  UNL     1      24.202   1.189  53.416  1.00  0.00    -0.301 OA
ENDBRANCH   6  19
BRANCH   5  21
HETATM   21  N4  UNL     1      27.339   1.647  52.573  1.00  0.00    -0.336 N 
HETATM   22  C11 UNL     1      27.348   0.223  52.448  1.00  0.00     0.112 A 
HETATM   23  C12 UNL     1      28.196  -0.528  53.135  1.00  0.00     0.026 A 
HETATM   24 BR1  UNL     1      28.195  -2.427  52.957  1.00  0.00    -0.050 Br
HETATM   25  C13 UNL     1      29.160   0.041  54.055  1.00  0.00     0.018 A 
HETATM   26  C14 UNL     1      29.142   1.378  54.165  1.00  0.00    -0.005 A 
HETATM   27  C15 UNL     1      28.249   2.323  53.456  1.00  0.00     0.157 A 
ENDBRANCH   5  21
TORSDOF 7
ENDMDL
MODEL 3
REMARK VINA RESULT:      -7.0      4.190      5.412
REMARK  7 active torsions:
REMARK  status: ('A' for Active; 'I' for Inactive)
REMARK    1  A    between atoms: C2_2  and  C3_3 
REMARK    2  A    between atoms: C3_3  and  N1_4 
REMARK    3  A    between atoms: N1_4  and  C4_5 
REMARK    4  A    between atoms: C7_8  and  O1_9 
REMARK    5  A    between atoms: O1_9  and  C8_10 
REMARK    6  A    between atoms: C10_14  and  N4_15 
REMARK    7  A    between atoms: C16_22  and  C17_23 
ROOT
HETATM    1  C8  UNL     1      22.343   2.115  51.118  1.00  0.00     0.188 A 
HETATM    2  N2  UNL     1      22.773   1.872  49.868  1.00  0.00    -0.217 NA
HETATM    3  C9  UNL     1      21.923   1.363  48.938  1.00  0.00     0.238 A 
HETATM    4  N3  UNL     1      20.634   1.099  49.279  1.00  0.00    -0.223 NA
HETATM    5  C10 UNL     1      20.169   1.336  50.540  1.00  0.00     0.149 A 
HETATM    6  C16 UNL     1      21.038   1.852  51.477  1.00  0.00     0.101 A 
ENDROOT
BRANCH   1   7
HETATM    7  O1  UNL     1      23.113   2.633  52.153  1.00  0.00    -0.291 OA
BRANCH   7   8
HETATM    8  C7  UNL     1      24.037   1.768  52.728  1.00  0.00     0.078 A 
HETATM    9  C6  UNL     1      23.963   0.404  52.865  1.00  0.00     0.039 A 
HETATM   10  C5  UNL     1      24.983  -0.298  53.467  1.00  0.00     0.032 A 
HETATM   11  C4  UNL     1      26.103   0.338  53.948  1.00  0.00     0.028 A 
HETATM   12  C19 UNL     1      26.177   1.716  53.809  1.00  0.00     0.032 A 
HETATM   13  C18 UNL     1      25.154   2.448  53.202  1.00  0.00     0.039 A 
BRANCH  11  14
HETATM   14  N1  UNL     1      27.162  -0.383  54.572  1.00  0.00    -0.386 N 
HETATM   15  H6  UNL     1      26.987  -1.375  54.843  1.00  0.00     0.160 HD
BRANCH  14  16
HETATM   16  C3  UNL     1      28.430   0.279  54.806  1.00  0.00     0.146 C 
BRANCH  16  17
HETATM   17  C2  UNL     1      29.369  -0.163  53.743  1.00  0.00    -0.018 C 
HETATM   18  C1  UNL     1      29.358  -1.451  53.421  1.00  0.00     0.008 C 
ENDBRANCH  16  17
ENDBRANCH  14  16
ENDBRANCH  11  14
ENDBRANCH   7   8
ENDBRANCH   1   7
BRANCH   6  19
HETATM   19  C17 UNL     1      20.405   2.054  52.774  1.00  0.00     0.278 C 
HETATM   20  O2  UNL     1      19.899   3.215  52.857  1.00  0.00    -0.301 OA
ENDBRANCH   6  19
BRANCH   5  21
HETATM   21  N4  UNL     1      18.800   0.974  50.623  1.00  0.00    -0.336 N 
HETATM   22  C11 UNL     1      18.499  -0.105  51.511  1.00  0.00     0.112 A 
HETATM   23  C12 UNL     1      17.258  -0.537  51.682  1.00  0.00     0.026 A 
HETATM   24 BR1  UNL     1      16.873  -1.979  52.871  1.00  0.00    -0.050 Br
HETATM   25  C13 UNL     1      16.134   0.051  50.983  1.00  0.00     0.018 A 
HETATM   26  C14 UNL     1      16.428   1.062  50.152  1.00  0.00    -0.005 A 
HETATM   27  C15 UNL     1      17.765   1.633  49.875  1.00  0.00     0.157 A 
ENDBRANCH   5  21
TORSDOF 7
ENDMDL
MODEL 4
REMARK VINA RESULT:      -7.0      1.879      2.589
REMARK  7 active torsions:
REMARK  status: ('A' for Active; 'I' for Inactive)
REMARK    1  A    between atoms: C2_2  and  C3_3 
REMARK    2  A    between atoms: C3_3  and  N1_4 
REMARK    3  A    between atoms: N1_4  and  C4_5 
REMARK    4  A    between atoms: C7_8  and  O1_9 
REMARK    5  A    between atoms: O1_9  and  C8_10 
REMARK    6  A    between atoms: C10_14  and  N4_15 
REMARK    7  A    between atoms: C16_22  and  C17_23 
ROOT
HETATM    1  C8  UNL     1      23.493   3.149  51.530  1.00  0.00     0.188 A 
HETATM    2  N2  UNL     1      23.267   3.879  52.636  1.00  0.00    -0.217 NA
HETATM    3  C9  UNL     1      23.355   5.235  52.590  1.00  0.00     0.238 A 
HETATM    4  N3  UNL     1      23.672   5.849  51.420  1.00  0.00    -0.223 NA
HETATM    5  C10 UNL     1      23.906   5.133  50.281  1.00  0.00     0.149 A 
HETATM    6  C16 UNL     1      23.816   3.759  50.337  1.00  0.00     0.101 A 
ENDROOT
BRANCH   1   7
HETATM    7  O1  UNL     1      23.435   1.762  51.450  1.00  0.00    -0.291 OA
BRANCH   7   8
HETATM    8  C7  UNL     1      24.346   1.060  52.230  1.00  0.00     0.078 A 
HETATM    9  C6  UNL     1      24.101   0.239  53.303  1.00  0.00     0.039 A 
HETATM   10  C5  UNL     1      25.138  -0.381  53.964  1.00  0.00     0.032 A 
HETATM   11  C4  UNL     1      26.444  -0.201  53.574  1.00  0.00     0.028 A 
HETATM   12  C19 UNL     1      26.691   0.628  52.491  1.00  0.00     0.032 A 
HETATM   13  C18 UNL     1      25.655   1.268  51.806  1.00  0.00     0.039 A 
BRANCH  11  14
HETATM   14  N1  UNL     1      27.522  -0.841  54.254  1.00  0.00    -0.386 N 
HETATM   15  H6  UNL     1      27.394  -1.833  54.552  1.00  0.00     0.160 HD
BRANCH  14  16
HETATM   16  C3  UNL     1      28.742  -0.101  54.505  1.00  0.00     0.146 C 
BRANCH  16  17
HETATM   17  C2  UNL     1      29.841  -0.788  53.779  1.00  0.00    -0.018 C 
HETATM   18  C1  UNL     1      29.602  -2.019  53.340  1.00  0.00     0.008 C 
ENDBRANCH  16  17
ENDBRANCH  14  16
ENDBRANCH  11  14
ENDBRANCH   7   8
ENDBRANCH   1   7
BRANCH   6  19
HETATM   19  C17 UNL     1      24.090   3.131  49.051  1.00  0.00     0.278 C 
HETATM   20  O2  UNL     1      23.014   2.912  48.414  1.00  0.00    -0.301 OA
ENDBRANCH   6  19
BRANCH   5  21
HETATM   21  N4  UNL     1      24.215   6.016  49.215  1.00  0.00    -0.336 N 
HETATM   22  C11 UNL     1      25.605   6.281  49.014  1.00  0.00     0.112 A 
HETATM   23  C12 UNL     1      26.026   7.084  48.049  1.00  0.00     0.026 A 
HETATM   24 BR1  UNL     1      27.886   7.427  47.795  1.00  0.00    -0.050 Br
HETATM   25  C13 UNL     1      25.111   7.744  47.141  1.00  0.00     0.018 A 
HETATM   26  C14 UNL     1      23.809   7.489  47.339  1.00  0.00    -0.005 A 
HETATM   27  C15 UNL     1      23.215   6.616  48.376  1.00  0.00     0.157 A 
ENDBRANCH   5  21
TORSDOF 7
ENDMDL
MODEL 5
REMARK VINA RESULT:      -6.7      4.588      6.954
REMARK  7 active torsions:
REMARK  status: ('A' for Active; 'I' for Inactive)
REMARK    1  A    between atoms: C2_2  and  C3_3 
REMARK    2  A    between atoms: C3_3  and  N1_4 
REMARK    3  A    between atoms: N1_4  and  C4_5 
REMARK    4  A    between atoms: C7_8  and  O1_9 
REMARK    5  A    between atoms: O1_9  and  C8_10 
REMARK    6  A    between atoms: C10_14  and  N4_15 
REMARK    7  A    between atoms: C16_22  and  C17_23 
ROOT
HETATM    1  C8  UNL     1      22.570   3.372  49.210  1.00  0.00     0.188 A 
HETATM    2  N2  UNL     1      22.584   2.677  48.059  1.00  0.00    -0.217 NA
HETATM    3  C9  UNL     1      21.995   1.454  47.991  1.00  0.00     0.238 A 
HETATM    4  N3  UNL     1      21.392   0.936  49.093  1.00  0.00    -0.223 NA
HETATM    5  C10 UNL     1      21.363   1.619  50.275  1.00  0.00     0.149 A 
HETATM    6  C16 UNL     1      21.963   2.858  50.335  1.00  0.00     0.101 A 
ENDROOT
BRANCH   1   7
HETATM    7  O1  UNL     1      23.136   4.627  49.404  1.00  0.00    -0.291 OA
BRANCH   7   8
HETATM    8  C7  UNL     1      24.517   4.709  49.274  1.00  0.00     0.078 A 
HETATM    9  C6  UNL     1      25.462   3.754  49.558  1.00  0.00     0.039 A 
HETATM   10  C5  UNL     1      26.801   4.012  49.366  1.00  0.00     0.032 A 
HETATM   11  C4  UNL     1      27.235   5.226  48.888  1.00  0.00     0.028 A 
HETATM   12  C19 UNL     1      26.279   6.190  48.602  1.00  0.00     0.032 A 
HETATM   13  C18 UNL     1      24.916   5.951  48.788  1.00  0.00     0.039 A 
BRANCH  11  14
HETATM   14  N1  UNL     1      28.619   5.499  48.687  1.00  0.00    -0.386 N 
HETATM   15  H6  UNL     1      29.312   4.952  49.242  1.00  0.00     0.160 HD
BRANCH  14  16
HETATM   16  C3  UNL     1      29.011   6.516  47.731  1.00  0.00     0.146 C 
BRANCH  16  17
HETATM   17  C2  UNL     1      29.801   7.539  48.462  1.00  0.00    -0.018 C 
HETATM   18  C1  UNL     1      29.153   8.622  48.878  1.00  0.00     0.008 C 
ENDBRANCH  16  17
ENDBRANCH  14  16
ENDBRANCH  11  14
ENDBRANCH   7   8
ENDBRANCH   1   7
BRANCH   6  19
HETATM   19  C17 UNL     1      21.852   3.468  51.654  1.00  0.00     0.278 C 
HETATM   20  O2  UNL     1      20.820   4.202  51.730  1.00  0.00    -0.301 OA
ENDBRANCH   6  19
BRANCH   5  21
HETATM   21  N4  UNL     1      20.677   0.855  51.254  1.00  0.00    -0.336 N 
HETATM   22  C11 UNL     1      21.496   0.290  52.281  1.00  0.00     0.112 A 
HETATM   23  C12 UNL     1      20.978  -0.441  53.257  1.00  0.00     0.026 A 
HETATM   24 BR1  UNL     1      22.083  -1.188  54.621  1.00  0.00    -0.050 Br
HETATM   25  C13 UNL     1      19.558  -0.715  53.345  1.00  0.00     0.018 A 
HETATM   26  C14 UNL     1      18.800  -0.181  52.376  1.00  0.00    -0.005 A 
HETATM   27  C15 UNL     1      19.255   0.649  51.238  1.00  0.00     0.157 A 
ENDBRANCH   5  21
TORSDOF 7
ENDMDL
MODEL 6
REMARK VINA RESULT:      -6.7      4.348      8.016
REMARK  7 active torsions:
REMARK  status: ('A' for Active; 'I' for Inactive)
REMARK    1  A    between atoms: C2_2  and  C3_3 
REMARK    2  A    between atoms: C3_3  and  N1_4 
REMARK    3  A    between atoms: N1_4  and  C4_5 
REMARK    4  A    between atoms: C7_8  and  O1_9 
REMARK    5  A    between atoms: O1_9  and  C8_10 
REMARK    6  A    between atoms: C10_14  and  N4_15 
REMARK    7  A    between atoms: C16_22  and  C17_23 
ROOT
HETATM    1  C8  UNL     1      24.523   4.924  50.538  1.00  0.00     0.188 A 
HETATM    2  N2  UNL     1      23.649   5.545  51.349  1.00  0.00    -0.217 NA
HETATM    3  C9  UNL     1      23.255   4.956  52.509  1.00  0.00     0.238 A 
HETATM    4  N3  UNL     1      23.749   3.735  52.844  1.00  0.00    -0.223 NA
HETATM    5  C10 UNL     1      24.637   3.081  52.039  1.00  0.00     0.149 A 
HETATM    6  C16 UNL     1      25.031   3.686  50.865  1.00  0.00     0.101 A 
ENDROOT
BRANCH   1   7
HETATM    7  O1  UNL     1      25.000   5.423  49.330  1.00  0.00    -0.291 OA
BRANCH   7   8
HETATM    8  C7  UNL     1      25.881   6.494  49.409  1.00  0.00     0.078 A 
HETATM    9  C6  UNL     1      25.798   7.615  50.197  1.00  0.00     0.039 A 
HETATM   10  C5  UNL     1      26.774   8.585  50.144  1.00  0.00     0.032 A 
HETATM   11  C4  UNL     1      27.858   8.465  49.306  1.00  0.00     0.028 A 
HETATM   12  C19 UNL     1      27.941   7.332  48.510  1.00  0.00     0.032 A 
HETATM   13  C18 UNL     1      26.963   6.336  48.548  1.00  0.00     0.039 A 
BRANCH  11  14
HETATM   14  N1  UNL     1      28.872   9.465  49.247  1.00  0.00    -0.386 N 
HETATM   15  H6  UNL     1      28.581  10.464  49.328  1.00  0.00     0.160 HD
BRANCH  14  16
HETATM   16  C3  UNL     1      30.254   9.066  49.077  1.00  0.00     0.146 C 
BRANCH  16  17
HETATM   17  C2  UNL     1      31.006  10.247  48.584  1.00  0.00    -0.018 C 
HETATM   18  C1  UNL     1      30.612  11.440  49.014  1.00  0.00     0.008 C 
ENDBRANCH  16  17
ENDBRANCH  14  16
ENDBRANCH  11  14
ENDBRANCH   7   8
ENDBRANCH   1   7
BRANCH   6  19
HETATM   19  C17 UNL     1      25.979   2.875  50.112  1.00  0.00     0.278 C 
HETATM   20  O2  UNL     1      27.169   3.277  50.299  1.00  0.00    -0.301 OA
ENDBRANCH   6  19
BRANCH   5  21
HETATM   21  N4  UNL     1      24.987   1.836  52.622  1.00  0.00    -0.336 N 
HETATM   22  C11 UNL     1      26.276   1.782  53.237  1.00  0.00     0.112 A 
HETATM   23  C12 UNL     1      26.721   0.679  53.820  1.00  0.00     0.026 A 
HETATM   24 BR1  UNL     1      28.444   0.623  54.637  1.00  0.00    -0.050 Br
HETATM   25  C13 UNL     1      25.935  -0.537  53.870  1.00  0.00     0.018 A 
HETATM   26  C14 UNL     1      24.728  -0.475  53.289  1.00  0.00    -0.005 A 
HETATM   27  C15 UNL     1      24.120   0.690  52.608  1.00  0.00     0.157 A 
ENDBRANCH   5  21
TORSDOF 7
ENDMDL
MODEL 7
REMARK VINA RESULT:      -6.6      3.467      4.531
REMARK  7 active torsions:
REMARK  status: ('A' for Active; 'I' for Inactive)
REMARK    1  A    between atoms: C2_2  and  C3_3 
REMARK    2  A    between atoms: C3_3  and  N1_4 
REMARK    3  A    between atoms: N1_4  and  C4_5 
REMARK    4  A    between atoms: C7_8  and  O1_9 
REMARK    5  A    between atoms: O1_9  and  C8_10 
REMARK    6  A    between atoms: C10_14  and  N4_15 
REMARK    7  A    between atoms: C16_22  and  C17_23 
ROOT
HETATM    1  C8  UNL     1      25.105   5.219  50.141  1.00  0.00     0.188 A 
HETATM    2  N2  UNL     1      24.304   6.033  50.850  1.00  0.00    -0.217 NA
HETATM    3  C9  UNL     1      24.467   7.381  50.783  1.00  0.00     0.238 A 
HETATM    4  N3  UNL     1      25.444   7.901  49.996  1.00  0.00    -0.223 NA
HETATM    5  C10 UNL     1      26.273   7.099  49.265  1.00  0.00     0.149 A 
HETATM    6  C16 UNL     1      26.101   5.733  49.339  1.00  0.00     0.101 A 
ENDROOT
BRANCH   1   7
HETATM    7  O1  UNL     1      25.038   3.830  50.127  1.00  0.00    -0.291 OA
BRANCH   7   8
HETATM    8  C7  UNL     1      25.382   3.183  51.308  1.00  0.00     0.078 A 
HETATM    9  C6  UNL     1      24.637   3.033  52.451  1.00  0.00     0.039 A 
HETATM   10  C5  UNL     1      25.144   2.354  53.536  1.00  0.00     0.032 A 
HETATM   11  C4  UNL     1      26.405   1.805  53.512  1.00  0.00     0.028 A 
HETATM   12  C19 UNL     1      27.157   1.957  52.356  1.00  0.00     0.032 A 
HETATM   13  C18 UNL     1      26.663   2.642  51.244  1.00  0.00     0.039 A 
BRANCH  11  14
HETATM   14  N1  UNL     1      26.936   1.101  54.631  1.00  0.00    -0.386 N 
HETATM   15  H6  UNL     1      26.905   1.567  55.564  1.00  0.00     0.160 HD
BRANCH  14  16
HETATM   16  C3  UNL     1      27.492  -0.223  54.438  1.00  0.00     0.146 C 
BRANCH  16  17
HETATM   17  C2  UNL     1      28.963  -0.123  54.621  1.00  0.00    -0.018 C 
HETATM   18  C1  UNL     1      29.727  -0.500  53.602  1.00  0.00     0.008 C 
ENDBRANCH  16  17
ENDBRANCH  14  16
ENDBRANCH  11  14
ENDBRANCH   7   8
ENDBRANCH   1   7
BRANCH   6  19
HETATM   19  C17 UNL     1      27.052   5.006  48.509  1.00  0.00     0.278 C 
HETATM   20  O2  UNL     1      28.143   4.815  49.128  1.00  0.00    -0.301 OA
ENDBRANCH   6  19
BRANCH   5  21
HETATM   21  N4  UNL     1      27.195   7.895  48.539  1.00  0.00    -0.336 N 
HETATM   22  C11 UNL     1      26.940   8.012  47.137  1.00  0.00     0.112 A 
HETATM   23  C12 UNL     1      27.725   8.731  46.347  1.00  0.00     0.026 A 
HETATM   24 BR1  UNL     1      27.370   8.878  44.478  1.00  0.00    -0.050 Br
HETATM   25  C13 UNL     1      28.886   9.436  46.849  1.00  0.00     0.018 A 
HETATM   26  C14 UNL     1      29.116   9.318  48.165  1.00  0.00    -0.005 A 
HETATM   27  C15 UNL     1      28.319   8.550  49.148  1.00  0.00     0.157 A 
ENDBRANCH   5  21
TORSDOF 7
ENDMDL
MODEL 8
REMARK VINA RESULT:      -6.4      4.409      7.271
REMARK  7 active torsions:
REMARK  status: ('A' for Active; 'I' for Inactive)
REMARK    1  A    between atoms: C2_2  and  C3_3 
REMARK    2  A    between atoms: C3_3  and  N1_4 
REMARK    3  A    between atoms: N1_4  and  C4_5 
REMARK    4  A    between atoms: C7_8  and  O1_9 
REMARK    5  A    between atoms: O1_9  and  C8_10 
REMARK    6  A    between atoms: C10_14  and  N4_15 
REMARK    7  A    between atoms: C16_22  and  C17_23 
ROOT
HETATM    1  C8  UNL     1      23.898   4.692  50.492  1.00  0.00     0.188 A 
HETATM    2  N2  UNL     1      23.893   5.547  51.530  1.00  0.00    -0.217 NA
HETATM    3  C9  UNL     1      23.628   5.098  52.785  1.00  0.00     0.238 A 
HETATM    4  N3  UNL     1      23.367   3.780  52.986  1.00  0.00    -0.223 NA
HETATM    5  C10 UNL     1      23.366   2.889  51.951  1.00  0.00     0.149 A 
HETATM    6  C16 UNL     1      23.635   3.353  50.682  1.00  0.00     0.101 A 
ENDROOT
BRANCH   1   7
HETATM    7  O1  UNL     1      24.154   5.029  49.167  1.00  0.00    -0.291 OA
BRANCH   7   8
HETATM    8  C7  UNL     1      25.460   5.393  48.864  1.00  0.00     0.078 A 
HETATM    9  C6  UNL     1      26.612   4.665  49.027  1.00  0.00     0.039 A 
HETATM   10  C5  UNL     1      27.832   5.190  48.667  1.00  0.00     0.032 A 
HETATM   11  C4  UNL     1      27.939   6.454  48.136  1.00  0.00     0.028 A 
HETATM   12  C19 UNL     1      26.775   7.190  47.972  1.00  0.00     0.032 A 
HETATM   13  C18 UNL     1      25.526   6.677  48.330  1.00  0.00     0.039 A 
BRANCH  11  14
HETATM   14  N1  UNL     1      29.200   7.004  47.761  1.00  0.00    -0.386 N 
HETATM   15  H6  UNL     1      29.227   7.998  47.444  1.00  0.00     0.160 HD
BRANCH  14  16
HETATM   16  C3  UNL     1      30.386   6.175  47.833  1.00  0.00     0.146 C 
BRANCH  16  17
HETATM   17  C2  UNL     1      31.289   6.770  48.851  1.00  0.00    -0.018 C 
HETATM   18  C1  UNL     1      31.837   5.942  49.733  1.00  0.00     0.008 C 
ENDBRANCH  16  17
ENDBRANCH  14  16
ENDBRANCH  11  14
ENDBRANCH   7   8
ENDBRANCH   1   7
BRANCH   6  19
HETATM   19  C17 UNL     1      23.600   2.293  49.682  1.00  0.00     0.278 C 
HETATM   20  O2  UNL     1      22.449   2.203  49.156  1.00  0.00    -0.301 OA
ENDBRANCH   6  19
BRANCH   5  21
HETATM   21  N4  UNL     1      23.065   1.590  52.436  1.00  0.00    -0.336 N 
HETATM   22  C11 UNL     1      21.675   1.261  52.502  1.00  0.00     0.112 A 
HETATM   23  C12 UNL     1      21.262   0.079  52.933  1.00  0.00     0.026 A 
HETATM   24 BR1  UNL     1      19.403  -0.344  53.014  1.00  0.00    -0.050 Br
HETATM   25  C13 UNL     1      22.185  -0.950  53.365  1.00  0.00     0.018 A 
HETATM   26  C14 UNL     1      23.486  -0.631  53.300  1.00  0.00    -0.005 A 
HETATM   27  C15 UNL     1      24.073   0.648  52.841  1.00  0.00     0.157 A 
ENDBRANCH   5  21
TORSDOF 7
ENDMDL
MODEL 9
REMARK VINA RESULT:      -6.4      4.723      6.349
REMARK  7 active torsions:
REMARK  status: ('A' for Active; 'I' for Inactive)
REMARK    1  A    between atoms: C2_2  and  C3_3 
REMARK    2  A    between atoms: C3_3  and  N1_4 
REMARK    3  A    between atoms: N1_4  and  C4_5 
REMARK    4  A    between atoms: C7_8  and  O1_9 
REMARK    5  A    between atoms: O1_9  and  C8_10 
REMARK    6  A    between atoms: C10_14  and  N4_15 
REMARK    7  A    between atoms: C16_22  and  C17_23 
ROOT
HETATM    1  C8  UNL     1      26.690   5.825  49.082  1.00  0.00     0.188 A 
HETATM    2  N2  UNL     1      25.714   6.489  49.724  1.00  0.00    -0.217 NA
HETATM    3  C9  UNL     1      25.815   7.830  49.924  1.00  0.00     0.238 A 
HETATM    4  N3  UNL     1      26.909   8.496  49.471  1.00  0.00    -0.223 NA
HETATM    5  C10 UNL     1      27.916   7.848  48.815  1.00  0.00     0.149 A 
HETATM    6  C16 UNL     1      27.805   6.488  48.618  1.00  0.00     0.101 A 
ENDROOT
BRANCH   1   7
HETATM    7  O1  UNL     1      26.701   4.460  48.818  1.00  0.00    -0.291 OA
BRANCH   7   8
HETATM    8  C7  UNL     1      25.856   3.674  49.592  1.00  0.00     0.078 A 
HETATM    9  C6  UNL     1      24.516   3.432  49.421  1.00  0.00     0.039 A 
HETATM   10  C5  UNL     1      23.831   2.618  50.295  1.00  0.00     0.032 A 
HETATM   11  C4  UNL     1      24.462   2.023  51.362  1.00  0.00     0.028 A 
HETATM   12  C19 UNL     1      25.817   2.268  51.535  1.00  0.00     0.032 A 
HETATM   13  C18 UNL     1      26.531   3.090  50.660  1.00  0.00     0.039 A 
BRANCH  11  14
HETATM   14  N1  UNL     1      23.759   1.179  52.271  1.00  0.00    -0.386 N 
HETATM   15  H6  UNL     1      22.717   1.188  52.242  1.00  0.00     0.160 HD
BRANCH  14  16
HETATM   16  C3  UNL     1      24.508   0.348  53.192  1.00  0.00     0.146 C 
BRANCH  16  17
HETATM   17  C2  UNL     1      23.546  -0.571  53.852  1.00  0.00    -0.018 C 
HETATM   18  C1  UNL     1      22.271  -0.197  53.878  1.00  0.00     0.008 C 
ENDBRANCH  16  17
ENDBRANCH  14  16
ENDBRANCH  11  14
ENDBRANCH   7   8
ENDBRANCH   1   7
BRANCH   6  19
HETATM   19  C17 UNL     1      28.949   5.934  47.905  1.00  0.00     0.278 C 
HETATM   20  O2  UNL     1      29.774   5.406  48.712  1.00  0.00    -0.301 OA
ENDBRANCH   6  19
BRANCH   5  21
HETATM   21  N4  UNL     1      28.929   8.773  48.455  1.00  0.00    -0.336 N 
HETATM   22  C11 UNL     1      28.706   9.491  47.239  1.00  0.00     0.112 A 
HETATM   23  C12 UNL     1      29.574  10.387  46.794  1.00  0.00     0.026 A 
HETATM   24 BR1  UNL     1      29.262  11.337  45.169  1.00  0.00    -0.050 Br
HETATM   25  C13 UNL     1      30.799  10.694  47.505  1.00  0.00     0.018 A 
HETATM   26  C14 UNL     1      30.998  10.014  48.643  1.00  0.00    -0.005 A 
HETATM   27  C15 UNL     1      30.110   8.993  49.244  1.00  0.00     0.157 A 
ENDBRANCH   5  21
TORSDOF 7
ENDMDL
