MODEL 1
REMARK VINA RESULT:      -8.4      0.000      0.000
REMARK  3 active torsions:
REMARK  status: ('A' for Active; 'I' for Inactive)
REMARK    1  A    between atoms: C12_17  and  C13_18 
REMARK    2  A    between atoms: C14_20  and  C15_21 
REMARK    3  A    between atoms: C15_21  and  N4_22 
ROOT
HETATM    1 BR1  UNL     1      27.577  -2.503  52.801  1.00  0.00    -0.049 Br
HETATM    2  C1  UNL     1      27.204  -0.608  53.082  1.00  0.00     0.034 C 
HETATM    3  C2  UNL     1      27.791   0.524  52.590  1.00  0.00     0.003 C 
HETATM    4  C3  UNL     1      26.530   1.356  52.608  1.00  0.00     0.037 C 
HETATM    5  C4  UNL     1      26.217   1.275  54.031  1.00  0.00     0.013 C 
HETATM    6  C5  UNL     1      26.170  -0.079  54.012  1.00  0.00     0.047 C 
HETATM    7  N1  UNL     1      25.220  -0.927  54.714  1.00  0.00    -0.343 N 
HETATM    8  C6  UNL     1      23.820  -0.778  54.372  1.00  0.00     0.108 C 
HETATM    9  N2  UNL     1      23.498   0.059  53.500  1.00  0.00    -0.220 NA
HETATM   10  C7  UNL     1      22.246   0.348  52.938  1.00  0.00     0.124 C 
HETATM   11  N3  UNL     1      21.328  -0.388  53.425  1.00  0.00    -0.275 NA
HETATM   12  C8  UNL     1      21.407  -0.950  54.764  1.00  0.00     0.158 C 
HETATM   13  C9  UNL     1      22.774  -1.586  55.036  1.00  0.00     0.100 C 
HETATM   14  C10 UNL     1      22.774   1.447  52.033  1.00  0.00     0.106 C 
HETATM   15  C11 UNL     1      23.517   2.426  52.876  1.00  0.00     0.175 C 
HETATM   16  O1  UNL     1      24.334   3.335  52.364  1.00  0.00    -0.383 OA
HETATM   17  C12 UNL     1      25.272   3.049  51.443  1.00  0.00     0.153 C 
HETATM   18  C21 UNL     1      26.677   2.728  52.031  1.00  0.00     0.047 C 
HETATM   19  H4  UNL     1      25.573  -1.596  55.403  1.00  0.00     0.167 HD
ENDROOT
BRANCH  17  20
HETATM   20  C13 UNL     1      25.416   4.056  50.384  1.00  0.00     0.181 A 
HETATM   21  O2  UNL     1      25.445   3.469  48.995  1.00  0.00    -0.371 OA
HETATM   22  C14 UNL     1      26.571   4.216  49.544  1.00  0.00     0.181 A 
BRANCH  22  23
HETATM   23  C15 UNL     1      26.748   5.481  48.761  1.00  0.00     0.306 C 
BRANCH  23  24
HETATM   24  N4  UNL     1      25.762   6.474  49.095  1.00  0.00     0.091 N 
HETATM   25  C16 UNL     1      26.292   7.569  49.873  1.00  0.00     0.272 C 
HETATM   26  C17 UNL     1      27.230   8.377  49.032  1.00  0.00     0.030 C 
HETATM   27  C18 UNL     1      26.413   8.985  47.901  1.00  0.00     0.003 C 
HETATM   28  C19 UNL     1      25.729   7.916  47.105  1.00  0.00     0.030 C 
HETATM   29  C20 UNL     1      24.997   6.914  47.958  1.00  0.00     0.272 C 
ENDBRANCH  23  24
ENDBRANCH  22  23
ENDBRANCH  17  20
TORSDOF 3
ENDMDL
MODEL 2
REMARK VINA RESULT:      -8.3      4.511      7.178
REMARK  3 active torsions:
REMARK  status: ('A' for Active; 'I' for Inactive)
REMARK    1  A    between atoms: C12_17  and  C13_18 
REMARK    2  A    between atoms: C14_20  and  C15_21 
REMARK    3  A    between atoms: C15_21  and  N4_22 
ROOT
HETATM    1 BR1  UNL     1      21.506   4.123  46.109  1.00  0.00    -0.049 Br
HETATM    2  C1  UNL     1      21.692   2.812  47.542  1.00  0.00     0.034 C 
HETATM    3  C2  UNL     1      22.789   2.257  48.140  1.00  0.00     0.003 C 
HETATM    4  C3  UNL     1      22.138   2.077  49.491  1.00  0.00     0.037 C 
HETATM    5  C4  UNL     1      21.026   1.216  49.102  1.00  0.00     0.013 C 
HETATM    6  C5  UNL     1      20.555   2.117  48.206  1.00  0.00     0.047 C 
HETATM    7  N1  UNL     1      19.162   2.448  47.952  1.00  0.00    -0.343 N 
HETATM    8  C6  UNL     1      18.402   3.002  49.054  1.00  0.00     0.108 C 
HETATM    9  N2  UNL     1      18.971   3.172  50.155  1.00  0.00    -0.220 NA
HETATM   10  C7  UNL     1      18.497   3.750  51.341  1.00  0.00     0.124 C 
HETATM   11  N3  UNL     1      17.294   4.149  51.225  1.00  0.00    -0.275 NA
HETATM   12  C8  UNL     1      16.358   3.544  50.292  1.00  0.00     0.158 C 
HETATM   13  C9  UNL     1      16.975   3.362  48.902  1.00  0.00     0.100 C 
HETATM   14  C10 UNL     1      19.790   3.525  52.106  1.00  0.00     0.106 C 
HETATM   15  C11 UNL     1      20.144   2.081  52.005  1.00  0.00     0.175 C 
HETATM   16  O1  UNL     1      21.346   1.616  52.312  1.00  0.00    -0.383 OA
HETATM   17  C12 UNL     1      22.488   2.176  51.872  1.00  0.00     0.153 C 
HETATM   18  C21 UNL     1      23.047   1.556  50.559  1.00  0.00     0.047 C 
HETATM   19  H4  UNL     1      18.781   2.289  47.016  1.00  0.00     0.167 HD
ENDROOT
BRANCH  17  20
HETATM   20  C13 UNL     1      23.565   2.231  52.870  1.00  0.00     0.181 A 
HETATM   21  O2  UNL     1      23.979   3.635  53.232  1.00  0.00    -0.371 OA
HETATM   22  C14 UNL     1      24.904   2.689  52.619  1.00  0.00     0.181 A 
BRANCH  22  23
HETATM   23  C15 UNL     1      25.993   2.366  53.597  1.00  0.00     0.306 C 
BRANCH  23  24
HETATM   24  N4  UNL     1      27.204   1.943  52.946  1.00  0.00     0.091 N 
HETATM   25  C16 UNL     1      28.150   1.322  53.844  1.00  0.00     0.272 C 
HETATM   26  C17 UNL     1      27.609   0.008  54.315  1.00  0.00     0.030 C 
HETATM   27  C18 UNL     1      27.489  -0.895  53.096  1.00  0.00     0.003 C 
HETATM   28  C19 UNL     1      26.611  -0.270  52.056  1.00  0.00     0.030 C 
HETATM   29  C20 UNL     1      26.963   1.163  51.761  1.00  0.00     0.272 C 
ENDBRANCH  23  24
ENDBRANCH  22  23
ENDBRANCH  17  20
TORSDOF 3
ENDMDL
MODEL 3
REMARK VINA RESULT:      -8.2      4.501      6.770
REMARK  3 active torsions:
REMARK  status: ('A' for Active; 'I' for Inactive)
REMARK    1  A    between atoms: C12_17  and  C13_18 
REMARK    2  A    between atoms: C14_20  and  C15_21 
REMARK    3  A    between atoms: C15_21  and  N4_22 
ROOT
HETATM    1 BR1  UNL     1      18.681   4.148  49.204  1.00  0.00    -0.049 Br
HETATM    2  C1  UNL     1      20.127   2.877  49.527  1.00  0.00     0.034 C 
HETATM    3  C2  UNL     1      21.483   3.032  49.610  1.00  0.00     0.003 C 
HETATM    4  C3  UNL     1      21.693   1.909  50.598  1.00  0.00     0.037 C 
HETATM    5  C4  UNL     1      21.148   0.804  49.815  1.00  0.00     0.013 C 
HETATM    6  C5  UNL     1      19.943   1.408  49.679  1.00  0.00     0.047 C 
HETATM    7  N1  UNL     1      18.637   0.771  49.744  1.00  0.00    -0.343 N 
HETATM    8  C6  UNL     1      18.279   0.120  50.989  1.00  0.00     0.108 C 
HETATM    9  N2  UNL     1      19.095   0.140  51.936  1.00  0.00    -0.220 NA
HETATM   10  C7  UNL     1      18.972  -0.339  53.249  1.00  0.00     0.124 C 
HETATM   11  N3  UNL     1      17.832  -0.864  53.456  1.00  0.00    -0.275 NA
HETATM   12  C8  UNL     1      17.044  -1.465  52.391  1.00  0.00     0.158 C 
HETATM   13  C9  UNL     1      16.979  -0.565  51.153  1.00  0.00     0.100 C 
HETATM   14  C10 UNL     1      20.375   0.076  53.656  1.00  0.00     0.106 C 
HETATM   15  C11 UNL     1      21.336  -0.508  52.677  1.00  0.00     0.175 C 
HETATM   16  O1  UNL     1      22.594  -0.105  52.582  1.00  0.00    -0.383 OA
HETATM   17  C12 UNL     1      22.950   1.192  52.524  1.00  0.00     0.153 C 
HETATM   18  C21 UNL     1      23.101   1.757  51.082  1.00  0.00     0.047 C 
HETATM   19  H4  UNL     1      18.026   0.816  48.925  1.00  0.00     0.167 HD
ENDROOT
BRANCH  17  20
HETATM   20  C13 UNL     1      24.153   1.530  53.297  1.00  0.00     0.181 A 
HETATM   21  O2  UNL     1      24.331   3.011  53.516  1.00  0.00    -0.371 OA
HETATM   22  C14 UNL     1      25.305   2.215  52.779  1.00  0.00     0.181 A 
BRANCH  22  23
HETATM   23  C15 UNL     1      26.592   2.183  53.547  1.00  0.00     0.306 C 
BRANCH  23  24
HETATM   24  N4  UNL     1      27.686   1.684  52.758  1.00  0.00     0.091 N 
HETATM   25  C16 UNL     1      28.903   1.502  53.515  1.00  0.00     0.272 C 
HETATM   26  C17 UNL     1      28.725   0.381  54.491  1.00  0.00     0.030 C 
HETATM   27  C18 UNL     1      28.505  -0.890  53.684  1.00  0.00     0.003 C 
HETATM   28  C19 UNL     1      27.321  -0.747  52.778  1.00  0.00     0.030 C 
HETATM   29  C20 UNL     1      27.336   0.527  51.976  1.00  0.00     0.272 C 
ENDBRANCH  23  24
ENDBRANCH  22  23
ENDBRANCH  17  20
TORSDOF 3
ENDMDL
MODEL 4
REMARK VINA RESULT:      -8.1      3.583      7.424
REMARK  3 active torsions:
REMARK  status: ('A' for Active; 'I' for Inactive)
REMARK    1  A    between atoms: C12_17  and  C13_18 
REMARK    2  A    between atoms: C14_20  and  C15_21 
REMARK    3  A    between atoms: C15_21  and  N4_22 
ROOT
HETATM    1 BR1  UNL     1      26.751   3.726  49.452  1.00  0.00    -0.049 Br
HETATM    2  C1  UNL     1      25.572   3.309  50.950  1.00  0.00     0.034 C 
HETATM    3  C2  UNL     1      24.214   3.384  51.097  1.00  0.00     0.003 C 
HETATM    4  C3  UNL     1      24.112   2.229  52.064  1.00  0.00     0.037 C 
HETATM    5  C4  UNL     1      24.974   2.737  53.127  1.00  0.00     0.013 C 
HETATM    6  C5  UNL     1      26.035   2.869  52.294  1.00  0.00     0.047 C 
HETATM    7  N1  UNL     1      27.424   2.564  52.598  1.00  0.00    -0.343 N 
HETATM    8  C6  UNL     1      27.741   1.192  52.940  1.00  0.00     0.108 C 
HETATM    9  N2  UNL     1      26.820   0.346  52.954  1.00  0.00    -0.220 NA
HETATM   10  C7  UNL     1      26.864  -1.039  53.175  1.00  0.00     0.124 C 
HETATM   11  N3  UNL     1      28.051  -1.447  53.385  1.00  0.00    -0.275 NA
HETATM   12  C8  UNL     1      29.081  -0.591  53.954  1.00  0.00     0.158 C 
HETATM   13  C9  UNL     1      29.121   0.781  53.275  1.00  0.00     0.100 C 
HETATM   14  C10 UNL     1      25.364  -1.228  53.031  1.00  0.00     0.106 C 
HETATM   15  C11 UNL     1      24.685  -0.289  53.968  1.00  0.00     0.175 C 
HETATM   16  O1  UNL     1      23.394  -0.002  53.883  1.00  0.00    -0.383 OA
HETATM   17  C12 UNL     1      22.787   0.330  52.729  1.00  0.00     0.153 C 
HETATM   18  C21 UNL     1      22.716   1.860  52.453  1.00  0.00     0.047 C 
HETATM   19  H4  UNL     1      28.116   3.316  52.548  1.00  0.00     0.167 HD
ENDROOT
BRANCH  17  20
HETATM   20  C13 UNL     1      21.449  -0.250  52.554  1.00  0.00     0.181 A 
HETATM   21  O2  UNL     1      20.960  -0.217  51.127  1.00  0.00    -0.371 OA
HETATM   22  C14 UNL     1      20.267   0.487  52.200  1.00  0.00     0.181 A 
BRANCH  22  23
HETATM   23  C15 UNL     1      18.918  -0.136  52.402  1.00  0.00     0.306 C 
BRANCH  23  24
HETATM   24  N4  UNL     1      18.099  -0.059  51.222  1.00  0.00     0.091 N 
HETATM   25  C16 UNL     1      16.817  -0.707  51.371  1.00  0.00     0.272 C 
HETATM   26  C17 UNL     1      15.977   0.057  52.347  1.00  0.00     0.030 C 
HETATM   27  C18 UNL     1      15.718   1.429  51.742  1.00  0.00     0.003 C 
HETATM   28  C19 UNL     1      17.007   2.132  51.446  1.00  0.00     0.030 C 
HETATM   29  C20 UNL     1      17.993   1.276  50.695  1.00  0.00     0.272 C 
ENDBRANCH  23  24
ENDBRANCH  22  23
ENDBRANCH  17  20
TORSDOF 3
ENDMDL
MODEL 5
REMARK VINA RESULT:      -7.9      3.450      8.226
REMARK  3 active torsions:
REMARK  status: ('A' for Active; 'I' for Inactive)
REMARK    1  A    between atoms: C12_17  and  C13_18 
REMARK    2  A    between atoms: C14_20  and  C15_21 
REMARK    3  A    between atoms: C15_21  and  N4_22 
ROOT
HETATM    1 BR1  UNL     1      27.214   9.606  49.576  1.00  0.00    -0.049 Br
HETATM    2  C1  UNL     1      26.536   7.882  48.960  1.00  0.00     0.034 C 
HETATM    3  C2  UNL     1      27.105   6.641  48.902  1.00  0.00     0.003 C 
HETATM    4  C3  UNL     1      25.815   5.884  49.111  1.00  0.00     0.037 C 
HETATM    5  C4  UNL     1      25.065   6.378  47.961  1.00  0.00     0.013 C 
HETATM    6  C5  UNL     1      25.196   7.671  48.348  1.00  0.00     0.047 C 
HETATM    7  N1  UNL     1      24.182   8.710  48.270  1.00  0.00    -0.343 N 
HETATM    8  C6  UNL     1      22.965   8.506  49.029  1.00  0.00     0.108 C 
HETATM    9  N2  UNL     1      22.846   7.462  49.708  1.00  0.00    -0.220 NA
HETATM   10  C7  UNL     1      21.821   7.058  50.577  1.00  0.00     0.124 C 
HETATM   11  N3  UNL     1      20.894   7.927  50.652  1.00  0.00    -0.275 NA
HETATM   12  C8  UNL     1      20.599   8.848  49.566  1.00  0.00     0.158 C 
HETATM   13  C9  UNL     1      21.868   9.498  49.008  1.00  0.00     0.100 C 
HETATM   14  C10 UNL     1      22.476   5.732  50.921  1.00  0.00     0.106 C 
HETATM   15  C11 UNL     1      22.773   5.017  49.647  1.00  0.00     0.175 C 
HETATM   16  O1  UNL     1      23.592   3.977  49.584  1.00  0.00    -0.383 OA
HETATM   17  C12 UNL     1      24.809   3.962  50.159  1.00  0.00     0.153 C 
HETATM   18  C21 UNL     1      25.971   4.400  49.222  1.00  0.00     0.047 C 
HETATM   19  H4  UNL     1      24.370   9.539  47.700  1.00  0.00     0.167 HD
ENDROOT
BRANCH  17  20
HETATM   20  C13 UNL     1      25.166   2.689  50.799  1.00  0.00     0.181 A 
HETATM   21  O2  UNL     1      25.197   2.760  52.305  1.00  0.00    -0.371 OA
HETATM   22  C14 UNL     1      26.383   2.437  51.520  1.00  0.00     0.181 A 
BRANCH  22  23
HETATM   23  C15 UNL     1      26.793   1.025  51.812  1.00  0.00     0.306 C 
BRANCH  23  24
HETATM   24  N4  UNL     1      26.900   0.768  53.223  1.00  0.00     0.091 N 
HETATM   25  C16 UNL     1      26.790  -0.633  53.560  1.00  0.00     0.272 C 
HETATM   26  C17 UNL     1      27.989  -1.370  53.048  1.00  0.00     0.030 C 
HETATM   27  C18 UNL     1      29.203  -0.825  53.785  1.00  0.00     0.003 C 
HETATM   28  C19 UNL     1      29.329   0.653  53.583  1.00  0.00     0.030 C 
HETATM   29  C20 UNL     1      28.044   1.399  53.826  1.00  0.00     0.272 C 
ENDBRANCH  23  24
ENDBRANCH  22  23
ENDBRANCH  17  20
TORSDOF 3
ENDMDL
MODEL 6
REMARK VINA RESULT:      -7.7      3.477      9.506
REMARK  3 active torsions:
REMARK  status: ('A' for Active; 'I' for Inactive)
REMARK    1  A    between atoms: C12_17  and  C13_18 
REMARK    2  A    between atoms: C14_20  and  C15_21 
REMARK    3  A    between atoms: C15_21  and  N4_22 
ROOT
HETATM    1 BR1  UNL     1      32.188   7.677  49.548  1.00  0.00    -0.049 Br
HETATM    2  C1  UNL     1      30.614   7.050  48.579  1.00  0.00     0.034 C 
HETATM    3  C2  UNL     1      30.006   5.827  48.510  1.00  0.00     0.003 C 
HETATM    4  C3  UNL     1      28.613   6.372  48.303  1.00  0.00     0.037 C 
HETATM    5  C4  UNL     1      28.838   7.127  47.075  1.00  0.00     0.013 C 
HETATM    6  C5  UNL     1      29.815   7.879  47.637  1.00  0.00     0.047 C 
HETATM    7  N1  UNL     1      30.039   9.303  47.442  1.00  0.00    -0.343 N 
HETATM    8  C6  UNL     1      28.978  10.202  47.850  1.00  0.00     0.108 C 
HETATM    9  N2  UNL     1      27.936   9.720  48.346  1.00  0.00    -0.220 NA
HETATM   10  C7  UNL     1      26.808  10.358  48.883  1.00  0.00     0.124 C 
HETATM   11  N3  UNL     1      26.914  11.625  48.835  1.00  0.00    -0.275 NA
HETATM   12  C8  UNL     1      27.718  12.304  47.831  1.00  0.00     0.158 C 
HETATM   13  C9  UNL     1      29.103  11.667  47.684  1.00  0.00     0.100 C 
HETATM   14  C10 UNL     1      26.086   9.063  49.210  1.00  0.00     0.106 C 
HETATM   15  C11 UNL     1      26.025   8.238  47.970  1.00  0.00     0.175 C 
HETATM   16  O1  UNL     1      25.721   6.949  47.982  1.00  0.00    -0.383 OA
HETATM   17  C12 UNL     1      26.283   6.067  48.830  1.00  0.00     0.153 C 
HETATM   18  C21 UNL     1      27.535   5.336  48.266  1.00  0.00     0.047 C 
HETATM   19  H4  UNL     1      30.928   9.611  47.041  1.00  0.00     0.167 HD
ENDROOT
BRANCH  17  20
HETATM   20  C13 UNL     1      25.353   5.069  49.377  1.00  0.00     0.181 A 
HETATM   21  O2  UNL     1      24.786   5.449  50.722  1.00  0.00    -0.371 OA
HETATM   22  C14 UNL     1      25.601   4.254  50.534  1.00  0.00     0.181 A 
BRANCH  22  23
HETATM   23  C15 UNL     1      24.755   3.041  50.781  1.00  0.00     0.306 C 
BRANCH  23  24
HETATM   24  N4  UNL     1      24.069   3.101  52.043  1.00  0.00     0.091 N 
HETATM   25  C16 UNL     1      22.718   2.593  51.986  1.00  0.00     0.272 C 
HETATM   26  C17 UNL     1      22.745   1.115  51.750  1.00  0.00     0.030 C 
HETATM   27  C18 UNL     1      23.413   0.477  52.959  1.00  0.00     0.003 C 
HETATM   28  C19 UNL     1      24.788   1.035  53.164  1.00  0.00     0.030 C 
HETATM   29  C20 UNL     1      24.832   2.539  53.127  1.00  0.00     0.272 C 
ENDBRANCH  23  24
ENDBRANCH  22  23
ENDBRANCH  17  20
TORSDOF 3
ENDMDL
MODEL 7
REMARK VINA RESULT:      -7.6      3.702      8.300
REMARK  3 active torsions:
REMARK  status: ('A' for Active; 'I' for Inactive)
REMARK    1  A    between atoms: C12_17  and  C13_18 
REMARK    2  A    between atoms: C14_20  and  C15_21 
REMARK    3  A    between atoms: C15_21  and  N4_22 
ROOT
HETATM    1 BR1  UNL     1      26.092   3.589  49.486  1.00  0.00    -0.049 Br
HETATM    2  C1  UNL     1      24.486   3.426  50.584  1.00  0.00     0.034 C 
HETATM    3  C2  UNL     1      23.156   3.525  50.284  1.00  0.00     0.003 C 
HETATM    4  C3  UNL     1      22.699   2.546  51.339  1.00  0.00     0.037 C 
HETATM    5  C4  UNL     1      23.215   3.223  52.525  1.00  0.00     0.013 C 
HETATM    6  C5  UNL     1      24.487   3.215  52.057  1.00  0.00     0.047 C 
HETATM    7  N1  UNL     1      25.696   2.964  52.826  1.00  0.00    -0.343 N 
HETATM    8  C6  UNL     1      25.819   1.668  53.462  1.00  0.00     0.108 C 
HETATM    9  N2  UNL     1      24.896   0.836  53.319  1.00  0.00    -0.220 NA
HETATM   10  C7  UNL     1      24.797  -0.493  53.758  1.00  0.00     0.124 C 
HETATM   11  N3  UNL     1      25.838  -0.860  54.392  1.00  0.00    -0.275 NA
HETATM   12  C8  UNL     1      26.684   0.078  55.113  1.00  0.00     0.158 C 
HETATM   13  C9  UNL     1      27.004   1.318  54.274  1.00  0.00     0.100 C 
HETATM   14  C10 UNL     1      23.408  -0.703  53.181  1.00  0.00     0.106 C 
HETATM   15  C11 UNL     1      22.522   0.378  53.698  1.00  0.00     0.175 C 
HETATM   16  O1  UNL     1      21.338   0.647  53.168  1.00  0.00    -0.383 OA
HETATM   17  C12 UNL     1      21.137   0.783  51.844  1.00  0.00     0.153 C 
HETATM   18  C21 UNL     1      21.234   2.246  51.323  1.00  0.00     0.047 C 
HETATM   19  H4  UNL     1      26.407   3.698  52.878  1.00  0.00     0.167 HD
ENDROOT
BRANCH  17  20
HETATM   20  C13 UNL     1      19.890   0.182  51.351  1.00  0.00     0.181 A 
HETATM   21  O2  UNL     1      19.175   1.031  50.331  1.00  0.00    -0.371 OA
HETATM   22  C14 UNL     1      18.569   0.685  51.611  1.00  0.00     0.181 A 
BRANCH  22  23
HETATM   23  C15 UNL     1      17.381  -0.196  51.368  1.00  0.00     0.306 C 
BRANCH  23  24
HETATM   24  N4  UNL     1      16.638  -0.455  52.572  1.00  0.00     0.091 N 
HETATM   25  C16 UNL     1      15.307  -0.961  52.326  1.00  0.00     0.272 C 
HETATM   26  C17 UNL     1      15.392  -2.339  51.746  1.00  0.00     0.030 C 
HETATM   27  C18 UNL     1      16.025  -3.235  52.799  1.00  0.00     0.003 C 
HETATM   28  C19 UNL     1      17.371  -2.715  53.201  1.00  0.00     0.030 C 
HETATM   29  C20 UNL     1      17.369  -1.246  53.526  1.00  0.00     0.272 C 
ENDBRANCH  23  24
ENDBRANCH  22  23
ENDBRANCH  17  20
TORSDOF 3
ENDMDL
MODEL 8
REMARK VINA RESULT:      -7.5      4.247      7.320
REMARK  3 active torsions:
REMARK  status: ('A' for Active; 'I' for Inactive)
REMARK    1  A    between atoms: C12_17  and  C13_18 
REMARK    2  A    between atoms: C14_20  and  C15_21 
REMARK    3  A    between atoms: C15_21  and  N4_22 
ROOT
HETATM    1 BR1  UNL     1      26.032   3.574  49.491  1.00  0.00    -0.049 Br
HETATM    2  C1  UNL     1      24.493   3.524  50.690  1.00  0.00     0.034 C 
HETATM    3  C2  UNL     1      23.162   3.759  50.483  1.00  0.00     0.003 C 
HETATM    4  C3  UNL     1      22.682   2.790  51.537  1.00  0.00     0.037 C 
HETATM    5  C4  UNL     1      23.336   3.372  52.705  1.00  0.00     0.013 C 
HETATM    6  C5  UNL     1      24.568   3.261  52.152  1.00  0.00     0.047 C 
HETATM    7  N1  UNL     1      25.794   2.869  52.830  1.00  0.00    -0.343 N 
HETATM    8  C6  UNL     1      25.833   1.545  53.416  1.00  0.00     0.108 C 
HETATM    9  N2  UNL     1      24.826   0.810  53.312  1.00  0.00    -0.220 NA
HETATM   10  C7  UNL     1      24.628  -0.519  53.716  1.00  0.00     0.124 C 
HETATM   11  N3  UNL     1      25.667  -1.006  54.267  1.00  0.00    -0.275 NA
HETATM   12  C8  UNL     1      26.644  -0.179  54.957  1.00  0.00     0.158 C 
HETATM   13  C9  UNL     1      27.028   1.055  54.136  1.00  0.00     0.100 C 
HETATM   14  C10 UNL     1      23.191  -0.576  53.229  1.00  0.00     0.106 C 
HETATM   15  C11 UNL     1      22.448   0.564  53.837  1.00  0.00     0.175 C 
HETATM   16  O1  UNL     1      21.264   0.963  53.396  1.00  0.00    -0.383 OA
HETATM   17  C12 UNL     1      20.992   1.166  52.094  1.00  0.00     0.153 C 
HETATM   18  C21 UNL     1      21.196   2.631  51.611  1.00  0.00     0.047 C 
HETATM   19  H4  UNL     1      26.575   3.530  52.855  1.00  0.00     0.167 HD
ENDROOT
BRANCH  17  20
HETATM   20  C13 UNL     1      19.663   0.703  51.668  1.00  0.00     0.181 A 
HETATM   21  O2  UNL     1      19.485   0.680  50.171  1.00  0.00    -0.371 OA
HETATM   22  C14 UNL     1      18.666   1.521  51.035  1.00  0.00     0.181 A 
BRANCH  22  23
HETATM   23  C15 UNL     1      17.245   1.045  50.978  1.00  0.00     0.306 C 
BRANCH  23  24
HETATM   24  N4  UNL     1      16.367   2.018  50.387  1.00  0.00     0.091 N 
HETATM   25  C16 UNL     1      14.979   1.825  50.737  1.00  0.00     0.272 C 
HETATM   26  C17 UNL     1      14.781   2.115  52.192  1.00  0.00     0.030 C 
HETATM   27  C18 UNL     1      15.097   3.588  52.406  1.00  0.00     0.003 C 
HETATM   28  C19 UNL     1      16.490   3.905  51.958  1.00  0.00     0.030 C 
HETATM   29  C20 UNL     1      16.810   3.373  50.586  1.00  0.00     0.272 C 
ENDBRANCH  23  24
ENDBRANCH  22  23
ENDBRANCH  17  20
TORSDOF 3
ENDMDL
MODEL 9
REMARK VINA RESULT:      -7.3      3.605      4.999
REMARK  3 active torsions:
REMARK  status: ('A' for Active; 'I' for Inactive)
REMARK    1  A    between atoms: C12_17  and  C13_18 
REMARK    2  A    between atoms: C14_20  and  C15_21 
REMARK    3  A    between atoms: C15_21  and  N4_22 
ROOT
HETATM    1 BR1  UNL     1      17.869   3.696  48.449  1.00  0.00    -0.049 Br
HETATM    2  C1  UNL     1      19.680   2.975  48.365  1.00  0.00     0.034 C 
HETATM    3  C2  UNL     1      20.817   3.421  47.750  1.00  0.00     0.003 C 
HETATM    4  C3  UNL     1      21.767   2.845  48.773  1.00  0.00     0.037 C 
HETATM    5  C4  UNL     1      21.403   1.436  48.663  1.00  0.00     0.013 C 
HETATM    6  C5  UNL     1      20.104   1.680  48.964  1.00  0.00     0.047 C 
HETATM    7  N1  UNL     1      19.238   0.870  49.806  1.00  0.00    -0.343 N 
HETATM    8  C6  UNL     1      19.627   0.704  51.191  1.00  0.00     0.108 C 
HETATM    9  N2  UNL     1      20.673   1.259  51.594  1.00  0.00    -0.220 NA
HETATM   10  C7  UNL     1      21.229   1.320  52.881  1.00  0.00     0.124 C 
HETATM   11  N3  UNL     1      20.517   0.700  53.734  1.00  0.00    -0.275 NA
HETATM   12  C8  UNL     1      19.659  -0.417  53.370  1.00  0.00     0.158 C 
HETATM   13  C9  UNL     1      18.820  -0.110  52.126  1.00  0.00     0.100 C 
HETATM   14  C10 UNL     1      22.435   2.136  52.448  1.00  0.00     0.106 C 
HETATM   15  C11 UNL     1      23.100   1.422  51.322  1.00  0.00     0.175 C 
HETATM   16  O1  UNL     1      23.998   2.001  50.538  1.00  0.00    -0.383 OA
HETATM   17  C12 UNL     1      23.818   3.213  49.982  1.00  0.00     0.153 C 
HETATM   18  C21 UNL     1      23.207   3.183  48.551  1.00  0.00     0.047 C 
HETATM   19  H4  UNL     1      18.392   0.465  49.396  1.00  0.00     0.167 HD
ENDROOT
BRANCH  17  20
HETATM   20  C13 UNL     1      25.016   4.064  49.972  1.00  0.00     0.181 A 
HETATM   21  O2  UNL     1      24.825   5.381  50.680  1.00  0.00    -0.371 OA
HETATM   22  C14 UNL     1      25.144   5.305  49.260  1.00  0.00     0.181 A 
BRANCH  22  23
HETATM   23  C15 UNL     1      26.505   5.891  49.032  1.00  0.00     0.306 C 
BRANCH  23  24
HETATM   24  N4  UNL     1      26.455   7.108  48.266  1.00  0.00     0.091 N 
HETATM   25  C16 UNL     1      25.862   8.213  48.984  1.00  0.00     0.272 C 
HETATM   26  C17 UNL     1      26.762   8.624  50.107  1.00  0.00     0.030 C 
HETATM   27  C18 UNL     1      28.055   9.134  49.486  1.00  0.00     0.003 C 
HETATM   28  C19 UNL     1      28.683   8.083  48.625  1.00  0.00     0.030 C 
HETATM   29  C20 UNL     1      27.716   7.446  47.662  1.00  0.00     0.272 C 
ENDBRANCH  23  24
ENDBRANCH  22  23
ENDBRANCH  17  20
TORSDOF 3
ENDMDL
