MODEL 1
REMARK VINA RESULT:      -9.0      0.000      0.000
REMARK  3 active torsions:
REMARK  status: ('A' for Active; 'I' for Inactive)
REMARK    1  A    between atoms: C7_7  and  N1_8 
REMARK    2  A    between atoms: N1_8  and  C8_9 
REMARK    3  A    between atoms: C14_18  and  C15_19 
ROOT
HETATM    1  C1  UNL     1      28.972  -0.846  53.469  1.00  0.00     0.018 C 
HETATM    2  C2  UNL     1      27.808  -0.561  53.362  1.00  0.00    -0.078 C 
HETATM    3  C3  UNL     1      26.420  -0.217  53.259  1.00  0.00     0.019 A 
HETATM    4  C4  UNL     1      25.577  -0.759  54.202  1.00  0.00     0.021 A 
HETATM    5  C5  UNL     1      24.239  -0.450  54.135  1.00  0.00     0.004 A 
HETATM    6  C6  UNL     1      23.784   0.381  53.143  1.00  0.00     0.029 A 
HETATM    7  C7  UNL     1      24.574   0.966  52.157  1.00  0.00     0.035 A 
HETATM    8  C19 UNL     1      25.888   0.608  52.296  1.00  0.00     0.050 A 
ENDROOT
BRANCH   7   9
HETATM    9  N1  UNL     1      24.122   1.828  51.128  1.00  0.00    -0.340 N 
HETATM   10  H5  UNL     1      24.006   1.221  50.301  1.00  0.00     0.167 HD
BRANCH   9  11
HETATM   11  C8  UNL     1      23.852   3.196  51.219  1.00  0.00     0.142 A 
HETATM   12  N2  UNL     1      22.782   3.765  51.764  1.00  0.00    -0.223 NA
HETATM   13  C9  UNL     1      22.524   5.068  51.849  1.00  0.00     0.236 A 
HETATM   14  N3  UNL     1      23.413   5.939  51.340  1.00  0.00    -0.234 NA
HETATM   15  C10 UNL     1      24.551   5.476  50.755  1.00  0.00     0.111 A 
HETATM   16  C11 UNL     1      24.754   4.092  50.706  1.00  0.00     0.047 A 
HETATM   17  S1  UNL     1      25.535   6.852  50.153  1.00  0.00    -0.078 SA
HETATM   18  C12 UNL     1      25.967   3.558  50.132  1.00  0.00     0.035 C 
HETATM   19  C13 UNL     1      26.905   3.879  49.262  1.00  0.00     0.085 C 
HETATM   20  N4  UNL     1      26.912   5.116  48.544  1.00  0.00    -0.380 N 
HETATM   21  C14 UNL     1      26.386   6.426  48.646  1.00  0.00     0.200 C 
HETATM   22  H9  UNL     1      27.486   5.079  47.647  1.00  0.00     0.160 HD
BRANCH  21  23
HETATM   23  C15 UNL     1      27.524   7.391  48.489  1.00  0.00     0.042 A 
HETATM   24  C16 UNL     1      28.148   7.724  47.371  1.00  0.00     0.010 A 
HETATM   25  C17 UNL     1      29.239   8.717  47.563  1.00  0.00     0.132 A 
HETATM   26  C18 UNL     1      29.210   8.973  49.031  1.00  0.00     0.225 A 
HETATM   27  O1  UNL     1      29.906   9.718  49.734  1.00  0.00    -0.273 OA
HETATM   28  N5  UNL     1      28.160   8.146  49.521  1.00  0.00    -0.328 N 
HETATM   29  H14 UNL     1      27.870   8.087  50.531  1.00  0.00     0.168 HD
ENDBRANCH  21  23
ENDBRANCH   9  11
ENDBRANCH   7   9
TORSDOF 3
ENDMDL
MODEL 2
REMARK VINA RESULT:      -8.9      1.050      2.172
REMARK  3 active torsions:
REMARK  status: ('A' for Active; 'I' for Inactive)
REMARK    1  A    between atoms: C7_7  and  N1_8 
REMARK    2  A    between atoms: N1_8  and  C8_9 
REMARK    3  A    between atoms: C14_18  and  C15_19 
ROOT
HETATM    1  C1  UNL     1      21.501  -1.212  54.586  1.00  0.00     0.018 C 
HETATM    2  C2  UNL     1      22.413  -0.681  54.008  1.00  0.00    -0.078 C 
HETATM    3  C3  UNL     1      23.509  -0.070  53.315  1.00  0.00     0.019 A 
HETATM    4  C4  UNL     1      24.774  -0.465  53.688  1.00  0.00     0.021 A 
HETATM    5  C5  UNL     1      25.849   0.099  53.044  1.00  0.00     0.004 A 
HETATM    6  C6  UNL     1      25.638   1.029  52.058  1.00  0.00     0.029 A 
HETATM    7  C7  UNL     1      24.392   1.477  51.628  1.00  0.00     0.035 A 
HETATM    8  C19 UNL     1      23.380   0.867  52.318  1.00  0.00     0.050 A 
ENDROOT
BRANCH   7   9
HETATM    9  N1  UNL     1      24.156   2.434  50.610  1.00  0.00    -0.340 N 
HETATM   10  H5  UNL     1      24.094   1.887  49.736  1.00  0.00     0.167 HD
BRANCH   9  11
HETATM   11  C8  UNL     1      24.002   3.815  50.756  1.00  0.00     0.142 A 
HETATM   12  N2  UNL     1      22.960   4.451  51.282  1.00  0.00    -0.223 NA
HETATM   13  C9  UNL     1      22.812   5.766  51.420  1.00  0.00     0.236 A 
HETATM   14  N3  UNL     1      23.797   6.577  50.995  1.00  0.00    -0.234 NA
HETATM   15  C10 UNL     1      24.918   6.042  50.439  1.00  0.00     0.111 A 
HETATM   16  C11 UNL     1      25.002   4.649  50.330  1.00  0.00     0.047 A 
HETATM   17  S1  UNL     1      26.046   7.351  49.951  1.00  0.00    -0.078 SA
HETATM   18  C12 UNL     1      26.191   4.036  49.784  1.00  0.00     0.035 C 
HETATM   19  C13 UNL     1      27.195   4.312  48.974  1.00  0.00     0.085 C 
HETATM   20  N4  UNL     1      27.344   5.575  48.319  1.00  0.00    -0.380 N 
HETATM   21  C14 UNL     1      26.929   6.920  48.464  1.00  0.00     0.200 C 
HETATM   22  H9  UNL     1      27.955   5.529  47.448  1.00  0.00     0.160 HD
BRANCH  21  23
HETATM   23  C15 UNL     1      28.153   7.787  48.405  1.00  0.00     0.042 A 
HETATM   24  C16 UNL     1      28.996   7.921  47.395  1.00  0.00     0.010 A 
HETATM   25  C17 UNL     1      30.112   8.867  47.664  1.00  0.00     0.132 A 
HETATM   26  C18 UNL     1      29.836   9.330  49.054  1.00  0.00     0.225 A 
HETATM   27  O1  UNL     1      30.452  10.127  49.776  1.00  0.00    -0.273 OA
HETATM   28  N5  UNL     1      28.649   8.643  49.435  1.00  0.00    -0.328 N 
HETATM   29  H14 UNL     1      28.175   8.745  50.369  1.00  0.00     0.168 HD
ENDBRANCH  21  23
ENDBRANCH   9  11
ENDBRANCH   7   9
TORSDOF 3
ENDMDL
MODEL 3
REMARK VINA RESULT:      -8.9      2.262      3.323
REMARK  3 active torsions:
REMARK  status: ('A' for Active; 'I' for Inactive)
REMARK    1  A    between atoms: C7_7  and  N1_8 
REMARK    2  A    between atoms: N1_8  and  C8_9 
REMARK    3  A    between atoms: C14_18  and  C15_19 
ROOT
HETATM    1  C1  UNL     1      26.377  -0.981  53.474  1.00  0.00     0.018 C 
HETATM    2  C2  UNL     1      25.199  -0.753  53.551  1.00  0.00    -0.078 C 
HETATM    3  C3  UNL     1      23.797  -0.476  53.667  1.00  0.00     0.019 A 
HETATM    4  C4  UNL     1      23.143  -1.031  54.744  1.00  0.00     0.021 A 
HETATM    5  C5  UNL     1      21.799  -0.785  54.887  1.00  0.00     0.004 A 
HETATM    6  C6  UNL     1      21.150  -0.002  53.967  1.00  0.00     0.029 A 
HETATM    7  C7  UNL     1      21.742   0.593  52.856  1.00  0.00     0.035 A 
HETATM    8  C19 UNL     1      23.077   0.298  52.788  1.00  0.00     0.050 A 
ENDROOT
BRANCH   7   9
HETATM    9  N1  UNL     1      21.088   1.406  51.897  1.00  0.00    -0.340 N 
HETATM   10  H5  UNL     1      20.191   1.669  52.336  1.00  0.00     0.167 HD
BRANCH   9  11
HETATM   11  C8  UNL     1      21.566   1.800  50.645  1.00  0.00     0.142 A 
HETATM   12  N2  UNL     1      21.421   1.151  49.494  1.00  0.00    -0.223 NA
HETATM   13  C9  UNL     1      21.878   1.526  48.301  1.00  0.00     0.236 A 
HETATM   14  N3  UNL     1      22.566   2.676  48.203  1.00  0.00    -0.234 NA
HETATM   15  C10 UNL     1      22.779   3.431  49.316  1.00  0.00     0.111 A 
HETATM   16  C11 UNL     1      22.266   2.973  50.534  1.00  0.00     0.047 A 
HETATM   17  S1  UNL     1      23.735   4.891  48.892  1.00  0.00    -0.078 SA
HETATM   18  C12 UNL     1      22.432   3.763  51.732  1.00  0.00     0.035 C 
HETATM   19  C13 UNL     1      23.233   4.679  52.241  1.00  0.00     0.085 C 
HETATM   20  N4  UNL     1      24.365   5.202  51.539  1.00  0.00    -0.380 N 
HETATM   21  C14 UNL     1      24.842   5.343  50.214  1.00  0.00     0.200 C 
HETATM   22  H9  UNL     1      25.099   5.629  52.183  1.00  0.00     0.160 HD
BRANCH  21  23
HETATM   23  C15 UNL     1      25.214   6.782  50.011  1.00  0.00     0.042 A 
HETATM   24  C16 UNL     1      24.631   7.659  49.211  1.00  0.00     0.010 A 
HETATM   25  C17 UNL     1      25.250   9.011  49.247  1.00  0.00     0.132 A 
HETATM   26  C18 UNL     1      26.358   8.851  50.231  1.00  0.00     0.225 A 
HETATM   27  O1  UNL     1      27.197   9.666  50.642  1.00  0.00    -0.273 OA
HETATM   28  N5  UNL     1      26.278   7.492  50.648  1.00  0.00    -0.328 N 
HETATM   29  H14 UNL     1      26.923   7.045  51.349  1.00  0.00     0.168 HD
ENDBRANCH  21  23
ENDBRANCH   9  11
ENDBRANCH   7   9
TORSDOF 3
ENDMDL
MODEL 4
REMARK VINA RESULT:      -8.7      2.016      3.370
REMARK  3 active torsions:
REMARK  status: ('A' for Active; 'I' for Inactive)
REMARK    1  A    between atoms: C7_7  and  N1_8 
REMARK    2  A    between atoms: N1_8  and  C8_9 
REMARK    3  A    between atoms: C14_18  and  C15_19 
ROOT
HETATM    1  C1  UNL     1      18.071  -0.879  52.861  1.00  0.00     0.018 C 
HETATM    2  C2  UNL     1      19.241  -0.719  53.093  1.00  0.00    -0.078 C 
HETATM    3  C3  UNL     1      20.638  -0.553  53.369  1.00  0.00     0.019 A 
HETATM    4  C4  UNL     1      21.175  -1.355  54.349  1.00  0.00     0.021 A 
HETATM    5  C5  UNL     1      22.512  -1.224  54.640  1.00  0.00     0.004 A 
HETATM    6  C6  UNL     1      23.269  -0.309  53.954  1.00  0.00     0.029 A 
HETATM    7  C7  UNL     1      22.797   0.536  52.952  1.00  0.00     0.035 A 
HETATM    8  C19 UNL     1      21.462   0.341  52.726  1.00  0.00     0.050 A 
ENDROOT
BRANCH   7   9
HETATM    9  N1  UNL     1      23.564   1.484  52.231  1.00  0.00    -0.340 N 
HETATM   10  H5  UNL     1      24.413   0.974  51.935  1.00  0.00     0.167 HD
BRANCH   9  11
HETATM   11  C8  UNL     1      23.233   2.811  51.948  1.00  0.00     0.142 A 
HETATM   12  N2  UNL     1      22.072   3.413  52.187  1.00  0.00    -0.223 NA
HETATM   13  C9  UNL     1      21.755   4.677  51.915  1.00  0.00     0.236 A 
HETATM   14  N3  UNL     1      22.676   5.466  51.336  1.00  0.00    -0.234 NA
HETATM   15  C10 UNL     1      23.906   4.962  51.042  1.00  0.00     0.111 A 
HETATM   16  C11 UNL     1      24.167   3.624  51.360  1.00  0.00     0.047 A 
HETATM   17  S1  UNL     1      24.916   6.226  50.263  1.00  0.00    -0.078 SA
HETATM   18  C12 UNL     1      25.472   3.060  51.105  1.00  0.00     0.035 C 
HETATM   19  C13 UNL     1      26.517   3.235  50.319  1.00  0.00     0.085 C 
HETATM   20  N4  UNL     1      26.585   4.265  49.329  1.00  0.00    -0.380 N 
HETATM   21  C14 UNL     1      26.000   5.520  49.036  1.00  0.00     0.200 C 
HETATM   22  H9  UNL     1      27.287   4.059  48.555  1.00  0.00     0.160 HD
BRANCH  21  23
HETATM   23  C15 UNL     1      27.111   6.501  48.805  1.00  0.00     0.042 A 
HETATM   24  C16 UNL     1      28.022   6.473  47.847  1.00  0.00     0.010 A 
HETATM   25  C17 UNL     1      28.987   7.604  47.900  1.00  0.00     0.132 A 
HETATM   26  C18 UNL     1      28.530   8.384  49.085  1.00  0.00     0.225 A 
HETATM   27  O1  UNL     1      28.976   9.425  49.588  1.00  0.00    -0.273 OA
HETATM   28  N5  UNL     1      27.404   7.666  49.578  1.00  0.00    -0.328 N 
HETATM   29  H14 UNL     1      26.836   7.950  50.417  1.00  0.00     0.168 HD
ENDBRANCH  21  23
ENDBRANCH   9  11
ENDBRANCH   7   9
TORSDOF 3
ENDMDL
MODEL 5
REMARK VINA RESULT:      -8.6      5.494      8.112
REMARK  3 active torsions:
REMARK  status: ('A' for Active; 'I' for Inactive)
REMARK    1  A    between atoms: C7_7  and  N1_8 
REMARK    2  A    between atoms: N1_8  and  C8_9 
REMARK    3  A    between atoms: C14_18  and  C15_19 
ROOT
HETATM    1  C1  UNL     1      14.888  -0.272  50.524  1.00  0.00     0.018 C 
HETATM    2  C2  UNL     1      15.716  -0.705  51.281  1.00  0.00    -0.078 C 
HETATM    3  C3  UNL     1      16.704  -1.243  52.171  1.00  0.00     0.019 A 
HETATM    4  C4  UNL     1      16.476  -2.511  52.654  1.00  0.00     0.021 A 
HETATM    5  C5  UNL     1      17.402  -3.059  53.509  1.00  0.00     0.004 A 
HETATM    6  C6  UNL     1      18.517  -2.338  53.854  1.00  0.00     0.029 A 
HETATM    7  C7  UNL     1      18.815  -1.054  53.407  1.00  0.00     0.035 A 
HETATM    8  C19 UNL     1      17.845  -0.584  52.563  1.00  0.00     0.050 A 
ENDROOT
BRANCH   7   9
HETATM    9  N1  UNL     1      19.962  -0.296  53.750  1.00  0.00    -0.340 N 
HETATM   10  H5  UNL     1      20.050  -0.391  54.776  1.00  0.00     0.167 HD
BRANCH   9  11
HETATM   11  C8  UNL     1      20.815   0.398  52.889  1.00  0.00     0.142 A 
HETATM   12  N2  UNL     1      20.467   1.105  51.818  1.00  0.00    -0.223 NA
HETATM   13  C9  UNL     1      21.280   1.764  50.997  1.00  0.00     0.236 A 
HETATM   14  N3  UNL     1      22.603   1.741  51.237  1.00  0.00    -0.234 NA
HETATM   15  C10 UNL     1      23.081   1.051  52.307  1.00  0.00     0.111 A 
HETATM   16  C11 UNL     1      22.165   0.383  53.128  1.00  0.00     0.047 A 
HETATM   17  S1  UNL     1      24.872   1.178  52.369  1.00  0.00    -0.078 SA
HETATM   18  C12 UNL     1      22.625  -0.327  54.299  1.00  0.00     0.035 C 
HETATM   19  C13 UNL     1      23.706  -0.921  54.766  1.00  0.00     0.085 C 
HETATM   20  N4  UNL     1      24.933  -0.995  54.034  1.00  0.00    -0.380 N 
HETATM   21  C14 UNL     1      25.605  -0.325  52.984  1.00  0.00     0.200 C 
HETATM   22  H9  UNL     1      25.567  -1.789  54.355  1.00  0.00     0.160 HD
BRANCH  21  23
HETATM   23  C15 UNL     1      26.984   0.015  53.465  1.00  0.00     0.042 A 
HETATM   24  C16 UNL     1      28.067  -0.742  53.406  1.00  0.00     0.010 A 
HETATM   25  C17 UNL     1      29.283  -0.100  53.974  1.00  0.00     0.132 A 
HETATM   26  C18 UNL     1      28.785   1.232  54.420  1.00  0.00     0.225 A 
HETATM   27  O1  UNL     1      29.378   2.174  54.966  1.00  0.00    -0.273 OA
HETATM   28  N5  UNL     1      27.402   1.232  54.085  1.00  0.00    -0.328 N 
HETATM   29  H14 UNL     1      26.745   2.035  54.266  1.00  0.00     0.168 HD
ENDBRANCH  21  23
ENDBRANCH   9  11
ENDBRANCH   7   9
TORSDOF 3
ENDMDL
MODEL 6
REMARK VINA RESULT:      -8.3      2.977      4.435
REMARK  3 active torsions:
REMARK  status: ('A' for Active; 'I' for Inactive)
REMARK    1  A    between atoms: C7_7  and  N1_8 
REMARK    2  A    between atoms: N1_8  and  C8_9 
REMARK    3  A    between atoms: C14_18  and  C15_19 
ROOT
HETATM    1  C1  UNL     1      17.745  -2.479  53.642  1.00  0.00     0.018 C 
HETATM    2  C2  UNL     1      18.703  -1.753  53.584  1.00  0.00    -0.078 C 
HETATM    3  C3  UNL     1      19.859  -0.908  53.510  1.00  0.00     0.019 A 
HETATM    4  C4  UNL     1      20.971  -1.318  54.208  1.00  0.00     0.021 A 
HETATM    5  C5  UNL     1      22.098  -0.533  54.159  1.00  0.00     0.004 A 
HETATM    6  C6  UNL     1      22.087   0.625  53.424  1.00  0.00     0.029 A 
HETATM    7  C7  UNL     1      21.002   1.104  52.694  1.00  0.00     0.035 A 
HETATM    8  C19 UNL     1      19.926   0.266  52.796  1.00  0.00     0.050 A 
ENDROOT
BRANCH   7   9
HETATM    9  N1  UNL     1      20.974   2.296  51.928  1.00  0.00    -0.340 N 
HETATM   10  H5  UNL     1      20.512   2.994  52.533  1.00  0.00     0.167 HD
BRANCH   9  11
HETATM   11  C8  UNL     1      21.492   2.498  50.646  1.00  0.00     0.142 A 
HETATM   12  N2  UNL     1      21.233   1.781  49.557  1.00  0.00    -0.223 NA
HETATM   13  C9  UNL     1      21.728   1.973  48.337  1.00  0.00     0.236 A 
HETATM   14  N3  UNL     1      22.585   2.989  48.137  1.00  0.00    -0.234 NA
HETATM   15  C10 UNL     1      22.927   3.796  49.178  1.00  0.00     0.111 A 
HETATM   16  C11 UNL     1      22.364   3.534  50.432  1.00  0.00     0.047 A 
HETATM   17  S1  UNL     1      24.093   5.046  48.627  1.00  0.00    -0.078 SA
HETATM   18  C12 UNL     1      22.666   4.391  51.555  1.00  0.00     0.035 C 
HETATM   19  C13 UNL     1      23.606   5.212  51.981  1.00  0.00     0.085 C 
HETATM   20  N4  UNL     1      24.796   5.488  51.238  1.00  0.00    -0.380 N 
HETATM   21  C14 UNL     1      25.273   5.435  49.906  1.00  0.00     0.200 C 
HETATM   22  H9  UNL     1      25.596   5.851  51.841  1.00  0.00     0.160 HD
BRANCH  21  23
HETATM   23  C15 UNL     1      25.862   6.776  49.576  1.00  0.00     0.042 A 
HETATM   24  C16 UNL     1      25.991   7.325  48.380  1.00  0.00     0.010 A 
HETATM   25  C17 UNL     1      26.620   8.673  48.402  1.00  0.00     0.132 A 
HETATM   26  C18 UNL     1      26.878   8.903  49.851  1.00  0.00     0.225 A 
HETATM   27  O1  UNL     1      27.389   9.868  50.437  1.00  0.00    -0.273 OA
HETATM   28  N5  UNL     1      26.400   7.727  50.495  1.00  0.00    -0.328 N 
HETATM   29  H14 UNL     1      26.431   7.561  51.534  1.00  0.00     0.168 HD
ENDBRANCH  21  23
ENDBRANCH   9  11
ENDBRANCH   7   9
TORSDOF 3
ENDMDL
MODEL 7
REMARK VINA RESULT:      -8.3      4.473      7.763
REMARK  3 active torsions:
REMARK  status: ('A' for Active; 'I' for Inactive)
REMARK    1  A    between atoms: C7_7  and  N1_8 
REMARK    2  A    between atoms: N1_8  and  C8_9 
REMARK    3  A    between atoms: C14_18  and  C15_19 
ROOT
HETATM    1  C1  UNL     1      22.838   7.608  45.614  1.00  0.00     0.018 C 
HETATM    2  C2  UNL     1      22.660   6.606  46.256  1.00  0.00    -0.078 C 
HETATM    3  C3  UNL     1      22.461   5.400  47.005  1.00  0.00     0.019 A 
HETATM    4  C4  UNL     1      22.105   4.279  46.290  1.00  0.00     0.021 A 
HETATM    5  C5  UNL     1      21.908   3.104  46.975  1.00  0.00     0.004 A 
HETATM    6  C6  UNL     1      22.068   3.078  48.337  1.00  0.00     0.029 A 
HETATM    7  C7  UNL     1      22.426   4.167  49.127  1.00  0.00     0.035 A 
HETATM    8  C19 UNL     1      22.603   5.293  48.368  1.00  0.00     0.050 A 
ENDROOT
BRANCH   7   9
HETATM    9  N1  UNL     1      22.599   4.157  50.533  1.00  0.00    -0.340 N 
HETATM   10  H5  UNL     1      22.740   5.147  50.793  1.00  0.00     0.167 HD
BRANCH   9  11
HETATM   11  C8  UNL     1      22.552   3.055  51.390  1.00  0.00     0.142 A 
HETATM   12  N2  UNL     1      21.470   2.524  51.950  1.00  0.00    -0.223 NA
HETATM   13  C9  UNL     1      21.426   1.476  52.769  1.00  0.00     0.236 A 
HETATM   14  N3  UNL     1      22.574   0.856  53.091  1.00  0.00    -0.234 NA
HETATM   15  C10 UNL     1      23.751   1.308  52.578  1.00  0.00     0.111 A 
HETATM   16  C11 UNL     1      23.718   2.415  51.722  1.00  0.00     0.047 A 
HETATM   17  S1  UNL     1      25.112   0.309  53.190  1.00  0.00    -0.078 SA
HETATM   18  C12 UNL     1      24.938   2.902  51.121  1.00  0.00     0.035 C 
HETATM   19  C13 UNL     1      26.240   2.915  51.334  1.00  0.00     0.085 C 
HETATM   20  N4  UNL     1      26.850   2.301  52.472  1.00  0.00    -0.380 N 
HETATM   21  C14 UNL     1      26.578   1.293  53.429  1.00  0.00     0.200 C 
HETATM   22  H9  UNL     1      27.812   2.696  52.700  1.00  0.00     0.160 HD
BRANCH  21  23
HETATM   23  C15 UNL     1      27.748   0.353  53.450  1.00  0.00     0.042 A 
HETATM   24  C16 UNL     1      29.032   0.668  53.480  1.00  0.00     0.010 A 
HETATM   25  C17 UNL     1      29.940  -0.511  53.496  1.00  0.00     0.132 A 
HETATM   26  C18 UNL     1      28.998  -1.665  53.470  1.00  0.00     0.225 A 
HETATM   27  O1  UNL     1      29.215  -2.885  53.470  1.00  0.00    -0.273 OA
HETATM   28  N5  UNL     1      27.703  -1.074  53.443  1.00  0.00    -0.328 N 
HETATM   29  H14 UNL     1      26.801  -1.616  53.423  1.00  0.00     0.168 HD
ENDBRANCH  21  23
ENDBRANCH   9  11
ENDBRANCH   7   9
TORSDOF 3
ENDMDL
MODEL 8
REMARK VINA RESULT:      -8.2      5.419      8.257
REMARK  3 active torsions:
REMARK  status: ('A' for Active; 'I' for Inactive)
REMARK    1  A    between atoms: C7_7  and  N1_8 
REMARK    2  A    between atoms: N1_8  and  C8_9 
REMARK    3  A    between atoms: C14_18  and  C15_19 
ROOT
HETATM    1  C1  UNL     1      15.354  -1.662  50.572  1.00  0.00     0.018 C 
HETATM    2  C2  UNL     1      16.114  -0.756  50.794  1.00  0.00    -0.078 C 
HETATM    3  C3  UNL     1      17.005   0.332  51.075  1.00  0.00     0.019 A 
HETATM    4  C4  UNL     1      16.445   1.586  51.150  1.00  0.00     0.021 A 
HETATM    5  C5  UNL     1      17.269   2.653  51.420  1.00  0.00     0.004 A 
HETATM    6  C6  UNL     1      18.612   2.443  51.606  1.00  0.00     0.029 A 
HETATM    7  C7  UNL     1      19.249   1.207  51.545  1.00  0.00     0.035 A 
HETATM    8  C19 UNL     1      18.359   0.202  51.273  1.00  0.00     0.050 A 
ENDROOT
BRANCH   7   9
HETATM    9  N1  UNL     1      20.633   0.971  51.737  1.00  0.00    -0.340 N 
HETATM   10  H5  UNL     1      21.104   1.533  51.009  1.00  0.00     0.167 HD
BRANCH   9  11
HETATM   11  C8  UNL     1      21.236   0.183  52.720  1.00  0.00     0.142 A 
HETATM   12  N2  UNL     1      20.627  -0.636  53.573  1.00  0.00    -0.223 NA
HETATM   13  C9  UNL     1      21.201  -1.386  54.510  1.00  0.00     0.236 A 
HETATM   14  N3  UNL     1      22.538  -1.342  54.646  1.00  0.00    -0.234 NA
HETATM   15  C10 UNL     1      23.272  -0.540  53.828  1.00  0.00     0.111 A 
HETATM   16  C11 UNL     1      22.598   0.218  52.864  1.00  0.00     0.047 A 
HETATM   17  S1  UNL     1      25.014  -0.669  54.247  1.00  0.00    -0.078 SA
HETATM   18  C12 UNL     1      23.342   1.050  51.947  1.00  0.00     0.035 C 
HETATM   19  C13 UNL     1      24.494   1.687  51.861  1.00  0.00     0.085 C 
HETATM   20  N4  UNL     1      25.472   1.675  52.904  1.00  0.00    -0.380 N 
HETATM   21  C14 UNL     1      25.848   0.890  54.020  1.00  0.00     0.200 C 
HETATM   22  H9  UNL     1      26.149   2.496  52.857  1.00  0.00     0.160 HD
BRANCH  21  23
HETATM   23  C15 UNL     1      27.316   0.598  53.903  1.00  0.00     0.042 A 
HETATM   24  C16 UNL     1      28.291   1.461  53.672  1.00  0.00     0.010 A 
HETATM   25  C17 UNL     1      29.642   0.840  53.616  1.00  0.00     0.132 A 
HETATM   26  C18 UNL     1      29.362  -0.604  53.855  1.00  0.00     0.225 A 
HETATM   27  O1  UNL     1      30.128  -1.577  53.913  1.00  0.00    -0.273 OA
HETATM   28  N5  UNL     1      27.950  -0.676  54.018  1.00  0.00    -0.328 N 
HETATM   29  H14 UNL     1      27.416  -1.564  54.206  1.00  0.00     0.168 HD
ENDBRANCH  21  23
ENDBRANCH   9  11
ENDBRANCH   7   9
TORSDOF 3
ENDMDL
MODEL 9
REMARK VINA RESULT:      -8.2      3.689      7.537
REMARK  3 active torsions:
REMARK  status: ('A' for Active; 'I' for Inactive)
REMARK    1  A    between atoms: C7_7  and  N1_8 
REMARK    2  A    between atoms: N1_8  and  C8_9 
REMARK    3  A    between atoms: C14_18  and  C15_19 
ROOT
HETATM    1  C1  UNL     1      26.342   8.550  46.652  1.00  0.00     0.018 C 
HETATM    2  C2  UNL     1      25.546   8.101  47.435  1.00  0.00    -0.078 C 
HETATM    3  C3  UNL     1      24.582   7.584  48.362  1.00  0.00     0.019 A 
HETATM    4  C4  UNL     1      24.002   8.490  49.220  1.00  0.00     0.021 A 
HETATM    5  C5  UNL     1      23.073   8.030  50.123  1.00  0.00     0.004 A 
HETATM    6  C6  UNL     1      22.750   6.697  50.144  1.00  0.00     0.029 A 
HETATM    7  C7  UNL     1      23.293   5.724  49.310  1.00  0.00     0.035 A 
HETATM    8  C19 UNL     1      24.206   6.264  48.445  1.00  0.00     0.050 A 
ENDROOT
BRANCH   7   9
HETATM    9  N1  UNL     1      22.970   4.344  49.316  1.00  0.00    -0.340 N 
HETATM   10  H5  UNL     1      22.896   4.081  48.320  1.00  0.00     0.167 HD
BRANCH   9  11
HETATM   11  C8  UNL     1      22.820   3.509  50.426  1.00  0.00     0.142 A 
HETATM   12  N2  UNL     1      21.698   3.262  51.095  1.00  0.00    -0.223 NA
HETATM   13  C9  UNL     1      21.557   2.468  52.153  1.00  0.00     0.236 A 
HETATM   14  N3  UNL     1      22.636   1.826  52.631  1.00  0.00    -0.234 NA
HETATM   15  C10 UNL     1      23.844   1.998  52.029  1.00  0.00     0.111 A 
HETATM   16  C11 UNL     1      23.915   2.848  50.919  1.00  0.00     0.047 A 
HETATM   17  S1  UNL     1      25.099   1.042  52.886  1.00  0.00    -0.078 SA
HETATM   18  C12 UNL     1      25.168   3.027  50.223  1.00  0.00     0.035 C 
HETATM   19  C13 UNL     1      26.468   2.948  50.436  1.00  0.00     0.085 C 
HETATM   20  N4  UNL     1      27.030   2.578  51.698  1.00  0.00    -0.380 N 
HETATM   21  C14 UNL     1      26.670   1.884  52.877  1.00  0.00     0.200 C 
HETATM   22  H9  UNL     1      28.036   2.908  51.824  1.00  0.00     0.160 HD
BRANCH  21  23
HETATM   23  C15 UNL     1      27.729   0.856  53.146  1.00  0.00     0.042 A 
HETATM   24  C16 UNL     1      28.980   1.068  53.519  1.00  0.00     0.010 A 
HETATM   25  C17 UNL     1      29.773  -0.178  53.703  1.00  0.00     0.132 A 
HETATM   26  C18 UNL     1      28.794  -1.253  53.378  1.00  0.00     0.225 A 
HETATM   27  O1  UNL     1      28.923  -2.486  53.369  1.00  0.00    -0.273 OA
HETATM   28  N5  UNL     1      27.593  -0.563  53.053  1.00  0.00    -0.328 N 
HETATM   29  H14 UNL     1      26.692  -1.032  52.775  1.00  0.00     0.168 HD
ENDBRANCH  21  23
ENDBRANCH   9  11
ENDBRANCH   7   9
TORSDOF 3
ENDMDL
