MODEL 1
REMARK VINA RESULT:      -9.2      0.000      0.000
REMARK  4 active torsions:
REMARK  status: ('A' for Active; 'I' for Inactive)
REMARK    1  A    between atoms: N1_1  and  C1_2 
REMARK    2  A    between atoms: C1_2  and  N2_3 
REMARK    3  A    between atoms: C4_6  and  N3_7 
REMARK    4  A    between atoms: C4_6  and  C5_8 
ROOT
HETATM    1  N2  UNL     1      24.580   3.677  50.925  1.00  0.00    -0.259 NA
HETATM    2  C2  UNL     1      24.158   2.564  51.072  1.00  0.00     0.076 C 
HETATM    3  C3  UNL     1      24.932   1.698  52.032  1.00  0.00     0.021 C 
HETATM    4  C4  UNL     1      26.191   2.005  52.062  1.00  0.00     0.049 C 
HETATM    5  C11 UNL     1      24.593   0.597  52.966  1.00  0.00     0.028 C 
HETATM    6  C12 UNL     1      23.586  -0.266  52.851  1.00  0.00    -0.029 C 
HETATM    7  C13 UNL     1      22.347   0.193  52.761  1.00  0.00    -0.010 C 
HETATM    8  C14 UNL     1      21.247   0.834  51.985  1.00  0.00     0.067 C 
HETATM    9  C15 UNL     1      21.780   1.467  50.737  1.00  0.00    -0.042 A 
HETATM   10  C16 UNL     1      20.824   1.294  49.728  1.00  0.00     0.008 A 
HETATM   11  C17 UNL     1      21.032   1.761  48.449  1.00  0.00     0.001 A 
HETATM   12  C18 UNL     1      22.207   2.428  48.104  1.00  0.00     0.001 A 
HETATM   13  C19 UNL     1      23.159   2.610  49.073  1.00  0.00     0.014 A 
HETATM   14  C20 UNL     1      22.941   2.144  50.337  1.00  0.00    -0.000 A 
ENDROOT
BRANCH   4  15
HETATM   15  N3  UNL     1      26.743   3.040  51.276  1.00  0.00    -0.398 N 
HETATM   16  H5  UNL     1      27.307   3.894  51.167  1.00  0.00     0.156 HD
HETATM   17  H6  UNL     1      26.559   3.094  50.258  1.00  0.00     0.156 HD
ENDBRANCH   4  15
BRANCH   4  18
HETATM   18  C5  UNL     1      27.328   1.444  52.770  1.00  0.00    -0.008 A 
HETATM   19  C6  UNL     1      28.088   2.308  53.558  1.00  0.00     0.014 A 
HETATM   20  C7  UNL     1      29.203   1.968  54.292  1.00  0.00     0.002 A 
HETATM   21  C8  UNL     1      29.572   0.639  54.218  1.00  0.00     0.019 A 
HETATM   22  C9  UNL     1      28.873  -0.269  53.464  1.00  0.00     0.011 A 
HETATM   23 BR1  UNL     1      29.373  -2.125  53.347  1.00  0.00    -0.051 Br
HETATM   24  C10 UNL     1      27.749   0.111  52.733  1.00  0.00     0.032 A 
ENDBRANCH   4  18
BRANCH   1  25
HETATM   25  C1  UNL     1      24.418   4.883  50.298  1.00  0.00     0.415 C 
BRANCH  25  26
HETATM   26  N1  UNL     1      25.480   5.884  50.456  1.00  0.00     0.097 NA
HETATM   27  H1  UNL     1      25.597   6.363  49.553  1.00  0.00     0.315 HD
HETATM   28  H2  UNL     1      25.287   6.571  51.197  1.00  0.00     0.315 HD
ENDBRANCH  25  26
ENDBRANCH   1  25
TORSDOF 4
ENDMDL
MODEL 2
REMARK VINA RESULT:      -9.0      3.286      5.295
REMARK  4 active torsions:
REMARK  status: ('A' for Active; 'I' for Inactive)
REMARK    1  A    between atoms: N1_1  and  C1_2 
REMARK    2  A    between atoms: C1_2  and  N2_3 
REMARK    3  A    between atoms: C4_6  and  N3_7 
REMARK    4  A    between atoms: C4_6  and  C5_8 
ROOT
HETATM    1  N2  UNL     1      24.730   1.253  51.922  1.00  0.00    -0.259 NA
HETATM    2  C2  UNL     1      23.798   1.678  51.299  1.00  0.00     0.076 C 
HETATM    3  C3  UNL     1      24.131   2.710  50.254  1.00  0.00     0.021 C 
HETATM    4  C4  UNL     1      25.169   3.418  50.577  1.00  0.00     0.049 C 
HETATM    5  C11 UNL     1      23.571   3.093  48.935  1.00  0.00     0.028 C 
HETATM    6  C12 UNL     1      22.310   2.955  48.532  1.00  0.00    -0.029 C 
HETATM    7  C13 UNL     1      21.754   1.753  48.548  1.00  0.00    -0.010 C 
HETATM    8  C14 UNL     1      21.134   0.613  49.282  1.00  0.00     0.067 C 
HETATM    9  C15 UNL     1      21.398   0.725  50.751  1.00  0.00    -0.042 A 
HETATM   10  C16 UNL     1      20.258   0.266  51.426  1.00  0.00     0.008 A 
HETATM   11  C17 UNL     1      20.190   0.257  52.802  1.00  0.00     0.001 A 
HETATM   12  C18 UNL     1      21.255   0.705  53.584  1.00  0.00     0.001 A 
HETATM   13  C19 UNL     1      22.381   1.160  52.948  1.00  0.00     0.014 A 
HETATM   14  C20 UNL     1      22.437   1.163  51.584  1.00  0.00    -0.000 A 
ENDROOT
BRANCH   4  15
HETATM   15  N3  UNL     1      25.884   3.217  51.777  1.00  0.00    -0.398 N 
HETATM   16  H5  UNL     1      26.712   3.354  52.374  1.00  0.00     0.156 HD
HETATM   17  H6  UNL     1      25.491   2.644  52.545  1.00  0.00     0.156 HD
ENDBRANCH   4  15
BRANCH   4  18
HETATM   18  C5  UNL     1      25.837   4.540  49.941  1.00  0.00    -0.008 A 
HETATM   19  C6  UNL     1      26.962   4.264  49.164  1.00  0.00     0.014 A 
HETATM   20  C7  UNL     1      27.731   5.190  48.495  1.00  0.00     0.002 A 
HETATM   21  C8  UNL     1      27.321   6.502  48.627  1.00  0.00     0.019 A 
HETATM   22  C9  UNL     1      26.224   6.848  49.375  1.00  0.00     0.011 A 
HETATM   23 BR1  UNL     1      25.637   8.672  49.572  1.00  0.00    -0.051 Br
HETATM   24  C10 UNL     1      25.468   5.884  50.039  1.00  0.00     0.032 A 
ENDBRANCH   4  18
BRANCH   1  25
HETATM   25  C1  UNL     1      25.150   0.398  52.905  1.00  0.00     0.415 C 
BRANCH  25  26
HETATM   26  N1  UNL     1      26.071   0.922  53.920  1.00  0.00     0.097 NA
HETATM   27  H1  UNL     1      26.819   0.228  54.054  1.00  0.00     0.315 HD
HETATM   28  H2  UNL     1      26.477   1.834  53.673  1.00  0.00     0.315 HD
ENDBRANCH  25  26
ENDBRANCH   1  25
TORSDOF 4
ENDMDL
MODEL 3
REMARK VINA RESULT:      -8.7      3.225      5.715
REMARK  4 active torsions:
REMARK  status: ('A' for Active; 'I' for Inactive)
REMARK    1  A    between atoms: N1_1  and  C1_2 
REMARK    2  A    between atoms: C1_2  and  N2_3 
REMARK    3  A    between atoms: C4_6  and  N3_7 
REMARK    4  A    between atoms: C4_6  and  C5_8 
ROOT
HETATM    1  N2  UNL     1      25.947   2.227  52.536  1.00  0.00    -0.259 NA
HETATM    2  C2  UNL     1      25.064   2.780  51.943  1.00  0.00     0.076 C 
HETATM    3  C3  UNL     1      23.666   2.375  52.333  1.00  0.00     0.021 C 
HETATM    4  C4  UNL     1      23.607   1.144  52.736  1.00  0.00     0.049 C 
HETATM    5  C11 UNL     1      22.349   3.055  52.388  1.00  0.00     0.028 C 
HETATM    6  C12 UNL     1      21.945   4.076  51.636  1.00  0.00    -0.029 C 
HETATM    7  C13 UNL     1      22.651   5.196  51.633  1.00  0.00    -0.010 C 
HETATM    8  C14 UNL     1      23.843   5.985  51.207  1.00  0.00     0.067 C 
HETATM    9  C15 UNL     1      24.906   5.082  50.661  1.00  0.00    -0.042 A 
HETATM   10  C16 UNL     1      25.531   5.752  49.601  1.00  0.00     0.008 A 
HETATM   11  C17 UNL     1      26.551   5.170  48.881  1.00  0.00     0.001 A 
HETATM   12  C18 UNL     1      27.007   3.885  49.179  1.00  0.00     0.001 A 
HETATM   13  C19 UNL     1      26.411   3.208  50.211  1.00  0.00     0.014 A 
HETATM   14  C20 UNL     1      25.402   3.796  50.918  1.00  0.00    -0.000 A 
ENDROOT
BRANCH   4  15
HETATM   15  N3  UNL     1      24.741   0.306  52.794  1.00  0.00    -0.398 N 
HETATM   16  H5  UNL     1      25.323  -0.403  53.263  1.00  0.00     0.156 HD
HETATM   17  H6  UNL     1      25.447   0.308  52.036  1.00  0.00     0.156 HD
ENDBRANCH   4  15
BRANCH   4  18
HETATM   18  C5  UNL     1      22.508   0.294  53.159  1.00  0.00    -0.008 A 
HETATM   19  C6  UNL     1      22.770  -0.657  54.144  1.00  0.00     0.014 A 
HETATM   20  C7  UNL     1      21.866  -1.556  54.665  1.00  0.00     0.002 A 
HETATM   21  C8  UNL     1      20.590  -1.478  54.140  1.00  0.00     0.019 A 
HETATM   22  C9  UNL     1      20.259  -0.567  53.169  1.00  0.00     0.011 A 
HETATM   23 BR1  UNL     1      18.487  -0.444  52.424  1.00  0.00    -0.051 Br
HETATM   24  C10 UNL     1      21.201   0.328  52.665  1.00  0.00     0.032 A 
ENDBRANCH   4  18
BRANCH   1  25
HETATM   25  C1  UNL     1      27.299   2.098  52.707  1.00  0.00     0.415 C 
BRANCH  25  26
HETATM   26  N1  UNL     1      27.905   2.742  53.878  1.00  0.00     0.097 NA
HETATM   27  H1  UNL     1      28.657   3.360  53.542  1.00  0.00     0.315 HD
HETATM   28  H2  UNL     1      27.234   3.279  54.442  1.00  0.00     0.315 HD
ENDBRANCH  25  26
ENDBRANCH   1  25
TORSDOF 4
ENDMDL
MODEL 4
REMARK VINA RESULT:      -8.6      1.916      2.765
REMARK  4 active torsions:
REMARK  status: ('A' for Active; 'I' for Inactive)
REMARK    1  A    between atoms: N1_1  and  C1_2 
REMARK    2  A    between atoms: C1_2  and  N2_3 
REMARK    3  A    between atoms: C4_6  and  N3_7 
REMARK    4  A    between atoms: C4_6  and  C5_8 
ROOT
HETATM    1  N2  UNL     1      22.561   2.485  51.825  1.00  0.00    -0.259 NA
HETATM    2  C2  UNL     1      22.278   1.361  52.128  1.00  0.00     0.076 C 
HETATM    3  C3  UNL     1      23.363   0.583  52.826  1.00  0.00     0.021 C 
HETATM    4  C4  UNL     1      24.548   0.956  52.455  1.00  0.00     0.049 C 
HETATM    5  C11 UNL     1      23.399  -0.490  53.850  1.00  0.00     0.028 C 
HETATM    6  C12 UNL     1      22.463  -1.408  54.078  1.00  0.00    -0.029 C 
HETATM    7  C13 UNL     1      21.230  -1.018  54.364  1.00  0.00    -0.010 C 
HETATM    8  C14 UNL     1      19.906  -0.473  53.949  1.00  0.00     0.067 C 
HETATM    9  C15 UNL     1      19.988   0.127  52.579  1.00  0.00    -0.042 A 
HETATM   10  C16 UNL     1      18.780  -0.143  51.922  1.00  0.00     0.008 A 
HETATM   11  C17 UNL     1      18.554   0.273  50.629  1.00  0.00     0.001 A 
HETATM   12  C18 UNL     1      19.521   0.983  49.917  1.00  0.00     0.001 A 
HETATM   13  C19 UNL     1      20.711   1.260  50.537  1.00  0.00     0.014 A 
HETATM   14  C20 UNL     1      20.923   0.844  51.819  1.00  0.00    -0.000 A 
ENDROOT
BRANCH   4  15
HETATM   15  N3  UNL     1      24.764   1.979  51.507  1.00  0.00    -0.398 N 
HETATM   16  H5  UNL     1      25.259   2.818  51.174  1.00  0.00     0.156 HD
HETATM   17  H6  UNL     1      24.186   2.044  50.650  1.00  0.00     0.156 HD
ENDBRANCH   4  15
BRANCH   4  18
HETATM   18  C5  UNL     1      25.881   0.488  52.792  1.00  0.00    -0.008 A 
HETATM   19  C6  UNL     1      26.206  -0.827  52.461  1.00  0.00     0.014 A 
HETATM   20  C7  UNL     1      27.409  -1.452  52.708  1.00  0.00     0.002 A 
HETATM   21  C8  UNL     1      28.358  -0.673  53.342  1.00  0.00     0.019 A 
HETATM   22  C9  UNL     1      28.109   0.629  53.697  1.00  0.00     0.011 A 
HETATM   23 BR1  UNL     1      29.418   1.730  54.582  1.00  0.00    -0.051 Br
HETATM   24  C10 UNL     1      26.879   1.229  53.431  1.00  0.00     0.032 A 
ENDBRANCH   4  18
BRANCH   1  25
HETATM   25  C1  UNL     1      22.138   3.651  51.245  1.00  0.00     0.415 C 
BRANCH  25  26
HETATM   26  N1  UNL     1      23.126   4.445  50.505  1.00  0.00     0.097 NA
HETATM   27  H1  UNL     1      23.612   5.050  51.181  1.00  0.00     0.315 HD
HETATM   28  H2  UNL     1      23.807   3.873  49.990  1.00  0.00     0.315 HD
ENDBRANCH  25  26
ENDBRANCH   1  25
TORSDOF 4
ENDMDL
MODEL 5
REMARK VINA RESULT:      -8.2      2.405      4.052
REMARK  4 active torsions:
REMARK  status: ('A' for Active; 'I' for Inactive)
REMARK    1  A    between atoms: N1_1  and  C1_2 
REMARK    2  A    between atoms: C1_2  and  N2_3 
REMARK    3  A    between atoms: C4_6  and  N3_7 
REMARK    4  A    between atoms: C4_6  and  C5_8 
ROOT
HETATM    1  N2  UNL     1      23.092   5.183  50.859  1.00  0.00    -0.259 NA
HETATM    2  C2  UNL     1      22.912   4.380  49.988  1.00  0.00     0.076 C 
HETATM    3  C3  UNL     1      22.972   2.936  50.413  1.00  0.00     0.021 C 
HETATM    4  C4  UNL     1      23.780   2.753  51.412  1.00  0.00     0.049 C 
HETATM    5  C11 UNL     1      22.312   1.681  49.979  1.00  0.00     0.028 C 
HETATM    6  C12 UNL     1      21.850   1.401  48.763  1.00  0.00    -0.029 C 
HETATM    7  C13 UNL     1      20.948   2.200  48.214  1.00  0.00    -0.010 C 
HETATM    8  C14 UNL     1      20.576   3.474  47.533  1.00  0.00     0.067 C 
HETATM    9  C15 UNL     1      21.679   4.479  47.655  1.00  0.00    -0.042 A 
HETATM   10  C16 UNL     1      21.727   5.208  46.459  1.00  0.00     0.008 A 
HETATM   11  C17 UNL     1      22.654   6.207  46.260  1.00  0.00     0.001 A 
HETATM   12  C18 UNL     1      23.587   6.536  47.244  1.00  0.00     0.001 A 
HETATM   13  C19 UNL     1      23.562   5.837  48.423  1.00  0.00     0.014 A 
HETATM   14  C20 UNL     1      22.637   4.851  48.609  1.00  0.00    -0.000 A 
ENDROOT
BRANCH   4  15
HETATM   15  N3  UNL     1      24.502   3.807  52.011  1.00  0.00    -0.398 N 
HETATM   16  H5  UNL     1      25.186   4.576  51.972  1.00  0.00     0.156 HD
HETATM   17  H6  UNL     1      24.383   4.034  53.015  1.00  0.00     0.156 HD
ENDBRANCH   4  15
BRANCH   4  18
HETATM   18  C5  UNL     1      24.208   1.567  52.131  1.00  0.00    -0.008 A 
HETATM   19  C6  UNL     1      25.492   1.086  51.877  1.00  0.00     0.014 A 
HETATM   20  C7  UNL     1      26.070  -0.025  52.449  1.00  0.00     0.002 A 
HETATM   21  C8  UNL     1      25.276  -0.702  53.354  1.00  0.00     0.019 A 
HETATM   22  C9  UNL     1      24.002  -0.288  53.654  1.00  0.00     0.011 A 
HETATM   23 BR1  UNL     1      22.878  -1.218  54.912  1.00  0.00    -0.051 Br
HETATM   24  C10 UNL     1      23.449   0.842  53.055  1.00  0.00     0.032 A 
ENDBRANCH   4  18
BRANCH   1  25
HETATM   25  C1  UNL     1      23.170   6.510  51.188  1.00  0.00     0.415 C 
BRANCH  25  26
HETATM   26  N1  UNL     1      24.353   6.964  51.927  1.00  0.00     0.097 NA
HETATM   27  H1  UNL     1      24.983   6.158  52.038  1.00  0.00     0.315 HD
HETATM   28  H2  UNL     1      24.849   7.739  51.468  1.00  0.00     0.315 HD
ENDBRANCH  25  26
ENDBRANCH   1  25
TORSDOF 4
ENDMDL
MODEL 6
REMARK VINA RESULT:      -8.2      2.182      3.501
REMARK  4 active torsions:
REMARK  status: ('A' for Active; 'I' for Inactive)
REMARK    1  A    between atoms: N1_1  and  C1_2 
REMARK    2  A    between atoms: C1_2  and  N2_3 
REMARK    3  A    between atoms: C4_6  and  N3_7 
REMARK    4  A    between atoms: C4_6  and  C5_8 
ROOT
HETATM    1  N2  UNL     1      22.912   0.669  52.027  1.00  0.00    -0.259 NA
HETATM    2  C2  UNL     1      23.344   1.719  51.643  1.00  0.00     0.076 C 
HETATM    3  C3  UNL     1      24.845   1.845  51.650  1.00  0.00     0.021 C 
HETATM    4  C4  UNL     1      25.391   1.137  52.590  1.00  0.00     0.049 C 
HETATM    5  C11 UNL     1      25.846   2.565  50.827  1.00  0.00     0.028 C 
HETATM    6  C12 UNL     1      25.661   3.698  50.153  1.00  0.00    -0.029 C 
HETATM    7  C13 UNL     1      24.699   3.760  49.244  1.00  0.00    -0.010 C 
HETATM    8  C14 UNL     1      23.259   3.872  48.875  1.00  0.00     0.067 C 
HETATM    9  C15 UNL     1      22.387   3.606  50.063  1.00  0.00    -0.042 A 
HETATM   10  C16 UNL     1      21.278   4.458  49.978  1.00  0.00     0.008 A 
HETATM   11  C17 UNL     1      20.293   4.457  50.942  1.00  0.00     0.001 A 
HETATM   12  C18 UNL     1      20.359   3.606  52.045  1.00  0.00     0.001 A 
HETATM   13  C19 UNL     1      21.434   2.763  52.152  1.00  0.00     0.014 A 
HETATM   14  C20 UNL     1      22.403   2.772  51.190  1.00  0.00    -0.000 A 
ENDROOT
BRANCH   4  15
HETATM   15  N3  UNL     1      24.638   0.346  53.484  1.00  0.00    -0.398 N 
HETATM   16  H5  UNL     1      24.518  -0.484  54.082  1.00  0.00     0.156 HD
HETATM   17  H6  UNL     1      23.683   0.626  53.771  1.00  0.00     0.156 HD
ENDBRANCH   4  15
BRANCH   4  18
HETATM   18  C5  UNL     1      26.766   0.969  53.028  1.00  0.00    -0.008 A 
HETATM   19  C6  UNL     1      27.443   2.102  53.476  1.00  0.00     0.014 A 
HETATM   20  C7  UNL     1      28.747   2.146  53.918  1.00  0.00     0.002 A 
HETATM   21  C8  UNL     1      29.414   0.937  53.904  1.00  0.00     0.019 A 
HETATM   22  C9  UNL     1      28.812  -0.220  53.476  1.00  0.00     0.011 A 
HETATM   23 BR1  UNL     1      29.726  -1.915  53.447  1.00  0.00    -0.051 Br
HETATM   24  C10 UNL     1      27.490  -0.227  53.035  1.00  0.00     0.032 A 
ENDBRANCH   4  18
BRANCH   1  25
HETATM   25  C1  UNL     1      21.794  -0.085  52.266  1.00  0.00     0.415 C 
BRANCH  25  26
HETATM   26  N1  UNL     1      21.725  -0.824  53.532  1.00  0.00     0.097 NA
HETATM   27  H1  UNL     1      22.657  -0.791  53.967  1.00  0.00     0.315 HD
HETATM   28  H2  UNL     1      21.020  -0.455  54.183  1.00  0.00     0.315 HD
ENDBRANCH  25  26
ENDBRANCH   1  25
TORSDOF 4
ENDMDL
MODEL 7
REMARK VINA RESULT:      -8.1      4.206      7.641
REMARK  4 active torsions:
REMARK  status: ('A' for Active; 'I' for Inactive)
REMARK    1  A    between atoms: N1_1  and  C1_2 
REMARK    2  A    between atoms: C1_2  and  N2_3 
REMARK    3  A    between atoms: C4_6  and  N3_7 
REMARK    4  A    between atoms: C4_6  and  C5_8 
ROOT
HETATM    1  N2  UNL     1      23.155  -0.342  54.173  1.00  0.00    -0.259 NA
HETATM    2  C2  UNL     1      23.080   0.466  53.291  1.00  0.00     0.076 C 
HETATM    3  C3  UNL     1      21.685   0.790  52.823  1.00  0.00     0.021 C 
HETATM    4  C4  UNL     1      20.879  -0.219  52.952  1.00  0.00     0.049 C 
HETATM    5  C11 UNL     1      21.010   1.990  52.274  1.00  0.00     0.028 C 
HETATM    6  C12 UNL     1      21.573   2.976  51.579  1.00  0.00    -0.029 C 
HETATM    7  C13 UNL     1      22.584   3.646  52.110  1.00  0.00    -0.010 C 
HETATM    8  C14 UNL     1      24.021   3.750  52.494  1.00  0.00     0.067 C 
HETATM    9  C15 UNL     1      24.674   2.403  52.465  1.00  0.00    -0.042 A 
HETATM   10  C16 UNL     1      25.986   2.573  52.003  1.00  0.00     0.008 A 
HETATM   11  C17 UNL     1      26.842   1.505  51.853  1.00  0.00     0.001 A 
HETATM   12  C18 UNL     1      26.439   0.205  52.157  1.00  0.00     0.001 A 
HETATM   13  C19 UNL     1      25.160   0.010  52.611  1.00  0.00     0.014 A 
HETATM   14  C20 UNL     1      24.321   1.077  52.756  1.00  0.00    -0.000 A 
ENDROOT
BRANCH   4  15
HETATM   15  N3  UNL     1      21.292  -1.462  53.477  1.00  0.00    -0.398 N 
HETATM   16  H5  UNL     1      21.649  -2.050  54.244  1.00  0.00     0.156 HD
HETATM   17  H6  UNL     1      21.295  -2.316  52.891  1.00  0.00     0.156 HD
ENDBRANCH   4  15
BRANCH   4  18
HETATM   18  C5  UNL     1      19.483  -0.418  52.605  1.00  0.00    -0.008 A 
HETATM   19  C6  UNL     1      18.703  -1.172  53.481  1.00  0.00     0.014 A 
HETATM   20  C7  UNL     1      17.369  -1.478  53.320  1.00  0.00     0.002 A 
HETATM   21  C8  UNL     1      16.784  -0.974  52.175  1.00  0.00     0.019 A 
HETATM   22  C9  UNL     1      17.490  -0.223  51.268  1.00  0.00     0.011 A 
HETATM   23 BR1  UNL     1      16.692   0.487  49.666  1.00  0.00    -0.051 Br
HETATM   24  C10 UNL     1      18.838   0.067  51.464  1.00  0.00     0.032 A 
ENDBRANCH   4  18
BRANCH   1  25
HETATM   25  C1  UNL     1      23.982  -1.043  55.010  1.00  0.00     0.415 C 
BRANCH  25  26
HETATM   26  N1  UNL     1      23.361  -1.878  56.044  1.00  0.00     0.097 NA
HETATM   27  H1  UNL     1      23.943  -2.718  56.163  1.00  0.00     0.315 HD
HETATM   28  H2  UNL     1      23.250  -1.396  56.946  1.00  0.00     0.315 HD
ENDBRANCH  25  26
ENDBRANCH   1  25
TORSDOF 4
ENDMDL
MODEL 8
REMARK VINA RESULT:      -8.1      3.536      7.327
REMARK  4 active torsions:
REMARK  status: ('A' for Active; 'I' for Inactive)
REMARK    1  A    between atoms: N1_1  and  C1_2 
REMARK    2  A    between atoms: C1_2  and  N2_3 
REMARK    3  A    between atoms: C4_6  and  N3_7 
REMARK    4  A    between atoms: C4_6  and  C5_8 
ROOT
HETATM    1  N2  UNL     1      24.178  -0.401  53.992  1.00  0.00    -0.259 NA
HETATM    2  C2  UNL     1      24.830   0.121  53.132  1.00  0.00     0.076 C 
HETATM    3  C3  UNL     1      24.073   1.041  52.210  1.00  0.00     0.021 C 
HETATM    4  C4  UNL     1      22.838   0.676  52.060  1.00  0.00     0.049 C 
HETATM    5  C11 UNL     1      24.397   2.275  51.454  1.00  0.00     0.028 C 
HETATM    6  C12 UNL     1      25.590   2.637  50.989  1.00  0.00    -0.029 C 
HETATM    7  C13 UNL     1      26.606   2.750  51.831  1.00  0.00    -0.010 C 
HETATM    8  C14 UNL     1      27.664   2.140  52.687  1.00  0.00     0.067 C 
HETATM    9  C15 UNL     1      27.400   0.681  52.894  1.00  0.00    -0.042 A 
HETATM   10  C16 UNL     1      28.636   0.021  52.911  1.00  0.00     0.008 A 
HETATM   11  C17 UNL     1      28.722  -1.344  53.073  1.00  0.00     0.001 A 
HETATM   12  C18 UNL     1      27.580  -2.130  53.229  1.00  0.00     0.001 A 
HETATM   13  C19 UNL     1      26.358  -1.508  53.215  1.00  0.00     0.014 A 
HETATM   14  C20 UNL     1      26.285  -0.155  53.055  1.00  0.00    -0.000 A 
ENDROOT
BRANCH   4  15
HETATM   15  N3  UNL     1      22.295  -0.457  52.704  1.00  0.00    -0.398 N 
HETATM   16  H5  UNL     1      21.528  -1.122  52.876  1.00  0.00     0.156 HD
HETATM   17  H6  UNL     1      22.845  -0.993  53.398  1.00  0.00     0.156 HD
ENDBRANCH   4  15
BRANCH   4  18
HETATM   18  C5  UNL     1      21.746   1.193  51.255  1.00  0.00    -0.008 A 
HETATM   19  C6  UNL     1      21.739   0.875  49.897  1.00  0.00     0.014 A 
HETATM   20  C7  UNL     1      20.800   1.279  48.974  1.00  0.00     0.002 A 
HETATM   21  C8  UNL     1      19.785   2.070  49.475  1.00  0.00     0.019 A 
HETATM   22  C9  UNL     1      19.726   2.423  50.800  1.00  0.00     0.011 A 
HETATM   23 BR1  UNL     1      18.320   3.526  51.518  1.00  0.00    -0.051 Br
HETATM   24  C10 UNL     1      20.695   1.996  51.706  1.00  0.00     0.032 A 
ENDBRANCH   4  18
BRANCH   1  25
HETATM   25  C1  UNL     1      24.178  -1.249  55.067  1.00  0.00     0.415 C 
BRANCH  25  26
HETATM   26  N1  UNL     1      22.880  -1.643  55.627  1.00  0.00     0.097 NA
HETATM   27  H1  UNL     1      22.340  -0.785  55.804  1.00  0.00     0.315 HD
HETATM   28  H2  UNL     1      22.347  -2.276  55.017  1.00  0.00     0.315 HD
ENDBRANCH  25  26
ENDBRANCH   1  25
TORSDOF 4
ENDMDL
MODEL 9
REMARK VINA RESULT:      -8.0      3.430      6.317
REMARK  4 active torsions:
REMARK  status: ('A' for Active; 'I' for Inactive)
REMARK    1  A    between atoms: N1_1  and  C1_2 
REMARK    2  A    between atoms: C1_2  and  N2_3 
REMARK    3  A    between atoms: C4_6  and  N3_7 
REMARK    4  A    between atoms: C4_6  and  C5_8 
ROOT
HETATM    1  N2  UNL     1      25.372   2.875  50.469  1.00  0.00    -0.259 NA
HETATM    2  C2  UNL     1      24.228   3.020  50.143  1.00  0.00     0.076 C 
HETATM    3  C3  UNL     1      23.951   4.206  49.256  1.00  0.00     0.021 C 
HETATM    4  C4  UNL     1      24.770   5.186  49.479  1.00  0.00     0.049 C 
HETATM    5  C11 UNL     1      22.981   4.509  48.176  1.00  0.00     0.028 C 
HETATM    6  C12 UNL     1      21.763   3.994  48.028  1.00  0.00    -0.029 C 
HETATM    7  C13 UNL     1      21.622   2.680  47.941  1.00  0.00    -0.010 C 
HETATM    8  C14 UNL     1      21.590   1.328  48.569  1.00  0.00     0.067 C 
HETATM    9  C15 UNL     1      22.175   1.371  49.946  1.00  0.00    -0.042 A 
HETATM   10  C16 UNL     1      21.444   0.486  50.749  1.00  0.00     0.008 A 
HETATM   11  C17 UNL     1      21.737   0.313  52.084  1.00  0.00     0.001 A 
HETATM   12  C18 UNL     1      22.779   1.012  52.694  1.00  0.00     0.001 A 
HETATM   13  C19 UNL     1      23.510   1.885  51.930  1.00  0.00     0.014 A 
HETATM   14  C20 UNL     1      23.210   2.047  50.608  1.00  0.00    -0.000 A 
ENDROOT
BRANCH   4  15
HETATM   15  N3  UNL     1      25.796   5.117  50.445  1.00  0.00    -0.398 N 
HETATM   16  H5  UNL     1      26.623   5.505  50.920  1.00  0.00     0.156 HD
HETATM   17  H6  UNL     1      25.888   4.296  51.070  1.00  0.00     0.156 HD
ENDBRANCH   4  15
BRANCH   4  18
HETATM   18  C5  UNL     1      24.878   6.526  48.932  1.00  0.00    -0.008 A 
HETATM   19  C6  UNL     1      24.006   7.496  49.424  1.00  0.00     0.014 A 
HETATM   20  C7  UNL     1      23.947   8.813  49.025  1.00  0.00     0.002 A 
HETATM   21  C8  UNL     1      24.852   9.171  48.044  1.00  0.00     0.019 A 
HETATM   22  C9  UNL     1      25.740   8.271  47.512  1.00  0.00     0.011 A 
HETATM   23 BR1  UNL     1      27.008   8.750  46.143  1.00  0.00    -0.051 Br
HETATM   24  C10 UNL     1      25.771   6.945  47.941  1.00  0.00     0.032 A 
ENDBRANCH   4  18
BRANCH   1  25
HETATM   25  C1  UNL     1      26.271   2.116  51.171  1.00  0.00     0.415 C 
BRANCH  25  26
HETATM   26  N1  UNL     1      27.384   2.808  51.830  1.00  0.00     0.097 NA
HETATM   27  H1  UNL     1      27.179   3.816  51.818  1.00  0.00     0.315 HD
HETATM   28  H2  UNL     1      27.547   2.493  52.795  1.00  0.00     0.315 HD
ENDBRANCH  25  26
ENDBRANCH   1  25
TORSDOF 4
ENDMDL
