MODEL 1
REMARK VINA RESULT:      -9.6      0.000      0.000
REMARK  4 active torsions:
REMARK  status: ('A' for Active; 'I' for Inactive)
REMARK    1  A    between atoms: C4_6  and  N3_7 
REMARK    2  A    between atoms: N3_7  and  C5_8 
REMARK    3  A    between atoms: C13_17  and  N4_18 
REMARK       I    between atoms: N4_18  and  C14_19 
REMARK    4  A    between atoms: C14_19  and  C15_21 
ROOT
HETATM    1  N1  UNL     1      19.019   0.023  52.309  1.00  0.00    -0.191 NA
HETATM    2  C1  UNL     1      19.929   0.733  52.268  1.00  0.00     0.102 C 
HETATM    3  C2  UNL     1      21.062   1.609  52.200  1.00  0.00     0.073 A 
HETATM    4  C3  UNL     1      20.892   2.891  51.697  1.00  0.00     0.142 A 
HETATM    5  N2  UNL     1      21.986   3.680  51.650  1.00  0.00    -0.241 NA
HETATM    6  C4  UNL     1      23.195   3.252  52.069  1.00  0.00     0.139 A 
HETATM    7  C11 UNL     1      23.412   1.987  52.576  1.00  0.00     0.024 A 
HETATM    8  C12 UNL     1      24.688   1.676  52.973  1.00  0.00     0.045 A 
HETATM    9  C13 UNL     1      24.793   0.377  53.473  1.00  0.00     0.035 A 
HETATM   10  C19 UNL     1      23.742  -0.491  53.559  1.00  0.00     0.030 A 
HETATM   11  C20 UNL     1      22.485  -0.101  53.138  1.00  0.00     0.016 A 
HETATM   12  C21 UNL     1      22.301   1.167  52.630  1.00  0.00     0.000 A 
ENDROOT
BRANCH   6  13
HETATM   13  N3  UNL     1      24.182   4.265  51.917  1.00  0.00    -0.340 N 
HETATM   14  H2  UNL     1      24.183   4.812  52.803  1.00  0.00     0.167 HD
BRANCH  13  15
HETATM   15  C5  UNL     1      25.045   4.561  50.823  1.00  0.00     0.035 A 
HETATM   16  C6  UNL     1      25.963   3.574  50.471  1.00  0.00     0.029 A 
HETATM   17  C7  UNL     1      26.810   3.851  49.418  1.00  0.00     0.004 A 
HETATM   18  C8  UNL     1      26.771   5.045  48.723  1.00  0.00     0.019 A 
HETATM   19  C9  UNL     1      25.841   6.026  49.093  1.00  0.00     0.013 A 
HETATM   20 BR1  UNL     1      25.690   7.722  48.209  1.00  0.00    -0.051 Br
HETATM   21  C10 UNL     1      24.974   5.762  50.159  1.00  0.00     0.048 A 
ENDBRANCH  13  15
ENDBRANCH   6  13
BRANCH   9  22
HETATM   22  N4  UNL     1      26.066  -0.091  53.927  1.00  0.00    -0.323 N 
HETATM   23  C14 UNL     1      27.004  -0.374  52.905  1.00  0.00     0.256 C 
HETATM   24  O1  UNL     1      26.771  -0.237  51.668  1.00  0.00    -0.267 OA
HETATM   25  H8  UNL     1      26.287  -0.217  54.942  1.00  0.00     0.169 HD
BRANCH  23  26
HETATM   26  C15 UNL     1      28.329  -0.855  53.269  1.00  0.00     0.032 A 
HETATM   27  C16 UNL     1      29.380  -0.227  53.779  1.00  0.00     0.017 A 
HETATM   28  C17 UNL     1      30.177  -1.447  53.793  1.00  0.00     0.002 A 
HETATM   29  C18 UNL     1      29.135  -2.066  53.287  1.00  0.00     0.017 A 
ENDBRANCH  23  26
ENDBRANCH   9  22
TORSDOF 4
ENDMDL
MODEL 2
REMARK VINA RESULT:      -9.4      1.352      1.783
REMARK  4 active torsions:
REMARK  status: ('A' for Active; 'I' for Inactive)
REMARK    1  A    between atoms: C4_6  and  N3_7 
REMARK    2  A    between atoms: N3_7  and  C5_8 
REMARK    3  A    between atoms: C13_17  and  N4_18 
REMARK       I    between atoms: N4_18  and  C14_19 
REMARK    4  A    between atoms: C14_19  and  C15_21 
ROOT
HETATM    1  N1  UNL     1      18.978  -0.992  53.428  1.00  0.00    -0.191 NA
HETATM    2  C1  UNL     1      19.762  -0.384  52.838  1.00  0.00     0.102 C 
HETATM    3  C2  UNL     1      20.738   0.358  52.094  1.00  0.00     0.073 A 
HETATM    4  C3  UNL     1      20.328   1.092  50.991  1.00  0.00     0.142 A 
HETATM    5  N2  UNL     1      21.281   1.772  50.319  1.00  0.00    -0.241 NA
HETATM    6  C4  UNL     1      22.577   1.746  50.694  1.00  0.00     0.139 A 
HETATM    7  C11 UNL     1      23.032   1.030  51.783  1.00  0.00     0.024 A 
HETATM    8  C12 UNL     1      24.373   1.090  52.063  1.00  0.00     0.045 A 
HETATM    9  C13 UNL     1      24.721   0.336  53.185  1.00  0.00     0.035 A 
HETATM   10  C19 UNL     1      23.827  -0.383  53.925  1.00  0.00     0.030 A 
HETATM   11  C20 UNL     1      22.490  -0.392  53.578  1.00  0.00     0.016 A 
HETATM   12  C21 UNL     1      22.067   0.328  52.481  1.00  0.00     0.000 A 
ENDROOT
BRANCH   6  13
HETATM   13  N3  UNL     1      23.381   2.539  49.830  1.00  0.00    -0.340 N 
HETATM   14  H2  UNL     1      23.497   1.992  48.951  1.00  0.00     0.167 HD
BRANCH  13  15
HETATM   15  C5  UNL     1      23.960   3.826  50.024  1.00  0.00     0.035 A 
HETATM   16  C6  UNL     1      23.317   4.665  50.931  1.00  0.00     0.029 A 
HETATM   17  C7  UNL     1      23.864   5.917  51.123  1.00  0.00     0.004 A 
HETATM   18  C8  UNL     1      24.997   6.347  50.461  1.00  0.00     0.019 A 
HETATM   19  C9  UNL     1      25.629   5.488  49.551  1.00  0.00     0.013 A 
HETATM   20 BR1  UNL     1      27.206   5.967  48.569  1.00  0.00    -0.051 Br
HETATM   21  C10 UNL     1      25.089   4.214  49.343  1.00  0.00     0.048 A 
ENDBRANCH  13  15
ENDBRANCH   6  13
BRANCH   9  22
HETATM   22  N4  UNL     1      26.091   0.302  53.600  1.00  0.00    -0.323 N 
HETATM   23  C14 UNL     1      26.889  -0.680  52.965  1.00  0.00     0.256 C 
HETATM   24  O1  UNL     1      26.460  -1.488  52.089  1.00  0.00    -0.267 OA
HETATM   25  H8  UNL     1      26.473   0.955  54.322  1.00  0.00     0.169 HD
BRANCH  23  26
HETATM   26  C15 UNL     1      28.296  -0.791  53.320  1.00  0.00     0.032 A 
HETATM   27  C16 UNL     1      29.122  -1.828  53.316  1.00  0.00     0.017 A 
HETATM   28  C17 UNL     1      30.236  -1.019  53.793  1.00  0.00     0.002 A 
HETATM   29  C18 UNL     1      29.416   0.007  53.798  1.00  0.00     0.017 A 
ENDBRANCH  23  26
ENDBRANCH   9  22
TORSDOF 4
ENDMDL
MODEL 3
REMARK VINA RESULT:      -9.1      2.232      5.819
REMARK  4 active torsions:
REMARK  status: ('A' for Active; 'I' for Inactive)
REMARK    1  A    between atoms: C4_6  and  N3_7 
REMARK    2  A    between atoms: N3_7  and  C5_8 
REMARK    3  A    between atoms: C13_17  and  N4_18 
REMARK       I    between atoms: N4_18  and  C14_19 
REMARK    4  A    between atoms: C14_19  and  C15_21 
ROOT
HETATM    1  N1  UNL     1      28.131  -0.218  55.374  1.00  0.00    -0.191 NA
HETATM    2  C1  UNL     1      27.629   0.343  54.498  1.00  0.00     0.102 C 
HETATM    3  C2  UNL     1      27.000   1.050  53.421  1.00  0.00     0.073 A 
HETATM    4  C3  UNL     1      27.720   2.028  52.749  1.00  0.00     0.142 A 
HETATM    5  N2  UNL     1      27.088   2.671  51.744  1.00  0.00    -0.241 NA
HETATM    6  C4  UNL     1      25.814   2.384  51.401  1.00  0.00     0.139 A 
HETATM    7  C11 UNL     1      25.060   1.421  52.040  1.00  0.00     0.024 A 
HETATM    8  C12 UNL     1      23.780   1.222  51.592  1.00  0.00     0.045 A 
HETATM    9  C13 UNL     1      23.111   0.224  52.304  1.00  0.00     0.035 A 
HETATM   10  C19 UNL     1      23.669  -0.478  53.334  1.00  0.00     0.030 A 
HETATM   11  C20 UNL     1      24.968  -0.217  53.726  1.00  0.00     0.016 A 
HETATM   12  C21 UNL     1      25.694   0.755  53.072  1.00  0.00     0.000 A 
ENDROOT
BRANCH   6  13
HETATM   13  N3  UNL     1      25.377   3.195  50.317  1.00  0.00    -0.340 N 
HETATM   14  H2  UNL     1      24.532   2.731  49.924  1.00  0.00     0.167 HD
BRANCH  13  15
HETATM   15  C5  UNL     1      25.911   4.407  49.792  1.00  0.00     0.035 A 
HETATM   16  C6  UNL     1      27.051   4.292  49.001  1.00  0.00     0.029 A 
HETATM   17  C7  UNL     1      27.583   5.459  48.493  1.00  0.00     0.004 A 
HETATM   18  C8  UNL     1      27.029   6.701  48.739  1.00  0.00     0.019 A 
HETATM   19  C9  UNL     1      25.882   6.796  49.538  1.00  0.00     0.013 A 
HETATM   20 BR1  UNL     1      25.021   8.460  49.954  1.00  0.00    -0.051 Br
HETATM   21  C10 UNL     1      25.329   5.623  50.063  1.00  0.00     0.048 A 
ENDBRANCH  13  15
ENDBRANCH   6  13
BRANCH   9  22
HETATM   22  N4  UNL     1      21.762  -0.096  51.949  1.00  0.00    -0.323 N 
HETATM   23  C14 UNL     1      20.804   0.121  52.968  1.00  0.00     0.256 C 
HETATM   24  O1  UNL     1      21.079   0.564  54.122  1.00  0.00    -0.267 OA
HETATM   25  H8  UNL     1      21.505  -0.466  51.005  1.00  0.00     0.169 HD
BRANCH  23  26
HETATM   26  C15 UNL     1      19.403  -0.175  52.701  1.00  0.00     0.032 A 
HETATM   27  C16 UNL     1      18.575   0.274  51.768  1.00  0.00     0.017 A 
HETATM   28  C17 UNL     1      17.473  -0.535  52.273  1.00  0.00     0.002 A 
HETATM   29  C18 UNL     1      18.295  -0.978  53.196  1.00  0.00     0.017 A 
ENDBRANCH  23  26
ENDBRANCH   9  22
TORSDOF 4
ENDMDL
MODEL 4
REMARK VINA RESULT:      -8.8      3.392      6.531
REMARK  4 active torsions:
REMARK  status: ('A' for Active; 'I' for Inactive)
REMARK    1  A    between atoms: C4_6  and  N3_7 
REMARK    2  A    between atoms: N3_7  and  C5_8 
REMARK    3  A    between atoms: C13_17  and  N4_18 
REMARK       I    between atoms: N4_18  and  C14_19 
REMARK    4  A    between atoms: C14_19  and  C15_21 
ROOT
HETATM    1  N1  UNL     1      25.183  -1.311  55.729  1.00  0.00    -0.191 NA
HETATM    2  C1  UNL     1      24.530  -0.887  54.876  1.00  0.00     0.102 C 
HETATM    3  C2  UNL     1      23.727  -0.371  53.806  1.00  0.00     0.073 A 
HETATM    4  C3  UNL     1      22.526  -0.997  53.505  1.00  0.00     0.142 A 
HETATM    5  N2  UNL     1      21.804  -0.479  52.488  1.00  0.00    -0.241 NA
HETATM    6  C4  UNL     1      22.222   0.597  51.789  1.00  0.00     0.139 A 
HETATM    7  C11 UNL     1      23.408   1.252  52.053  1.00  0.00     0.024 A 
HETATM    8  C12 UNL     1      23.717   2.337  51.274  1.00  0.00     0.045 A 
HETATM    9  C13 UNL     1      24.933   2.925  51.629  1.00  0.00     0.035 A 
HETATM   10  C19 UNL     1      25.729   2.471  52.641  1.00  0.00     0.030 A 
HETATM   11  C20 UNL     1      25.347   1.369  53.381  1.00  0.00     0.016 A 
HETATM   12  C21 UNL     1      24.159   0.732  53.091  1.00  0.00     0.000 A 
ENDROOT
BRANCH   6  13
HETATM   13  N3  UNL     1      21.290   0.948  50.774  1.00  0.00    -0.340 N 
HETATM   14  H2  UNL     1      21.792   0.850  49.867  1.00  0.00     0.167 HD
BRANCH  13  15
HETATM   15  C5  UNL     1      19.930   1.362  50.868  1.00  0.00     0.035 A 
HETATM   16  C6  UNL     1      19.705   2.643  51.365  1.00  0.00     0.029 A 
HETATM   17  C7  UNL     1      18.392   3.055  51.468  1.00  0.00     0.004 A 
HETATM   18  C8  UNL     1      17.328   2.253  51.100  1.00  0.00     0.019 A 
HETATM   19  C9  UNL     1      17.575   0.967  50.602  1.00  0.00     0.013 A 
HETATM   20 BR1  UNL     1      16.185  -0.240  50.060  1.00  0.00    -0.051 Br
HETATM   21  C10 UNL     1      18.901   0.533  50.492  1.00  0.00     0.048 A 
ENDBRANCH  13  15
ENDBRANCH   6  13
BRANCH   9  22
HETATM   22  N4  UNL     1      25.388   4.070  50.902  1.00  0.00    -0.323 N 
HETATM   23  C14 UNL     1      26.411   3.817  49.957  1.00  0.00     0.256 C 
HETATM   24  O1  UNL     1      26.914   2.675  49.741  1.00  0.00    -0.267 OA
HETATM   25  H8  UNL     1      24.994   5.026  51.060  1.00  0.00     0.169 HD
BRANCH  23  26
HETATM   26  C15 UNL     1      26.939   4.921  49.168  1.00  0.00     0.032 A 
HETATM   27  C16 UNL     1      26.434   6.112  48.879  1.00  0.00     0.017 A 
HETATM   28  C17 UNL     1      27.604   6.483  48.094  1.00  0.00     0.002 A 
HETATM   29  C18 UNL     1      28.102   5.303  48.381  1.00  0.00     0.017 A 
ENDBRANCH  23  26
ENDBRANCH   9  22
TORSDOF 4
ENDMDL
MODEL 5
REMARK VINA RESULT:      -8.7      3.087      5.553
REMARK  4 active torsions:
REMARK  status: ('A' for Active; 'I' for Inactive)
REMARK    1  A    between atoms: C4_6  and  N3_7 
REMARK    2  A    between atoms: N3_7  and  C5_8 
REMARK    3  A    between atoms: C13_17  and  N4_18 
REMARK       I    between atoms: N4_18  and  C14_19 
REMARK    4  A    between atoms: C14_19  and  C15_21 
ROOT
HETATM    1  N1  UNL     1      22.770   4.911  47.297  1.00  0.00    -0.191 NA
HETATM    2  C1  UNL     1      22.688   4.381  48.320  1.00  0.00     0.102 C 
HETATM    3  C2  UNL     1      22.589   3.738  49.597  1.00  0.00     0.073 A 
HETATM    4  C3  UNL     1      21.339   3.590  50.180  1.00  0.00     0.142 A 
HETATM    5  N2  UNL     1      21.293   2.981  51.384  1.00  0.00    -0.241 NA
HETATM    6  C4  UNL     1      22.406   2.534  52.003  1.00  0.00     0.139 A 
HETATM    7  C11 UNL     1      23.670   2.659  51.462  1.00  0.00     0.024 A 
HETATM    8  C12 UNL     1      24.720   2.158  52.188  1.00  0.00     0.045 A 
HETATM    9  C13 UNL     1      25.947   2.334  51.548  1.00  0.00     0.035 A 
HETATM   10  C19 UNL     1      26.091   2.937  50.331  1.00  0.00     0.030 A 
HETATM   11  C20 UNL     1      24.982   3.416  49.661  1.00  0.00     0.016 A 
HETATM   12  C21 UNL     1      23.732   3.281  50.230  1.00  0.00     0.000 A 
ENDROOT
BRANCH   6  13
HETATM   13  N3  UNL     1      22.095   1.933  53.254  1.00  0.00    -0.340 N 
HETATM   14  H2  UNL     1      22.335   2.634  53.985  1.00  0.00     0.167 HD
BRANCH  13  15
HETATM   15  C5  UNL     1      21.565   0.646  53.557  1.00  0.00     0.035 A 
HETATM   16  C6  UNL     1      22.444  -0.268  54.132  1.00  0.00     0.029 A 
HETATM   17  C7  UNL     1      21.944  -1.521  54.424  1.00  0.00     0.004 A 
HETATM   18  C8  UNL     1      20.634  -1.880  54.170  1.00  0.00     0.019 A 
HETATM   19  C9  UNL     1      19.765  -0.945  53.591  1.00  0.00     0.013 A 
HETATM   20 BR1  UNL     1      17.927  -1.323  53.189  1.00  0.00    -0.051 Br
HETATM   21  C10 UNL     1      20.254   0.330  53.287  1.00  0.00     0.048 A 
ENDBRANCH  13  15
ENDBRANCH   6  13
BRANCH   9  22
HETATM   22  N4  UNL     1      27.137   1.861  52.188  1.00  0.00    -0.323 N 
HETATM   23  C14 UNL     1      27.213   0.458  52.359  1.00  0.00     0.256 C 
HETATM   24  O1  UNL     1      26.314  -0.354  51.988  1.00  0.00    -0.267 OA
HETATM   25  H8  UNL     1      27.895   2.507  52.507  1.00  0.00     0.169 HD
BRANCH  23  26
HETATM   26  C15 UNL     1      28.387  -0.119  52.999  1.00  0.00     0.032 A 
HETATM   27  C16 UNL     1      28.728  -1.378  53.232  1.00  0.00     0.017 A 
HETATM   28  C17 UNL     1      29.978  -0.984  53.869  1.00  0.00     0.002 A 
HETATM   29  C18 UNL     1      29.637   0.263  53.637  1.00  0.00     0.017 A 
ENDBRANCH  23  26
ENDBRANCH   9  22
TORSDOF 4
ENDMDL
MODEL 6
REMARK VINA RESULT:      -8.6      3.163      7.051
REMARK  4 active torsions:
REMARK  status: ('A' for Active; 'I' for Inactive)
REMARK    1  A    between atoms: C4_6  and  N3_7 
REMARK    2  A    between atoms: N3_7  and  C5_8 
REMARK    3  A    between atoms: C13_17  and  N4_18 
REMARK       I    between atoms: N4_18  and  C14_19 
REMARK    4  A    between atoms: C14_19  and  C15_21 
ROOT
HETATM    1  N1  UNL     1      27.931  -1.902  53.169  1.00  0.00    -0.191 NA
HETATM    2  C1  UNL     1      26.952  -1.292  53.104  1.00  0.00     0.102 C 
HETATM    3  C2  UNL     1      25.734  -0.542  53.009  1.00  0.00     0.073 A 
HETATM    4  C3  UNL     1      24.563  -1.096  53.506  1.00  0.00     0.142 A 
HETATM    5  N2  UNL     1      23.440  -0.356  53.393  1.00  0.00    -0.241 NA
HETATM    6  C4  UNL     1      23.443   0.868  52.823  1.00  0.00     0.139 A 
HETATM    7  C11 UNL     1      24.583   1.459  52.315  1.00  0.00     0.024 A 
HETATM    8  C12 UNL     1      24.455   2.709  51.767  1.00  0.00     0.045 A 
HETATM    9  C13 UNL     1      25.666   3.212  51.290  1.00  0.00     0.035 A 
HETATM   10  C19 UNL     1      26.851   2.537  51.361  1.00  0.00     0.030 A 
HETATM   11  C20 UNL     1      26.897   1.279  51.930  1.00  0.00     0.016 A 
HETATM   12  C21 UNL     1      25.741   0.712  52.424  1.00  0.00     0.000 A 
ENDROOT
BRANCH   6  13
HETATM   13  N3  UNL     1      22.142   1.442  52.824  1.00  0.00    -0.340 N 
HETATM   14  H2  UNL     1      22.186   2.272  53.451  1.00  0.00     0.167 HD
BRANCH  13  15
HETATM   15  C5  UNL     1      20.953   1.043  52.147  1.00  0.00     0.035 A 
HETATM   16  C6  UNL     1      20.811   1.482  50.833  1.00  0.00     0.029 A 
HETATM   17  C7  UNL     1      19.661   1.109  50.168  1.00  0.00     0.004 A 
HETATM   18  C8  UNL     1      18.678   0.336  50.754  1.00  0.00     0.019 A 
HETATM   19  C9  UNL     1      18.839  -0.095  52.078  1.00  0.00     0.013 A 
HETATM   20 BR1  UNL     1      17.547  -1.171  53.002  1.00  0.00    -0.051 Br
HETATM   21  C10 UNL     1      19.999   0.273  52.768  1.00  0.00     0.048 A 
ENDBRANCH  13  15
ENDBRANCH   6  13
BRANCH   9  22
HETATM   22  N4  UNL     1      25.689   4.510  50.688  1.00  0.00    -0.323 N 
HETATM   23  C14 UNL     1      26.374   4.590  49.451  1.00  0.00     0.256 C 
HETATM   24  O1  UNL     1      26.938   3.607  48.886  1.00  0.00    -0.267 OA
HETATM   25  H8  UNL     1      25.234   5.341  51.132  1.00  0.00     0.169 HD
BRANCH  23  26
HETATM   26  C15 UNL     1      26.450   5.870  48.761  1.00  0.00     0.032 A 
HETATM   27  C16 UNL     1      27.482   6.651  48.474  1.00  0.00     0.017 A 
HETATM   28  C17 UNL     1      26.630   7.635  47.819  1.00  0.00     0.002 A 
HETATM   29  C18 UNL     1      25.609   6.860  48.106  1.00  0.00     0.017 A 
ENDBRANCH  23  26
ENDBRANCH   9  22
TORSDOF 4
ENDMDL
MODEL 7
REMARK VINA RESULT:      -8.6      2.466      6.289
REMARK  4 active torsions:
REMARK  status: ('A' for Active; 'I' for Inactive)
REMARK    1  A    between atoms: C4_6  and  N3_7 
REMARK    2  A    between atoms: N3_7  and  C5_8 
REMARK    3  A    between atoms: C13_17  and  N4_18 
REMARK       I    between atoms: N4_18  and  C14_19 
REMARK    4  A    between atoms: C14_19  and  C15_21 
ROOT
HETATM    1  N1  UNL     1      26.877  -0.109  55.216  1.00  0.00    -0.191 NA
HETATM    2  C1  UNL     1      26.596   0.469  54.257  1.00  0.00     0.102 C 
HETATM    3  C2  UNL     1      26.243   1.201  53.075  1.00  0.00     0.073 A 
HETATM    4  C3  UNL     1      27.231   1.900  52.398  1.00  0.00     0.142 A 
HETATM    5  N2  UNL     1      26.853   2.577  51.293  1.00  0.00    -0.241 NA
HETATM    6  C4  UNL     1      25.575   2.581  50.858  1.00  0.00     0.139 A 
HETATM    7  C11 UNL     1      24.560   1.900  51.499  1.00  0.00     0.024 A 
HETATM    8  C12 UNL     1      23.304   1.979  50.953  1.00  0.00     0.045 A 
HETATM    9  C13 UNL     1      22.358   1.252  51.676  1.00  0.00     0.035 A 
HETATM   10  C19 UNL     1      22.647   0.538  52.804  1.00  0.00     0.030 A 
HETATM   11  C20 UNL     1      23.939   0.509  53.291  1.00  0.00     0.016 A 
HETATM   12  C21 UNL     1      24.931   1.203  52.632  1.00  0.00     0.000 A 
ENDROOT
BRANCH   6  13
HETATM   13  N3  UNL     1      25.433   3.364  49.679  1.00  0.00    -0.340 N 
HETATM   14  H2  UNL     1      24.711   2.891  49.096  1.00  0.00     0.167 HD
BRANCH  13  15
HETATM   15  C5  UNL     1      26.093   4.561  49.277  1.00  0.00     0.035 A 
HETATM   16  C6  UNL     1      25.334   5.728  49.308  1.00  0.00     0.029 A 
HETATM   17  C7  UNL     1      25.959   6.893  48.914  1.00  0.00     0.004 A 
HETATM   18  C8  UNL     1      27.277   6.931  48.502  1.00  0.00     0.019 A 
HETATM   19  C9  UNL     1      28.024   5.745  48.477  1.00  0.00     0.013 A 
HETATM   20 BR1  UNL     1      29.860   5.667  47.925  1.00  0.00    -0.051 Br
HETATM   21  C10 UNL     1      27.407   4.554  48.873  1.00  0.00     0.048 A 
ENDBRANCH  13  15
ENDBRANCH   6  13
BRANCH   9  22
HETATM   22  N4  UNL     1      20.999   1.241  51.226  1.00  0.00    -0.323 N 
HETATM   23  C14 UNL     1      20.134   2.137  51.897  1.00  0.00     0.256 C 
HETATM   24  O1  UNL     1      20.496   2.909  52.834  1.00  0.00    -0.267 OA
HETATM   25  H8  UNL     1      20.670   0.613  50.457  1.00  0.00     0.169 HD
BRANCH  23  26
HETATM   26  C15 UNL     1      18.732   2.198  51.508  1.00  0.00     0.032 A 
HETATM   27  C16 UNL     1      17.805   1.255  51.419  1.00  0.00     0.017 A 
HETATM   28  C17 UNL     1      16.792   2.208  50.983  1.00  0.00     0.002 A 
HETATM   29  C18 UNL     1      17.713   3.141  51.072  1.00  0.00     0.017 A 
ENDBRANCH  23  26
ENDBRANCH   9  22
TORSDOF 4
ENDMDL
MODEL 8
REMARK VINA RESULT:      -8.6      4.558      7.795
REMARK  4 active torsions:
REMARK  status: ('A' for Active; 'I' for Inactive)
REMARK    1  A    between atoms: C4_6  and  N3_7 
REMARK    2  A    between atoms: N3_7  and  C5_8 
REMARK    3  A    between atoms: C13_17  and  N4_18 
REMARK       I    between atoms: N4_18  and  C14_19 
REMARK    4  A    between atoms: C14_19  and  C15_21 
ROOT
HETATM    1  N1  UNL     1      26.242  10.445  49.339  1.00  0.00    -0.191 NA
HETATM    2  C1  UNL     1      26.213   9.291  49.314  1.00  0.00     0.102 C 
HETATM    3  C2  UNL     1      26.184   7.857  49.299  1.00  0.00     0.073 A 
HETATM    4  C3  UNL     1      25.039   7.204  49.733  1.00  0.00     0.142 A 
HETATM    5  N2  UNL     1      25.057   5.854  49.704  1.00  0.00    -0.241 NA
HETATM    6  C4  UNL     1      26.133   5.162  49.275  1.00  0.00     0.139 A 
HETATM    7  C11 UNL     1      27.292   5.768  48.834  1.00  0.00     0.024 A 
HETATM    8  C12 UNL     1      28.313   4.952  48.419  1.00  0.00     0.045 A 
HETATM    9  C13 UNL     1      29.432   5.668  47.991  1.00  0.00     0.035 A 
HETATM   10  C19 UNL     1      29.506   7.031  47.984  1.00  0.00     0.030 A 
HETATM   11  C20 UNL     1      28.432   7.784  48.419  1.00  0.00     0.016 A 
HETATM   12  C21 UNL     1      27.289   7.150  48.859  1.00  0.00     0.000 A 
ENDROOT
BRANCH   6  13
HETATM   13  N3  UNL     1      25.904   3.760  49.341  1.00  0.00    -0.340 N 
HETATM   14  H2  UNL     1      25.879   3.418  48.357  1.00  0.00     0.167 HD
BRANCH  13  15
HETATM   15  C5  UNL     1      25.730   2.901  50.464  1.00  0.00     0.035 A 
HETATM   16  C6  UNL     1      24.432   2.464  50.716  1.00  0.00     0.029 A 
HETATM   17  C7  UNL     1      24.248   1.637  51.805  1.00  0.00     0.004 A 
HETATM   18  C8  UNL     1      25.287   1.244  52.627  1.00  0.00     0.019 A 
HETATM   19  C9  UNL     1      26.586   1.695  52.358  1.00  0.00     0.013 A 
HETATM   20 BR1  UNL     1      28.110   1.221  53.424  1.00  0.00    -0.051 Br
HETATM   21  C10 UNL     1      26.791   2.534  51.257  1.00  0.00     0.048 A 
ENDBRANCH  13  15
ENDBRANCH   6  13
BRANCH   9  22
HETATM   22  N4  UNL     1      30.580   4.949  47.528  1.00  0.00    -0.323 N 
HETATM   23  C14 UNL     1      31.678   4.927  48.420  1.00  0.00     0.256 C 
HETATM   24  O1  UNL     1      31.685   5.490  49.555  1.00  0.00    -0.267 OA
HETATM   25  H8  UNL     1      30.605   4.476  46.595  1.00  0.00     0.169 HD
BRANCH  23  26
HETATM   26  C15 UNL     1      32.892   4.219  48.038  1.00  0.00     0.032 A 
HETATM   27  C16 UNL     1      34.142   4.637  47.894  1.00  0.00     0.017 A 
HETATM   28  C17 UNL     1      34.605   3.308  47.517  1.00  0.00     0.002 A 
HETATM   29  C18 UNL     1      33.366   2.897  47.660  1.00  0.00     0.017 A 
ENDBRANCH  23  26
ENDBRANCH   9  22
TORSDOF 4
ENDMDL
MODEL 9
REMARK VINA RESULT:      -8.4      2.913      5.611
REMARK  4 active torsions:
REMARK  status: ('A' for Active; 'I' for Inactive)
REMARK    1  A    between atoms: C4_6  and  N3_7 
REMARK    2  A    between atoms: N3_7  and  C5_8 
REMARK    3  A    between atoms: C13_17  and  N4_18 
REMARK       I    between atoms: N4_18  and  C14_19 
REMARK    4  A    between atoms: C14_19  and  C15_21 
ROOT
HETATM    1  N1  UNL     1      24.955   7.343  47.882  1.00  0.00    -0.191 NA
HETATM    2  C1  UNL     1      24.496   6.637  48.672  1.00  0.00     0.102 C 
HETATM    3  C2  UNL     1      23.934   5.769  49.666  1.00  0.00     0.073 A 
HETATM    4  C3  UNL     1      22.678   6.059  50.178  1.00  0.00     0.142 A 
HETATM    5  N2  UNL     1      22.189   5.218  51.113  1.00  0.00    -0.241 NA
HETATM    6  C4  UNL     1      22.882   4.140  51.539  1.00  0.00     0.139 A 
HETATM    7  C11 UNL     1      24.134   3.812  51.059  1.00  0.00     0.024 A 
HETATM    8  C12 UNL     1      24.731   2.688  51.568  1.00  0.00     0.045 A 
HETATM    9  C13 UNL     1      25.988   2.448  51.011  1.00  0.00     0.035 A 
HETATM   10  C19 UNL     1      26.563   3.243  50.061  1.00  0.00     0.030 A 
HETATM   11  C20 UNL     1      25.895   4.361  49.597  1.00  0.00     0.016 A 
HETATM   12  C21 UNL     1      24.647   4.666  50.101  1.00  0.00     0.000 A 
ENDROOT
BRANCH   6  13
HETATM   13  N3  UNL     1      22.156   3.415  52.523  1.00  0.00    -0.340 N 
HETATM   14  H2  UNL     1      22.283   3.928  53.421  1.00  0.00     0.167 HD
BRANCH  13  15
HETATM   15  C5  UNL     1      21.383   2.223  52.414  1.00  0.00     0.035 A 
HETATM   16  C6  UNL     1      20.351   2.236  51.479  1.00  0.00     0.029 A 
HETATM   17  C7  UNL     1      19.590   1.091  51.368  1.00  0.00     0.004 A 
HETATM   18  C8  UNL     1      19.819  -0.035  52.137  1.00  0.00     0.019 A 
HETATM   19  C9  UNL     1      20.862  -0.027  53.073  1.00  0.00     0.013 A 
HETATM   20 BR1  UNL     1      21.278  -1.524  54.199  1.00  0.00    -0.051 Br
HETATM   21  C10 UNL     1      21.644   1.126  53.199  1.00  0.00     0.048 A 
ENDBRANCH  13  15
ENDBRANCH   6  13
BRANCH   9  22
HETATM   22  N4  UNL     1      26.734   1.308  51.447  1.00  0.00    -0.323 N 
HETATM   23  C14 UNL     1      27.539   1.515  52.592  1.00  0.00     0.256 C 
HETATM   24  O1  UNL     1      27.622   2.615  53.214  1.00  0.00    -0.267 OA
HETATM   25  H8  UNL     1      26.688   0.387  50.952  1.00  0.00     0.169 HD
BRANCH  23  26
HETATM   26  C15 UNL     1      28.335   0.412  53.112  1.00  0.00     0.032 A 
HETATM   27  C16 UNL     1      29.519   0.389  53.707  1.00  0.00     0.017 A 
HETATM   28  C17 UNL     1      29.485  -1.060  53.851  1.00  0.00     0.002 A 
HETATM   29  C18 UNL     1      28.312  -1.036  53.261  1.00  0.00     0.017 A 
ENDBRANCH  23  26
ENDBRANCH   9  22
TORSDOF 4
ENDMDL
