MODEL 1
REMARK VINA RESULT:      -7.8      0.000      0.000
REMARK  6 active torsions:
REMARK  status: ('A' for Active; 'I' for Inactive)
REMARK    1  A    between atoms: C11_12  and  N2_13 
REMARK    2  A    between atoms: N2_13  and  C12_14 
REMARK    3  A    between atoms: N2_13  and  C14_17 
REMARK    4  A    between atoms: C12_14  and  C13_15 
REMARK    5  A    between atoms: C14_17  and  C15_18 
REMARK    6  A    between atoms: C18_22  and  O1_24 
ROOT
HETATM    1  C1  UNL     1      21.678   5.480  50.755  1.00  0.00     0.146 C 
HETATM    2  N1  UNL     1      22.007   4.595  51.786  1.00  0.00    -0.384 N 
HETATM    3  C2  UNL     1      21.050   3.792  52.394  1.00  0.00     0.119 C 
HETATM    4  C3  UNL     1      20.648   2.630  51.456  1.00  0.00     0.019 C 
HETATM    5  C4  UNL     1      19.838   1.681  52.331  1.00  0.00     0.002 C 
HETATM    6  C5  UNL     1      19.685   0.345  51.694  1.00  0.00     0.000 C 
HETATM    7  C6  UNL     1      19.088  -0.527  52.854  1.00  0.00     0.000 C 
HETATM    8  C7  UNL     1      20.060  -0.461  53.996  1.00  0.00     0.001 C 
HETATM    9  C8  UNL     1      21.352  -1.161  53.776  1.00  0.00    -0.019 C 
HETATM   10  C9  UNL     1      22.344  -0.230  53.630  1.00  0.00     0.045 C 
HETATM   11  C10 UNL     1      23.813  -0.250  53.411  1.00  0.00     0.008 C 
HETATM   12  C11 UNL     1      24.690   0.712  53.225  1.00  0.00     0.026 C 
HETATM   13  C16 UNL     1      24.443   2.118  52.918  1.00  0.00     0.030 C 
HETATM   14  C17 UNL     1      23.693   3.205  52.664  1.00  0.00     0.035 C 
HETATM   15  C18 UNL     1      23.319   4.638  52.344  1.00  0.00     0.144 C 
HETATM   16  C19 UNL     1      24.254   4.987  51.166  1.00  0.00     0.075 C 
ENDROOT
BRANCH  12  17
HETATM   17  N2  UNL     1      26.128   0.531  53.043  1.00  0.00    -0.379 N 
BRANCH  17  18
HETATM   18  C12 UNL     1      26.689  -0.077  54.222  1.00  0.00     0.138 C 
BRANCH  18  19
HETATM   19  C13 UNL     1      28.091   0.323  54.567  1.00  0.00     0.134 C 
HETATM   20 CL1  UNL     1      29.139  -0.932  53.790  1.00  0.00    -0.129 Cl
ENDBRANCH  18  19
ENDBRANCH  17  18
BRANCH  17  21
HETATM   21  C14 UNL     1      26.731   0.916  51.802  1.00  0.00     0.138 C 
BRANCH  21  22
HETATM   22  C15 UNL     1      27.124   2.331  51.637  1.00  0.00     0.134 C 
HETATM   23 CL2  UNL     1      26.629   2.805  49.959  1.00  0.00    -0.129 Cl
ENDBRANCH  21  22
ENDBRANCH  17  21
ENDBRANCH  12  17
BRANCH  15  24
HETATM   24  O1  UNL     1      23.505   5.481  53.402  1.00  0.00    -0.368 OA
HETATM   25  H32 UNL     1      23.642   6.418  53.050  1.00  0.00     0.213 HD
ENDBRANCH  15  24
TORSDOF 6
ENDMDL
MODEL 2
REMARK VINA RESULT:      -7.4      3.079      5.499
REMARK  6 active torsions:
REMARK  status: ('A' for Active; 'I' for Inactive)
REMARK    1  A    between atoms: C11_12  and  N2_13 
REMARK    2  A    between atoms: N2_13  and  C12_14 
REMARK    3  A    between atoms: N2_13  and  C14_17 
REMARK    4  A    between atoms: C12_14  and  C13_15 
REMARK    5  A    between atoms: C14_17  and  C15_18 
REMARK    6  A    between atoms: C18_22  and  O1_24 
ROOT
HETATM    1  C1  UNL     1      26.477   0.419  54.935  1.00  0.00     0.146 C 
HETATM    2  N1  UNL     1      26.134   0.519  53.583  1.00  0.00    -0.384 N 
HETATM    3  C2  UNL     1      24.996  -0.089  53.069  1.00  0.00     0.119 C 
HETATM    4  C3  UNL     1      23.730   0.687  53.501  1.00  0.00     0.019 C 
HETATM    5  C4  UNL     1      22.605   0.107  52.651  1.00  0.00     0.002 C 
HETATM    6  C5  UNL     1      21.399   0.978  52.669  1.00  0.00     0.000 C 
HETATM    7  C6  UNL     1      20.504   0.358  51.539  1.00  0.00     0.000 C 
HETATM    8  C7  UNL     1      21.310   0.393  50.273  1.00  0.00     0.001 C 
HETATM    9  C8  UNL     1      21.552   1.746  49.708  1.00  0.00    -0.019 C 
HETATM   10  C9  UNL     1      22.870   2.070  49.877  1.00  0.00     0.045 C 
HETATM   11  C10 UNL     1      23.746   3.221  49.537  1.00  0.00     0.008 C 
HETATM   12  C11 UNL     1      25.011   3.473  49.794  1.00  0.00     0.026 C 
HETATM   13  C16 UNL     1      25.898   2.794  50.734  1.00  0.00     0.030 C 
HETATM   14  C17 UNL     1      26.233   1.888  51.669  1.00  0.00     0.035 C 
HETATM   15  C18 UNL     1      27.060   1.115  52.675  1.00  0.00     0.144 C 
HETATM   16  C19 UNL     1      27.762   2.230  53.480  1.00  0.00     0.075 C 
ENDROOT
BRANCH  12  17
HETATM   17  N2  UNL     1      25.748   4.659  49.365  1.00  0.00    -0.379 N 
BRANCH  17  18
HETATM   18  C12 UNL     1      24.904   5.820  49.490  1.00  0.00     0.138 C 
BRANCH  18  19
HETATM   19  C13 UNL     1      24.854   6.456  50.845  1.00  0.00     0.134 C 
HETATM   20 CL1  UNL     1      24.193   8.118  50.557  1.00  0.00    -0.129 Cl
ENDBRANCH  18  19
ENDBRANCH  17  18
BRANCH  17  21
HETATM   21  C14 UNL     1      27.112   4.524  48.951  1.00  0.00     0.138 C 
BRANCH  21  22
HETATM   22  C15 UNL     1      27.814   5.740  48.491  1.00  0.00     0.134 C 
HETATM   23 CL2  UNL     1      29.506   5.231  48.088  1.00  0.00    -0.129 Cl
ENDBRANCH  21  22
ENDBRANCH  17  21
ENDBRANCH  12  17
BRANCH  15  24
HETATM   24  O1  UNL     1      27.961   0.276  52.085  1.00  0.00    -0.368 OA
HETATM   25  H32 UNL     1      27.540  -0.637  51.990  1.00  0.00     0.213 HD
ENDBRANCH  15  24
TORSDOF 6
ENDMDL
MODEL 3
REMARK VINA RESULT:      -7.4      3.077      6.756
REMARK  6 active torsions:
REMARK  status: ('A' for Active; 'I' for Inactive)
REMARK    1  A    between atoms: C11_12  and  N2_13 
REMARK    2  A    between atoms: N2_13  and  C12_14 
REMARK    3  A    between atoms: N2_13  and  C14_17 
REMARK    4  A    between atoms: C12_14  and  C13_15 
REMARK    5  A    between atoms: C14_17  and  C15_18 
REMARK    6  A    between atoms: C18_22  and  O1_24 
ROOT
HETATM    1  C1  UNL     1      28.159   0.032  52.818  1.00  0.00     0.146 C 
HETATM    2  N1  UNL     1      27.066   0.878  53.035  1.00  0.00    -0.384 N 
HETATM    3  C2  UNL     1      27.014   2.158  52.498  1.00  0.00     0.119 C 
HETATM    4  C3  UNL     1      26.728   2.093  50.980  1.00  0.00     0.019 C 
HETATM    5  C4  UNL     1      26.408   3.528  50.578  1.00  0.00     0.002 C 
HETATM    6  C5  UNL     1      25.756   3.591  49.242  1.00  0.00     0.000 C 
HETATM    7  C6  UNL     1      25.271   5.081  49.162  1.00  0.00     0.000 C 
HETATM    8  C7  UNL     1      24.365   5.311  50.336  1.00  0.00     0.001 C 
HETATM    9  C8  UNL     1      23.059   4.605  50.283  1.00  0.00    -0.019 C 
HETATM   10  C9  UNL     1      23.059   3.600  51.212  1.00  0.00     0.045 C 
HETATM   11  C10 UNL     1      22.099   2.566  51.676  1.00  0.00     0.008 C 
HETATM   12  C11 UNL     1      22.208   1.590  52.550  1.00  0.00     0.026 C 
HETATM   13  C16 UNL     1      23.419   1.054  53.165  1.00  0.00     0.030 C 
HETATM   14  C17 UNL     1      24.741   0.963  53.396  1.00  0.00     0.035 C 
HETATM   15  C18 UNL     1      26.060   0.485  53.967  1.00  0.00     0.144 C 
HETATM   16  C19 UNL     1      25.960  -1.050  53.839  1.00  0.00     0.075 C 
ENDROOT
BRANCH  12  17
HETATM   17  N2  UNL     1      21.150   0.654  52.920  1.00  0.00    -0.379 N 
BRANCH  17  18
HETATM   18  C12 UNL     1      20.352   0.347  51.760  1.00  0.00     0.138 C 
BRANCH  18  19
HETATM   19  C13 UNL     1      18.892   0.664  51.861  1.00  0.00     0.134 C 
HETATM   20 CL1  UNL     1      18.112  -0.886  52.378  1.00  0.00    -0.129 Cl
ENDBRANCH  18  19
ENDBRANCH  17  18
BRANCH  17  21
HETATM   21  C14 UNL     1      21.077   0.175  54.268  1.00  0.00     0.138 C 
BRANCH  21  22
HETATM   22  C15 UNL     1      21.184  -1.282  54.487  1.00  0.00     0.134 C 
HETATM   23 CL2  UNL     1      22.730  -1.549  55.394  1.00  0.00    -0.129 Cl
ENDBRANCH  21  22
ENDBRANCH  17  21
ENDBRANCH  12  17
BRANCH  15  24
HETATM   24  O1  UNL     1      26.245   0.871  55.264  1.00  0.00    -0.368 OA
HETATM   25  H32 UNL     1      25.342   1.032  55.686  1.00  0.00     0.213 HD
ENDBRANCH  15  24
TORSDOF 6
ENDMDL
MODEL 4
REMARK VINA RESULT:      -7.2      2.383      5.218
REMARK  6 active torsions:
REMARK  status: ('A' for Active; 'I' for Inactive)
REMARK    1  A    between atoms: C11_12  and  N2_13 
REMARK    2  A    between atoms: N2_13  and  C12_14 
REMARK    3  A    between atoms: N2_13  and  C14_17 
REMARK    4  A    between atoms: C12_14  and  C13_15 
REMARK    5  A    between atoms: C14_17  and  C15_18 
REMARK    6  A    between atoms: C18_22  and  O1_24 
ROOT
HETATM    1  C1  UNL     1      26.312  -0.164  54.771  1.00  0.00     0.146 C 
HETATM    2  N1  UNL     1      25.604   0.124  53.600  1.00  0.00    -0.384 N 
HETATM    3  C2  UNL     1      24.398  -0.497  53.302  1.00  0.00     0.119 C 
HETATM    4  C3  UNL     1      23.266   0.073  54.188  1.00  0.00     0.019 C 
HETATM    5  C4  UNL     1      21.978  -0.464  53.574  1.00  0.00     0.002 C 
HETATM    6  C5  UNL     1      20.785   0.275  54.070  1.00  0.00     0.000 C 
HETATM    7  C6  UNL     1      19.642  -0.233  53.122  1.00  0.00     0.000 C 
HETATM    8  C7  UNL     1      20.064   0.086  51.718  1.00  0.00     0.001 C 
HETATM    9  C8  UNL     1      20.076   1.530  51.368  1.00  0.00    -0.019 C 
HETATM   10  C9  UNL     1      21.373   1.947  51.240  1.00  0.00     0.045 C 
HETATM   11  C10 UNL     1      22.065   3.215  50.899  1.00  0.00     0.008 C 
HETATM   12  C11 UNL     1      23.339   3.541  50.854  1.00  0.00     0.026 C 
HETATM   13  C16 UNL     1      24.483   2.804  51.384  1.00  0.00     0.030 C 
HETATM   14  C17 UNL     1      25.105   1.792  52.014  1.00  0.00     0.035 C 
HETATM   15  C18 UNL     1      26.213   0.946  52.606  1.00  0.00     0.144 C 
HETATM   16  C19 UNL     1      27.058   1.975  53.387  1.00  0.00     0.075 C 
ENDROOT
BRANCH  12  17
HETATM   17  N2  UNL     1      23.872   4.846  50.473  1.00  0.00    -0.379 N 
BRANCH  17  18
HETATM   18  C12 UNL     1      24.644   4.715  49.263  1.00  0.00     0.138 C 
BRANCH  18  19
HETATM   19  C13 UNL     1      25.889   5.545  49.182  1.00  0.00     0.134 C 
HETATM   20 CL1  UNL     1      27.230   4.351  48.945  1.00  0.00    -0.129 Cl
ENDBRANCH  18  19
ENDBRANCH  17  18
BRANCH  17  21
HETATM   21  C14 UNL     1      23.550   5.994  51.266  1.00  0.00     0.138 C 
BRANCH  21  22
HETATM   22  C15 UNL     1      22.559   6.948  50.726  1.00  0.00     0.134 C 
HETATM   23 CL2  UNL     1      23.507   8.288  49.958  1.00  0.00    -0.129 Cl
ENDBRANCH  21  22
ENDBRANCH  17  21
ENDBRANCH  12  17
BRANCH  15  24
HETATM   24  O1  UNL     1      26.954   0.305  51.654  1.00  0.00    -0.368 OA
HETATM   25  H32 UNL     1      27.690   0.925  51.345  1.00  0.00     0.213 HD
ENDBRANCH  15  24
TORSDOF 6
ENDMDL
MODEL 5
REMARK VINA RESULT:      -7.1      2.957      6.471
REMARK  6 active torsions:
REMARK  status: ('A' for Active; 'I' for Inactive)
REMARK    1  A    between atoms: C11_12  and  N2_13 
REMARK    2  A    between atoms: N2_13  and  C12_14 
REMARK    3  A    between atoms: N2_13  and  C14_17 
REMARK    4  A    between atoms: C12_14  and  C13_15 
REMARK    5  A    between atoms: C14_17  and  C15_18 
REMARK    6  A    between atoms: C18_22  and  O1_24 
ROOT
HETATM    1  C1  UNL     1      21.363  -2.153  54.256  1.00  0.00     0.146 C 
HETATM    2  N1  UNL     1      21.913  -0.869  54.196  1.00  0.00    -0.384 N 
HETATM    3  C2  UNL     1      23.248  -0.630  54.498  1.00  0.00     0.119 C 
HETATM    4  C3  UNL     1      24.157  -1.130  53.351  1.00  0.00     0.019 C 
HETATM    5  C4  UNL     1      25.535  -0.556  53.664  1.00  0.00     0.002 C 
HETATM    6  C5  UNL     1      26.438  -0.629  52.484  1.00  0.00     0.000 C 
HETATM    7  C6  UNL     1      27.661   0.248  52.928  1.00  0.00     0.000 C 
HETATM    8  C7  UNL     1      27.127   1.613  53.253  1.00  0.00     0.001 C 
HETATM    9  C8  UNL     1      26.645   2.402  52.090  1.00  0.00    -0.019 C 
HETATM   10  C9  UNL     1      25.280   2.485  52.144  1.00  0.00     0.045 C 
HETATM   11  C10 UNL     1      24.209   3.120  51.334  1.00  0.00     0.008 C 
HETATM   12  C11 UNL     1      22.898   3.099  51.434  1.00  0.00     0.026 C 
HETATM   13  C16 UNL     1      22.064   2.215  52.243  1.00  0.00     0.030 C 
HETATM   14  C17 UNL     1      21.814   1.218  53.110  1.00  0.00     0.035 C 
HETATM   15  C18 UNL     1      21.050   0.246  53.985  1.00  0.00     0.144 C 
HETATM   16  C19 UNL     1      19.937  -0.268  53.046  1.00  0.00     0.075 C 
ENDROOT
BRANCH  12  17
HETATM   17  N2  UNL     1      21.965   3.805  50.559  1.00  0.00    -0.379 N 
BRANCH  17  18
HETATM   18  C12 UNL     1      21.272   4.818  51.313  1.00  0.00     0.138 C 
BRANCH  18  19
HETATM   19  C13 UNL     1      21.338   6.210  50.761  1.00  0.00     0.134 C 
HETATM   20 CL1  UNL     1      23.074   6.697  50.928  1.00  0.00    -0.129 Cl
ENDBRANCH  18  19
ENDBRANCH  17  18
BRANCH  17  21
HETATM   21  C14 UNL     1      21.899   3.449  49.173  1.00  0.00     0.138 C 
BRANCH  21  22
HETATM   22  C15 UNL     1      20.804   2.554  48.744  1.00  0.00     0.134 C 
HETATM   23 CL2  UNL     1      21.431   0.862  48.917  1.00  0.00    -0.129 Cl
ENDBRANCH  21  22
ENDBRANCH  17  21
ENDBRANCH  12  17
BRANCH  15  24
HETATM   24  O1  UNL     1      20.532   0.837  55.103  1.00  0.00    -0.368 OA
HETATM   25  H32 UNL     1      19.595   0.488  55.248  1.00  0.00     0.213 HD
ENDBRANCH  15  24
TORSDOF 6
ENDMDL
MODEL 6
REMARK VINA RESULT:      -7.0      2.934      6.056
REMARK  6 active torsions:
REMARK  status: ('A' for Active; 'I' for Inactive)
REMARK    1  A    between atoms: C11_12  and  N2_13 
REMARK    2  A    between atoms: N2_13  and  C12_14 
REMARK    3  A    between atoms: N2_13  and  C14_17 
REMARK    4  A    between atoms: C12_14  and  C13_15 
REMARK    5  A    between atoms: C14_17  and  C15_18 
REMARK    6  A    between atoms: C18_22  and  O1_24 
ROOT
HETATM    1  C1  UNL     1      20.171  -0.683  53.165  1.00  0.00     0.146 C 
HETATM    2  N1  UNL     1      21.067   0.387  53.072  1.00  0.00    -0.384 N 
HETATM    3  C2  UNL     1      22.256   0.411  53.790  1.00  0.00     0.119 C 
HETATM    4  C3  UNL     1      23.279  -0.567  53.170  1.00  0.00     0.019 C 
HETATM    5  C4  UNL     1      24.603  -0.235  53.850  1.00  0.00     0.002 C 
HETATM    6  C5  UNL     1      25.758  -0.822  53.118  1.00  0.00     0.000 C 
HETATM    7  C6  UNL     1      26.990  -0.136  53.806  1.00  0.00     0.000 C 
HETATM    8  C7  UNL     1      26.810   1.346  53.652  1.00  0.00     0.001 C 
HETATM    9  C8  UNL     1      26.956   1.866  52.268  1.00  0.00    -0.019 C 
HETATM   10  C9  UNL     1      25.727   2.249  51.804  1.00  0.00     0.045 C 
HETATM   11  C10 UNL     1      25.189   2.847  50.556  1.00  0.00     0.008 C 
HETATM   12  C11 UNL     1      23.964   3.133  50.172  1.00  0.00     0.026 C 
HETATM   13  C16 UNL     1      22.703   2.706  50.770  1.00  0.00     0.030 C 
HETATM   14  C17 UNL     1      21.920   2.064  51.656  1.00  0.00     0.035 C 
HETATM   15  C18 UNL     1      20.676   1.558  52.356  1.00  0.00     0.144 C 
HETATM   16  C19 UNL     1      19.800   1.051  51.189  1.00  0.00     0.075 C 
ENDROOT
BRANCH  12  17
HETATM   17  N2  UNL     1      23.591   3.750  48.902  1.00  0.00    -0.379 N 
BRANCH  17  18
HETATM   18  C12 UNL     1      22.882   2.792  48.091  1.00  0.00     0.138 C 
BRANCH  18  19
HETATM   19  C13 UNL     1      21.796   3.343  47.218  1.00  0.00     0.134 C 
HETATM   20 CL1  UNL     1      20.264   2.639  47.879  1.00  0.00    -0.129 Cl
ENDBRANCH  18  19
ENDBRANCH  17  18
BRANCH  17  21
HETATM   21  C14 UNL     1      23.919   5.124  48.667  1.00  0.00     0.138 C 
BRANCH  21  22
HETATM   22  C15 UNL     1      23.280   6.141  49.529  1.00  0.00     0.134 C 
HETATM   23 CL2  UNL     1      24.523   6.623  50.756  1.00  0.00    -0.129 Cl
ENDBRANCH  21  22
ENDBRANCH  17  21
ENDBRANCH  12  17
BRANCH  15  24
HETATM   24  O1  UNL     1      20.042   2.530  53.076  1.00  0.00    -0.368 OA
HETATM   25  H32 UNL     1      20.179   3.417  52.613  1.00  0.00     0.213 HD
ENDBRANCH  15  24
TORSDOF 6
ENDMDL
MODEL 7
REMARK VINA RESULT:      -7.0      7.631      9.921
REMARK  6 active torsions:
REMARK  status: ('A' for Active; 'I' for Inactive)
REMARK    1  A    between atoms: C11_12  and  N2_13 
REMARK    2  A    between atoms: N2_13  and  C12_14 
REMARK    3  A    between atoms: N2_13  and  C14_17 
REMARK    4  A    between atoms: C12_14  and  C13_15 
REMARK    5  A    between atoms: C14_17  and  C15_18 
REMARK    6  A    between atoms: C18_22  and  O1_24 
ROOT
HETATM    1  C1  UNL     1      28.984  12.216  47.899  1.00  0.00     0.146 C 
HETATM    2  N1  UNL     1      29.146  10.971  48.515  1.00  0.00    -0.384 N 
HETATM    3  C2  UNL     1      28.061  10.227  48.959  1.00  0.00     0.119 C 
HETATM    4  C3  UNL     1      27.318   9.593  47.760  1.00  0.00     0.019 C 
HETATM    5  C4  UNL     1      26.354   8.588  48.381  1.00  0.00     0.002 C 
HETATM    6  C5  UNL     1      25.827   7.635  47.367  1.00  0.00     0.000 C 
HETATM    7  C6  UNL     1      25.109   6.553  48.247  1.00  0.00     0.000 C 
HETATM    8  C7  UNL     1      26.140   5.997  49.186  1.00  0.00     0.001 C 
HETATM    9  C8  UNL     1      27.196   5.165  48.554  1.00  0.00    -0.019 C 
HETATM   10  C9  UNL     1      28.379   5.853  48.579  1.00  0.00     0.045 C 
HETATM   11  C10 UNL     1      29.777   5.601  48.147  1.00  0.00     0.008 C 
HETATM   12  C11 UNL     1      30.854   6.356  48.161  1.00  0.00     0.026 C 
HETATM   13  C16 UNL     1      30.949   7.797  48.379  1.00  0.00     0.030 C 
HETATM   14  C17 UNL     1      30.482   9.035  48.618  1.00  0.00     0.035 C 
HETATM   15  C18 UNL     1      30.461  10.531  48.852  1.00  0.00     0.144 C 
HETATM   16  C19 UNL     1      31.374  11.073  47.731  1.00  0.00     0.075 C 
ENDROOT
BRANCH  12  17
HETATM   17  N2  UNL     1      32.185   5.951  47.715  1.00  0.00    -0.379 N 
BRANCH  17  18
HETATM   18  C12 UNL     1      33.065   5.857  48.852  1.00  0.00     0.138 C 
BRANCH  18  19
HETATM   19  C13 UNL     1      34.500   6.210  48.606  1.00  0.00     0.134 C 
HETATM   20 CL1  UNL     1      34.523   8.018  48.497  1.00  0.00    -0.129 Cl
ENDBRANCH  18  19
ENDBRANCH  17  18
BRANCH  17  21
HETATM   21  C14 UNL     1      32.407   5.686  46.325  1.00  0.00     0.138 C 
BRANCH  21  22
HETATM   22  C15 UNL     1      32.974   4.372  45.957  1.00  0.00     0.134 C 
HETATM   23 CL2  UNL     1      31.777   3.128  46.508  1.00  0.00    -0.129 Cl
ENDBRANCH  21  22
ENDBRANCH  17  21
ENDBRANCH  12  17
BRANCH  15  24
HETATM   24  O1  UNL     1      30.923  10.879  50.089  1.00  0.00    -0.368 OA
HETATM   25  H32 UNL     1      30.210  10.667  50.773  1.00  0.00     0.213 HD
ENDBRANCH  15  24
TORSDOF 6
ENDMDL
MODEL 8
REMARK VINA RESULT:      -7.0      2.700      5.255
REMARK  6 active torsions:
REMARK  status: ('A' for Active; 'I' for Inactive)
REMARK    1  A    between atoms: C11_12  and  N2_13 
REMARK    2  A    between atoms: N2_13  and  C12_14 
REMARK    3  A    between atoms: N2_13  and  C14_17 
REMARK    4  A    between atoms: C12_14  and  C13_15 
REMARK    5  A    between atoms: C14_17  and  C15_18 
REMARK    6  A    between atoms: C18_22  and  O1_24 
ROOT
HETATM    1  C1  UNL     1      19.484   4.610  50.393  1.00  0.00     0.146 C 
HETATM    2  N1  UNL     1      20.594   3.802  50.123  1.00  0.00    -0.384 N 
HETATM    3  C2  UNL     1      21.674   4.266  49.384  1.00  0.00     0.119 C 
HETATM    4  C3  UNL     1      22.526   5.241  50.229  1.00  0.00     0.019 C 
HETATM    5  C4  UNL     1      23.807   5.440  49.428  1.00  0.00     0.002 C 
HETATM    6  C5  UNL     1      24.882   6.051  50.256  1.00  0.00     0.000 C 
HETATM    7  C6  UNL     1      26.150   5.902  49.344  1.00  0.00     0.000 C 
HETATM    8  C7  UNL     1      26.310   4.439  49.051  1.00  0.00     0.001 C 
HETATM    9  C8  UNL     1      26.715   3.598  50.207  1.00  0.00    -0.019 C 
HETATM   10  C9  UNL     1      25.655   2.818  50.583  1.00  0.00     0.045 C 
HETATM   11  C10 UNL     1      25.396   1.780  51.613  1.00  0.00     0.008 C 
HETATM   12  C11 UNL     1      24.311   1.115  51.941  1.00  0.00     0.026 C 
HETATM   13  C16 UNL     1      22.929   1.382  51.551  1.00  0.00     0.030 C 
HETATM   14  C17 UNL     1      21.936   2.044  50.932  1.00  0.00     0.035 C 
HETATM   15  C18 UNL     1      20.544   2.418  50.467  1.00  0.00     0.144 C 
HETATM   16  C19 UNL     1      19.712   2.349  51.767  1.00  0.00     0.075 C 
ENDROOT
BRANCH  12  17
HETATM   17  N2  UNL     1      24.219   0.092  52.980  1.00  0.00    -0.379 N 
BRANCH  17  18
HETATM   18  C12 UNL     1      25.475   0.006  53.682  1.00  0.00     0.138 C 
BRANCH  18  19
HETATM   19  C13 UNL     1      26.331  -1.180  53.358  1.00  0.00     0.134 C 
HETATM   20 CL1  UNL     1      27.959  -0.488  52.969  1.00  0.00    -0.129 Cl
ENDBRANCH  18  19
ENDBRANCH  17  18
BRANCH  17  21
HETATM   21  C14 UNL     1      22.982  -0.604  53.172  1.00  0.00     0.138 C 
BRANCH  21  22
HETATM   22  C15 UNL     1      22.555  -0.877  54.560  1.00  0.00     0.134 C 
HETATM   23 CL2  UNL     1      21.037   0.078  54.824  1.00  0.00    -0.129 Cl
ENDBRANCH  21  22
ENDBRANCH  17  21
ENDBRANCH  12  17
BRANCH  15  24
HETATM   24  O1  UNL     1      20.059   1.569  49.514  1.00  0.00    -0.368 OA
HETATM   25  H32 UNL     1      20.737   0.838  49.356  1.00  0.00     0.213 HD
ENDBRANCH  15  24
TORSDOF 6
ENDMDL
MODEL 9
REMARK VINA RESULT:      -6.9      3.731      6.474
REMARK  6 active torsions:
REMARK  status: ('A' for Active; 'I' for Inactive)
REMARK    1  A    between atoms: C11_12  and  N2_13 
REMARK    2  A    between atoms: N2_13  and  C12_14 
REMARK    3  A    between atoms: N2_13  and  C14_17 
REMARK    4  A    between atoms: C12_14  and  C13_15 
REMARK    5  A    between atoms: C14_17  and  C15_18 
REMARK    6  A    between atoms: C18_22  and  O1_24 
ROOT
HETATM    1  C1  UNL     1      23.971   4.782  48.988  1.00  0.00     0.146 C 
HETATM    2  N1  UNL     1      23.770   3.451  49.367  1.00  0.00    -0.384 N 
HETATM    3  C2  UNL     1      24.755   2.719  50.018  1.00  0.00     0.119 C 
HETATM    4  C3  UNL     1      24.878   3.174  51.491  1.00  0.00     0.019 C 
HETATM    5  C4  UNL     1      25.758   2.121  52.155  1.00  0.00     0.002 C 
HETATM    6  C5  UNL     1      25.679   2.199  53.639  1.00  0.00     0.000 C 
HETATM    7  C6  UNL     1      26.409   0.887  54.095  1.00  0.00     0.000 C 
HETATM    8  C7  UNL     1      25.678  -0.263  53.466  1.00  0.00     0.001 C 
HETATM    9  C8  UNL     1      24.315  -0.520  53.998  1.00  0.00    -0.019 C 
HETATM   10  C9  UNL     1      23.392  -0.164  53.052  1.00  0.00     0.045 C 
HETATM   11  C10 UNL     1      21.912  -0.180  52.935  1.00  0.00     0.008 C 
HETATM   12  C11 UNL     1      21.097   0.242  51.993  1.00  0.00     0.026 C 
HETATM   13  C16 UNL     1      21.396   1.107  50.855  1.00  0.00     0.030 C 
HETATM   14  C17 UNL     1      22.171   1.869  50.064  1.00  0.00     0.035 C 
HETATM   15  C18 UNL     1      22.594   2.774  48.926  1.00  0.00     0.144 C 
HETATM   16  C19 UNL     1      21.486   3.850  48.905  1.00  0.00     0.075 C 
ENDROOT
BRANCH  12  17
HETATM   17  N2  UNL     1      19.641   0.133  52.014  1.00  0.00    -0.379 N 
BRANCH  17  18
HETATM   18  C12 UNL     1      19.094   0.774  50.846  1.00  0.00     0.138 C 
BRANCH  18  19
HETATM   19  C13 UNL     1      17.932   1.690  51.080  1.00  0.00     0.134 C 
HETATM   20 CL1  UNL     1      18.671   3.255  51.614  1.00  0.00    -0.129 Cl
ENDBRANCH  18  19
ENDBRANCH  17  18
BRANCH  17  21
HETATM   21  C14 UNL     1      19.007  -0.574  53.086  1.00  0.00     0.138 C 
BRANCH  21  22
HETATM   22  C15 UNL     1      17.785  -1.345  52.774  1.00  0.00     0.134 C 
HETATM   23 CL2  UNL     1      17.806  -2.795  53.861  1.00  0.00    -0.129 Cl
ENDBRANCH  21  22
ENDBRANCH  17  21
ENDBRANCH  12  17
BRANCH  15  24
HETATM   24  O1  UNL     1      22.680   2.117  47.732  1.00  0.00    -0.368 OA
HETATM   25  H32 UNL     1      23.593   2.285  47.334  1.00  0.00     0.213 HD
ENDBRANCH  15  24
TORSDOF 6
ENDMDL
