MODEL 1
REMARK VINA RESULT:      -9.1      0.000      0.000
REMARK  1 active torsions:
REMARK  status: ('A' for Active; 'I' for Inactive)
REMARK    1  A    between atoms: O1_2  and  C2_3 
ROOT
HETATM    1  C2  UNL     1      26.054  -0.432  54.277  1.00  0.00     0.104 A 
HETATM    2  C3  UNL     1      24.910  -0.791  54.983  1.00  0.00     0.072 A 
HETATM    3  C4  UNL     1      23.623  -0.817  54.494  1.00  0.00     0.075 A 
HETATM    4  N1  UNL     1      22.640  -1.166  55.374  1.00  0.00    -0.241 NA
HETATM    5  C5  UNL     1      21.394  -1.128  54.830  1.00  0.00     0.235 A 
HETATM    6  N2  UNL     1      21.160  -0.774  53.532  1.00  0.00    -0.224 NA
HETATM    7  C6  UNL     1      22.173  -0.431  52.683  1.00  0.00     0.137 A 
HETATM    8  C7  UNL     1      23.439  -0.459  53.186  1.00  0.00     0.041 A 
HETATM    9  C8  UNL     1      24.564  -0.111  52.490  1.00  0.00     0.057 A 
HETATM   10  C9  UNL     1      25.877  -0.078  52.981  1.00  0.00     0.109 A 
HETATM   11  O2  UNL     1      26.842   0.343  52.019  1.00  0.00    -0.320 OA
HETATM   12  C10 UNL     1      26.357   1.310  51.078  1.00  0.00     0.141 C 
HETATM   13  C11 UNL     1      25.445   2.265  51.022  1.00  0.00     0.029 C 
HETATM   14  C12 UNL     1      24.478   3.384  50.745  1.00  0.00     0.063 C 
HETATM   15  C13 UNL     1      23.112   2.939  50.986  1.00  0.00     0.056 C 
HETATM   16  C14 UNL     1      21.976   2.292  51.200  1.00  0.00    -0.003 C 
HETATM   17  C15 UNL     1      20.923   1.250  51.422  1.00  0.00     0.122 C 
HETATM   18  N3  UNL     1      21.472  -0.100  51.482  1.00  0.00    -0.374 N 
HETATM   19  C16 UNL     1      24.606   3.666  49.239  1.00  0.00     0.110 C 
HETATM   20  S1  UNL     1      24.110   5.415  49.298  1.00  0.00    -0.144 SA
HETATM   21  C17 UNL     1      23.549   6.649  48.382  1.00  0.00     0.041 A 
HETATM   22  C18 UNL     1      23.381   7.853  49.208  1.00  0.00     0.006 A 
HETATM   23  C19 UNL     1      23.625   7.982  50.475  1.00  0.00     0.003 A 
HETATM   24  C20 UNL     1      24.120   7.024  51.455  1.00  0.00     0.036 A 
HETATM   25  C21 UNL     1      24.395   5.769  51.046  1.00  0.00     0.060 A 
HETATM   26  N4  UNL     1      24.859   4.514  51.520  1.00  0.00    -0.371 N 
HETATM   27  H13 UNL     1      21.560  -0.995  50.947  1.00  0.00     0.161 HD
HETATM   28  H20 UNL     1      25.449   4.494  52.412  1.00  0.00     0.161 HD
ENDROOT
BRANCH   1  29
HETATM   29  O1  UNL     1      27.354  -0.381  54.697  1.00  0.00    -0.353 OA
HETATM   30  C1  UNL     1      28.115   0.806  54.778  1.00  0.00     0.210 C 
ENDBRANCH   1  29
TORSDOF 1
ENDMDL
MODEL 2
REMARK VINA RESULT:      -9.0      7.390     10.801
REMARK  1 active torsions:
REMARK  status: ('A' for Active; 'I' for Inactive)
REMARK    1  A    between atoms: O1_2  and  C2_3 
ROOT
HETATM    1  C2  UNL     1      28.094  10.951  48.067  1.00  0.00     0.104 A 
HETATM    2  C3  UNL     1      26.874  10.456  47.619  1.00  0.00     0.072 A 
HETATM    3  C4  UNL     1      26.365   9.199  47.859  1.00  0.00     0.075 A 
HETATM    4  N1  UNL     1      25.158   8.908  47.291  1.00  0.00    -0.241 NA
HETATM    5  C5  UNL     1      24.741   7.636  47.538  1.00  0.00     0.235 A 
HETATM    6  N2  UNL     1      25.465   6.747  48.279  1.00  0.00    -0.224 NA
HETATM    7  C6  UNL     1      26.670   7.079  48.830  1.00  0.00     0.137 A 
HETATM    8  C7  UNL     1      27.124   8.345  48.611  1.00  0.00     0.041 A 
HETATM    9  C8  UNL     1      28.322   8.833  49.056  1.00  0.00     0.057 A 
HETATM   10  C9  UNL     1      28.850  10.109  48.814  1.00  0.00     0.109 A 
HETATM   11  O2  UNL     1      30.133  10.323  49.396  1.00  0.00    -0.320 OA
HETATM   12  C10 UNL     1      30.963   9.154  49.448  1.00  0.00     0.141 C 
HETATM   13  C11 UNL     1      31.124   8.025  48.779  1.00  0.00     0.029 C 
HETATM   14  C12 UNL     1      31.470   6.694  48.169  1.00  0.00     0.063 C 
HETATM   15  C13 UNL     1      30.286   5.847  48.106  1.00  0.00     0.056 C 
HETATM   16  C14 UNL     1      29.108   5.253  48.219  1.00  0.00    -0.003 C 
HETATM   17  C15 UNL     1      27.704   4.877  48.584  1.00  0.00     0.122 C 
HETATM   18  N3  UNL     1      27.069   5.858  49.458  1.00  0.00    -0.374 N 
HETATM   19  C16 UNL     1      32.447   6.037  49.158  1.00  0.00     0.110 C 
HETATM   20  S1  UNL     1      33.325   5.002  47.947  1.00  0.00    -0.144 SA
HETATM   21  C17 UNL     1      34.281   3.682  47.802  1.00  0.00     0.041 A 
HETATM   22  C18 UNL     1      34.611   3.453  46.388  1.00  0.00     0.006 A 
HETATM   23  C19 UNL     1      34.234   4.156  45.365  1.00  0.00     0.003 A 
HETATM   24  C20 UNL     1      33.399   5.347  45.280  1.00  0.00     0.036 A 
HETATM   25  C21 UNL     1      32.896   5.864  46.419  1.00  0.00     0.060 A 
HETATM   26  N4  UNL     1      32.082   6.920  46.906  1.00  0.00    -0.371 N 
HETATM   27  H13 UNL     1      26.767   6.032  50.444  1.00  0.00     0.161 HD
HETATM   28  H20 UNL     1      31.977   7.799  46.305  1.00  0.00     0.161 HD
ENDROOT
BRANCH   1  29
HETATM   29  O1  UNL     1      28.661  12.179  47.865  1.00  0.00    -0.353 OA
HETATM   30  C1  UNL     1      28.293  13.347  48.568  1.00  0.00     0.210 C 
ENDBRANCH   1  29
TORSDOF 1
ENDMDL
MODEL 3
REMARK VINA RESULT:      -9.0      2.919      4.741
REMARK  1 active torsions:
REMARK  status: ('A' for Active; 'I' for Inactive)
REMARK    1  A    between atoms: O1_2  and  C2_3 
ROOT
HETATM    1  C2  UNL     1      22.323   0.153  53.252  1.00  0.00     0.104 A 
HETATM    2  C3  UNL     1      23.534  -0.525  53.172  1.00  0.00     0.072 A 
HETATM    3  C4  UNL     1      24.753   0.016  52.830  1.00  0.00     0.075 A 
HETATM    4  N1  UNL     1      25.813  -0.842  52.778  1.00  0.00    -0.241 NA
HETATM    5  C5  UNL     1      26.972  -0.242  52.394  1.00  0.00     0.235 A 
HETATM    6  N2  UNL     1      27.056   1.087  52.091  1.00  0.00    -0.224 NA
HETATM    7  C6  UNL     1      25.971   1.913  52.156  1.00  0.00     0.137 A 
HETATM    8  C7  UNL     1      24.789   1.353  52.541  1.00  0.00     0.041 A 
HETATM    9  C8  UNL     1      23.598   2.022  52.624  1.00  0.00     0.057 A 
HETATM   10  C9  UNL     1      22.353   1.478  52.967  1.00  0.00     0.109 A 
HETATM   11  O2  UNL     1      21.286   2.424  52.953  1.00  0.00    -0.320 OA
HETATM   12  C10 UNL     1      21.420   3.452  51.962  1.00  0.00     0.141 C 
HETATM   13  C11 UNL     1      21.979   3.617  50.776  1.00  0.00     0.029 C 
HETATM   14  C12 UNL     1      22.534   4.015  49.436  1.00  0.00     0.063 C 
HETATM   15  C13 UNL     1      23.976   3.803  49.406  1.00  0.00     0.056 C 
HETATM   16  C14 UNL     1      25.262   3.594  49.641  1.00  0.00    -0.003 C 
HETATM   17  C15 UNL     1      26.597   3.344  50.275  1.00  0.00     0.122 C 
HETATM   18  N3  UNL     1      26.507   3.164  51.720  1.00  0.00    -0.374 N 
HETATM   19  C16 UNL     1      22.295   5.531  49.332  1.00  0.00     0.110 C 
HETATM   20  S1  UNL     1      22.210   5.619  47.518  1.00  0.00    -0.144 SA
HETATM   21  C17 UNL     1      22.332   6.645  46.249  1.00  0.00     0.041 A 
HETATM   22  C18 UNL     1      22.124   5.915  44.990  1.00  0.00     0.006 A 
HETATM   23  C19 UNL     1      21.876   4.651  44.842  1.00  0.00     0.003 A 
HETATM   24  C20 UNL     1      21.729   3.584  45.824  1.00  0.00     0.036 A 
HETATM   25  C21 UNL     1      21.861   3.889  47.130  1.00  0.00     0.060 A 
HETATM   26  N4  UNL     1      21.829   3.307  48.424  1.00  0.00    -0.371 N 
HETATM   27  H13 UNL     1      26.698   3.629  52.638  1.00  0.00     0.161 HD
HETATM   28  H20 UNL     1      21.293   2.391  48.556  1.00  0.00     0.161 HD
ENDROOT
BRANCH   1  29
HETATM   29  O1  UNL     1      21.082  -0.319  53.579  1.00  0.00    -0.353 OA
HETATM   30  C1  UNL     1      20.850  -1.530  54.267  1.00  0.00     0.210 C 
ENDBRANCH   1  29
TORSDOF 1
ENDMDL
MODEL 4
REMARK VINA RESULT:      -8.5      2.361      3.410
REMARK  1 active torsions:
REMARK  status: ('A' for Active; 'I' for Inactive)
REMARK    1  A    between atoms: O1_2  and  C2_3 
ROOT
HETATM    1  C2  UNL     1      21.653   0.115  53.687  1.00  0.00     0.104 A 
HETATM    2  C3  UNL     1      20.302   0.170  53.363  1.00  0.00     0.072 A 
HETATM    3  C4  UNL     1      19.770   0.436  52.121  1.00  0.00     0.075 A 
HETATM    4  N1  UNL     1      18.408   0.478  52.034  1.00  0.00    -0.241 NA
HETATM    5  C5  UNL     1      17.959   0.787  50.787  1.00  0.00     0.235 A 
HETATM    6  N2  UNL     1      18.795   1.030  49.735  1.00  0.00    -0.224 NA
HETATM    7  C6  UNL     1      20.153   0.978  49.864  1.00  0.00     0.137 A 
HETATM    8  C7  UNL     1      20.647   0.668  51.097  1.00  0.00     0.041 A 
HETATM    9  C8  UNL     1      21.976   0.609  51.413  1.00  0.00     0.057 A 
HETATM   10  C9  UNL     1      22.526   0.343  52.675  1.00  0.00     0.109 A 
HETATM   11  O2  UNL     1      23.952   0.365  52.700  1.00  0.00    -0.320 OA
HETATM   12  C10 UNL     1      24.545   1.305  51.793  1.00  0.00     0.141 C 
HETATM   13  C11 UNL     1      24.240   2.458  51.224  1.00  0.00     0.029 C 
HETATM   14  C12 UNL     1      24.096   3.755  50.476  1.00  0.00     0.063 C 
HETATM   15  C13 UNL     1      22.890   3.731  49.656  1.00  0.00     0.056 C 
HETATM   16  C14 UNL     1      21.803   3.449  48.956  1.00  0.00    -0.003 C 
HETATM   17  C15 UNL     1      20.653   2.769  48.277  1.00  0.00     0.122 C 
HETATM   18  N3  UNL     1      20.603   1.338  48.556  1.00  0.00    -0.374 N 
HETATM   19  C16 UNL     1      25.297   3.806  49.517  1.00  0.00     0.110 C 
HETATM   20  S1  UNL     1      25.412   5.617  49.401  1.00  0.00    -0.144 SA
HETATM   21  C17 UNL     1      26.011   6.836  48.489  1.00  0.00     0.041 A 
HETATM   22  C18 UNL     1      25.666   8.132  49.090  1.00  0.00     0.006 A 
HETATM   23  C19 UNL     1      24.993   8.343  50.178  1.00  0.00     0.003 A 
HETATM   24  C20 UNL     1      24.383   7.413  51.120  1.00  0.00     0.036 A 
HETATM   25  C21 UNL     1      24.498   6.091  50.885  1.00  0.00     0.060 A 
HETATM   26  N4  UNL     1      24.132   4.825  51.412  1.00  0.00    -0.371 N 
HETATM   27  H13 UNL     1      20.781   0.395  48.140  1.00  0.00     0.161 HD
HETATM   28  H20 UNL     1      23.907   4.754  52.456  1.00  0.00     0.161 HD
ENDROOT
BRANCH   1  29
HETATM   29  O1  UNL     1      22.249  -0.139  54.891  1.00  0.00    -0.353 OA
HETATM   30  C1  UNL     1      22.705  -1.411  55.298  1.00  0.00     0.210 C 
ENDBRANCH   1  29
TORSDOF 1
ENDMDL
MODEL 5
REMARK VINA RESULT:      -8.2      3.608      7.656
REMARK  1 active torsions:
REMARK  status: ('A' for Active; 'I' for Inactive)
REMARK    1  A    between atoms: O1_2  and  C2_3 
ROOT
HETATM    1  C2  UNL     1      23.592   7.274  48.359  1.00  0.00     0.104 A 
HETATM    2  C3  UNL     1      23.247   6.830  47.088  1.00  0.00     0.072 A 
HETATM    3  C4  UNL     1      22.447   5.749  46.789  1.00  0.00     0.075 A 
HETATM    4  N1  UNL     1      22.267   5.467  45.466  1.00  0.00    -0.241 NA
HETATM    5  C5  UNL     1      21.500   4.363  45.252  1.00  0.00     0.235 A 
HETATM    6  N2  UNL     1      20.971   3.618  46.266  1.00  0.00    -0.224 NA
HETATM    7  C6  UNL     1      21.175   3.935  47.578  1.00  0.00     0.137 A 
HETATM    8  C7  UNL     1      21.935   5.036  47.838  1.00  0.00     0.041 A 
HETATM    9  C8  UNL     1      22.270   5.476  49.090  1.00  0.00     0.057 A 
HETATM   10  C9  UNL     1      23.086   6.571  49.402  1.00  0.00     0.109 A 
HETATM   11  O2  UNL     1      23.269   6.775  50.802  1.00  0.00    -0.320 OA
HETATM   12  C10 UNL     1      23.283   5.569  51.578  1.00  0.00     0.141 C 
HETATM   13  C11 UNL     1      23.594   4.294  51.420  1.00  0.00     0.029 C 
HETATM   14  C12 UNL     1      23.886   2.818  51.455  1.00  0.00     0.063 C 
HETATM   15  C13 UNL     1      23.136   2.132  50.411  1.00  0.00     0.056 C 
HETATM   16  C14 UNL     1      22.316   1.734  49.451  1.00  0.00    -0.003 C 
HETATM   17  C15 UNL     1      21.240   1.637  48.412  1.00  0.00     0.122 C 
HETATM   18  N3  UNL     1      20.492   2.881  48.261  1.00  0.00    -0.374 N 
HETATM   19  C16 UNL     1      23.335   2.329  52.806  1.00  0.00     0.110 C 
HETATM   20  S1  UNL     1      24.464   0.917  53.007  1.00  0.00    -0.144 SA
HETATM   21  C17 UNL     1      24.659  -0.500  53.800  1.00  0.00     0.041 A 
HETATM   22  C18 UNL     1      25.928  -1.127  53.405  1.00  0.00     0.006 A 
HETATM   23  C19 UNL     1      26.803  -0.675  52.561  1.00  0.00     0.003 A 
HETATM   24  C20 UNL     1      26.820   0.544  51.763  1.00  0.00     0.036 A 
HETATM   25  C21 UNL     1      25.781   1.395  51.868  1.00  0.00     0.060 A 
HETATM   26  N4  UNL     1      25.293   2.632  51.369  1.00  0.00    -0.371 N 
HETATM   27  H13 UNL     1      19.577   3.341  48.473  1.00  0.00     0.161 HD
HETATM   28  H20 UNL     1      25.995   3.330  50.964  1.00  0.00     0.161 HD
ENDROOT
BRANCH   1  29
HETATM   29  O1  UNL     1      24.379   8.330  48.727  1.00  0.00    -0.353 OA
HETATM   30  C1  UNL     1      25.668   8.578  48.207  1.00  0.00     0.210 C 
ENDBRANCH   1  29
TORSDOF 1
ENDMDL
MODEL 6
REMARK VINA RESULT:      -8.1      4.508      6.955
REMARK  1 active torsions:
REMARK  status: ('A' for Active; 'I' for Inactive)
REMARK    1  A    between atoms: O1_2  and  C2_3 
ROOT
HETATM    1  C2  UNL     1      25.011   3.845  51.102  1.00  0.00     0.104 A 
HETATM    2  C3  UNL     1      23.794   4.478  51.330  1.00  0.00     0.072 A 
HETATM    3  C4  UNL     1      23.161   5.360  50.483  1.00  0.00     0.075 A 
HETATM    4  N1  UNL     1      21.985   5.896  50.924  1.00  0.00    -0.241 NA
HETATM    5  C5  UNL     1      21.442   6.788  50.051  1.00  0.00     0.235 A 
HETATM    6  N2  UNL     1      22.023   7.110  48.858  1.00  0.00    -0.224 NA
HETATM    7  C6  UNL     1      23.201   6.550  48.455  1.00  0.00     0.137 A 
HETATM    8  C7  UNL     1      23.779   5.647  49.297  1.00  0.00     0.041 A 
HETATM    9  C8  UNL     1      24.973   5.020  49.070  1.00  0.00     0.057 A 
HETATM   10  C9  UNL     1      25.627   4.125  49.927  1.00  0.00     0.109 A 
HETATM   11  O2  UNL     1      26.871   3.645  49.423  1.00  0.00    -0.320 OA
HETATM   12  C10 UNL     1      27.590   4.594  48.622  1.00  0.00     0.141 C 
HETATM   13  C11 UNL     1      27.709   5.906  48.510  1.00  0.00     0.029 C 
HETATM   14  C12 UNL     1      27.989   7.354  48.214  1.00  0.00     0.063 C 
HETATM   15  C13 UNL     1      26.746   8.057  47.925  1.00  0.00     0.056 C 
HETATM   16  C14 UNL     1      25.516   8.453  47.635  1.00  0.00    -0.003 C 
HETATM   17  C15 UNL     1      24.060   8.520  47.288  1.00  0.00     0.122 C 
HETATM   18  N3  UNL     1      23.441   7.201  47.205  1.00  0.00    -0.374 N 
HETATM   19  C16 UNL     1      28.821   7.349  46.920  1.00  0.00     0.110 C 
HETATM   20  S1  UNL     1      29.705   8.911  47.220  1.00  0.00    -0.144 SA
HETATM   21  C17 UNL     1      30.552  10.098  46.479  1.00  0.00     0.041 A 
HETATM   22  C18 UNL     1      30.977  11.102  47.465  1.00  0.00     0.006 A 
HETATM   23  C19 UNL     1      30.749  11.102  48.742  1.00  0.00     0.003 A 
HETATM   24  C20 UNL     1      30.029  10.155  49.583  1.00  0.00     0.036 A 
HETATM   25  C21 UNL     1      29.480   9.068  49.005  1.00  0.00     0.060 A 
HETATM   26  N4  UNL     1      28.721   7.905  49.301  1.00  0.00    -0.371 N 
HETATM   27  H13 UNL     1      23.073   6.488  46.535  1.00  0.00     0.161 HD
HETATM   28  H20 UNL     1      28.742   7.526  50.301  1.00  0.00     0.161 HD
ENDROOT
BRANCH   1  29
HETATM   29  O1  UNL     1      25.696   2.965  51.895  1.00  0.00    -0.353 OA
HETATM   30  C1  UNL     1      25.238   2.508  53.150  1.00  0.00     0.210 C 
ENDBRANCH   1  29
TORSDOF 1
ENDMDL
MODEL 7
REMARK VINA RESULT:      -8.1      7.855     10.932
REMARK  1 active torsions:
REMARK  status: ('A' for Active; 'I' for Inactive)
REMARK    1  A    between atoms: O1_2  and  C2_3 
ROOT
HETATM    1  C2  UNL     1      33.572   4.205  46.867  1.00  0.00     0.104 A 
HETATM    2  C3  UNL     1      33.551   4.164  45.477  1.00  0.00     0.072 A 
HETATM    3  C4  UNL     1      33.162   5.182  44.636  1.00  0.00     0.075 A 
HETATM    4  N1  UNL     1      33.185   4.913  43.297  1.00  0.00    -0.241 NA
HETATM    5  C5  UNL     1      32.748   5.951  42.534  1.00  0.00     0.235 A 
HETATM    6  N2  UNL     1      32.328   7.138  43.062  1.00  0.00    -0.224 NA
HETATM    7  C6  UNL     1      32.321   7.367  44.409  1.00  0.00     0.137 A 
HETATM    8  C7  UNL     1      32.755   6.354  45.211  1.00  0.00     0.041 A 
HETATM    9  C8  UNL     1      32.780   6.397  46.578  1.00  0.00     0.057 A 
HETATM   10  C9  UNL     1      33.171   5.366  47.443  1.00  0.00     0.109 A 
HETATM   11  O2  UNL     1      33.073   5.702  48.825  1.00  0.00    -0.320 OA
HETATM   12  C10 UNL     1      31.996   6.593  49.143  1.00  0.00     0.141 C 
HETATM   13  C11 UNL     1      30.799   6.905  48.676  1.00  0.00     0.029 C 
HETATM   14  C12 UNL     1      29.428   7.408  48.315  1.00  0.00     0.063 C 
HETATM   15  C13 UNL     1      29.415   7.889  46.939  1.00  0.00     0.056 C 
HETATM   16  C14 UNL     1      29.667   8.321  45.713  1.00  0.00    -0.003 C 
HETATM   17  C15 UNL     1      30.320   8.772  44.441  1.00  0.00     0.122 C 
HETATM   18  N3  UNL     1      31.775   8.685  44.496  1.00  0.00    -0.374 N 
HETATM   19  C16 UNL     1      29.191   8.625  49.224  1.00  0.00     0.110 C 
HETATM   20  S1  UNL     1      27.375   8.520  49.267  1.00  0.00    -0.144 SA
HETATM   21  C17 UNL     1      26.021   9.381  49.583  1.00  0.00     0.041 A 
HETATM   22  C18 UNL     1      24.832   8.541  49.379  1.00  0.00     0.006 A 
HETATM   23  C19 UNL     1      24.796   7.300  49.006  1.00  0.00     0.003 A 
HETATM   24  C20 UNL     1      25.869   6.368  48.682  1.00  0.00     0.036 A 
HETATM   25  C21 UNL     1      27.143   6.802  48.760  1.00  0.00     0.060 A 
HETATM   26  N4  UNL     1      28.484   6.376  48.570  1.00  0.00    -0.371 N 
HETATM   27  H13 UNL     1      32.648   9.257  44.579  1.00  0.00     0.161 HD
HETATM   28  H20 UNL     1      28.697   5.329  48.626  1.00  0.00     0.161 HD
ENDROOT
BRANCH   1  29
HETATM   29  O1  UNL     1      33.941   3.238  47.761  1.00  0.00    -0.353 OA
HETATM   30  C1  UNL     1      33.203   2.059  48.003  1.00  0.00     0.210 C 
ENDBRANCH   1  29
TORSDOF 1
ENDMDL
MODEL 8
REMARK VINA RESULT:      -8.0      3.247      5.324
REMARK  1 active torsions:
REMARK  status: ('A' for Active; 'I' for Inactive)
REMARK    1  A    between atoms: O1_2  and  C2_3 
ROOT
HETATM    1  C2  UNL     1      22.250   0.953  52.735  1.00  0.00     0.104 A 
HETATM    2  C3  UNL     1      23.530   0.420  52.641  1.00  0.00     0.072 A 
HETATM    3  C4  UNL     1      24.662   1.081  52.219  1.00  0.00     0.075 A 
HETATM    4  N1  UNL     1      25.815   0.353  52.168  1.00  0.00    -0.241 NA
HETATM    5  C5  UNL     1      26.879   1.063  51.703  1.00  0.00     0.235 A 
HETATM    6  N2  UNL     1      26.791   2.372  51.325  1.00  0.00    -0.224 NA
HETATM    7  C6  UNL     1      25.616   3.065  51.391  1.00  0.00     0.137 A 
HETATM    8  C7  UNL     1      24.525   2.393  51.856  1.00  0.00     0.041 A 
HETATM    9  C8  UNL     1      23.267   2.920  51.953  1.00  0.00     0.057 A 
HETATM   10  C9  UNL     1      22.109   2.253  52.378  1.00  0.00     0.109 A 
HETATM   11  O2  UNL     1      20.936   3.063  52.357  1.00  0.00    -0.320 OA
HETATM   12  C10 UNL     1      20.909   4.040  51.307  1.00  0.00     0.141 C 
HETATM   13  C11 UNL     1      21.402   4.199  50.091  1.00  0.00     0.029 C 
HETATM   14  C12 UNL     1      21.856   4.580  48.709  1.00  0.00     0.063 C 
HETATM   15  C13 UNL     1      23.311   4.540  48.629  1.00  0.00     0.056 C 
HETATM   16  C14 UNL     1      24.620   4.499  48.821  1.00  0.00    -0.003 C 
HETATM   17  C15 UNL     1      25.997   4.447  49.410  1.00  0.00     0.122 C 
HETATM   18  N3  UNL     1      25.982   4.344  50.865  1.00  0.00    -0.374 N 
HETATM   19  C16 UNL     1      21.432   6.048  48.533  1.00  0.00     0.110 C 
HETATM   20  S1  UNL     1      21.272   6.018  46.722  1.00  0.00    -0.144 SA
HETATM   21  C17 UNL     1      21.224   6.974  45.395  1.00  0.00     0.041 A 
HETATM   22  C18 UNL     1      21.060   6.152  44.188  1.00  0.00     0.006 A 
HETATM   23  C19 UNL     1      20.962   4.860  44.119  1.00  0.00     0.003 A 
HETATM   24  C20 UNL     1      20.981   3.844  45.163  1.00  0.00     0.036 A 
HETATM   25  C21 UNL     1      21.121   4.239  46.444  1.00  0.00     0.060 A 
HETATM   26  N4  UNL     1      21.206   3.735  47.768  1.00  0.00    -0.371 N 
HETATM   27  H13 UNL     1      26.147   4.882  51.747  1.00  0.00     0.161 HD
HETATM   28  H20 UNL     1      20.790   2.771  47.973  1.00  0.00     0.161 HD
ENDROOT
BRANCH   1  29
HETATM   29  O1  UNL     1      21.087   0.357  53.140  1.00  0.00    -0.353 OA
HETATM   30  C1  UNL     1      20.761   0.091  54.488  1.00  0.00     0.210 C 
ENDBRANCH   1  29
TORSDOF 1
ENDMDL
MODEL 9
REMARK VINA RESULT:      -7.8      4.022      6.694
REMARK  1 active torsions:
REMARK  status: ('A' for Active; 'I' for Inactive)
REMARK    1  A    between atoms: O1_2  and  C2_3 
ROOT
HETATM    1  C2  UNL     1      23.642   3.667  49.282  1.00  0.00     0.104 A 
HETATM    2  C3  UNL     1      24.440   3.510  50.409  1.00  0.00     0.072 A 
HETATM    3  C4  UNL     1      24.301   2.543  51.381  1.00  0.00     0.075 A 
HETATM    4  N1  UNL     1      25.177   2.595  52.427  1.00  0.00    -0.241 NA
HETATM    5  C5  UNL     1      24.950   1.635  53.364  1.00  0.00     0.235 A 
HETATM    6  N2  UNL     1      23.944   0.717  53.261  1.00  0.00    -0.224 NA
HETATM    7  C6  UNL     1      23.089   0.700  52.197  1.00  0.00     0.137 A 
HETATM    8  C7  UNL     1      23.282   1.642  51.231  1.00  0.00     0.041 A 
HETATM    9  C8  UNL     1      22.500   1.793  50.119  1.00  0.00     0.057 A 
HETATM   10  C9  UNL     1      22.631   2.775  49.128  1.00  0.00     0.109 A 
HETATM   11  O2  UNL     1      21.653   2.688  48.095  1.00  0.00    -0.320 OA
HETATM   12  C10 UNL     1      20.371   2.215  48.532  1.00  0.00     0.141 C 
HETATM   13  C11 UNL     1      19.641   2.210  49.634  1.00  0.00     0.029 C 
HETATM   14  C12 UNL     1      18.657   2.091  50.765  1.00  0.00     0.063 C 
HETATM   15  C13 UNL     1      19.283   1.441  51.910  1.00  0.00     0.056 C 
HETATM   16  C14 UNL     1      20.038   0.780  52.774  1.00  0.00    -0.003 C 
HETATM   17  C15 UNL     1      21.112  -0.024  53.440  1.00  0.00     0.122 C 
HETATM   18  N3  UNL     1      22.200  -0.369  52.531  1.00  0.00    -0.374 N 
HETATM   19  C16 UNL     1      17.559   1.146  50.250  1.00  0.00     0.110 C 
HETATM   20  S1  UNL     1      16.208   1.793  51.281  1.00  0.00    -0.144 SA
HETATM   21  C17 UNL     1      14.729   1.431  51.880  1.00  0.00     0.041 A 
HETATM   22  C18 UNL     1      14.229   2.547  52.694  1.00  0.00     0.006 A 
HETATM   23  C19 UNL     1      14.821   3.675  52.937  1.00  0.00     0.003 A 
HETATM   24  C20 UNL     1      16.116   4.187  52.506  1.00  0.00     0.036 A 
HETATM   25  C21 UNL     1      16.885   3.409  51.718  1.00  0.00     0.060 A 
HETATM   26  N4  UNL     1      18.138   3.384  51.052  1.00  0.00    -0.371 N 
HETATM   27  H13 UNL     1      22.620  -1.156  51.985  1.00  0.00     0.161 HD
HETATM   28  H20 UNL     1      18.608   4.316  50.816  1.00  0.00     0.161 HD
ENDROOT
BRANCH   1  29
HETATM   29  O1  UNL     1      23.719   4.599  48.284  1.00  0.00    -0.353 OA
HETATM   30  C1  UNL     1      23.338   5.951  48.431  1.00  0.00     0.210 C 
ENDBRANCH   1  29
TORSDOF 1
ENDMDL
