MODEL 1
REMARK VINA RESULT:      -7.3      0.000      0.000
REMARK  2 active torsions:
REMARK  status: ('A' for Active; 'I' for Inactive)
REMARK    1  A    between atoms: C2_2  and  N1_3 
REMARK    2  A    between atoms: C16_22  and  C17_23 
ROOT
HETATM    1  N1  UNL     1      22.909   1.770  51.490  1.00  0.00    -0.357 N 
HETATM    2  C3  UNL     1      22.632   2.281  50.186  1.00  0.00     0.040 C 
HETATM    3  C4  UNL     1      23.521   3.208  49.766  1.00  0.00    -0.029 C 
HETATM    4  C5  UNL     1      23.018   4.303  48.892  1.00  0.00     0.043 C 
HETATM    5  C6  UNL     1      21.742   3.861  48.905  1.00  0.00     0.073 C 
HETATM    6  O1  UNL     1      21.413   5.214  48.917  1.00  0.00    -0.333 OA
HETATM    7  C7  UNL     1      20.563   5.582  50.037  1.00  0.00     0.325 C 
HETATM    8  N2  UNL     1      21.395   6.249  51.000  1.00  0.00    -0.257 NA
HETATM    9  C8  UNL     1      22.393   5.671  51.575  1.00  0.00     0.228 C 
HETATM   10  N3  UNL     1      23.009   4.416  51.549  1.00  0.00    -0.256 NA
HETATM   11  C9  UNL     1      23.712   3.884  52.452  1.00  0.00     0.116 C 
HETATM   12  C10 UNL     1      24.087   2.575  51.860  1.00  0.00     0.130 C 
HETATM   13  C11 UNL     1      24.792   2.765  50.511  1.00  0.00     0.071 C 
HETATM   14  C12 UNL     1      21.794   2.366  48.897  1.00  0.00     0.189 C 
HETATM   15 CL1  UNL     1      22.713   1.859  47.498  1.00  0.00    -0.111 Cl
ENDROOT
BRANCH   1  16
HETATM   16  C2  UNL     1      22.009   0.735  51.937  1.00  0.00     0.080 A 
HETATM   17  C1  UNL     1      21.287   0.165  50.734  1.00  0.00     0.046 C 
HETATM   18  C13 UNL     1      22.763  -0.392  52.603  1.00  0.00     0.066 A 
HETATM   19  C14 UNL     1      22.245  -0.670  53.966  1.00  0.00    -0.005 A 
HETATM   20  C15 UNL     1      21.287  -0.161  54.712  1.00  0.00     0.113 A 
HETATM   21  N4  UNL     1      20.584   0.912  54.054  1.00  0.00    -0.260 NA
HETATM   22  C16 UNL     1      20.971   1.222  52.860  1.00  0.00     0.100 A 
BRANCH  22  23
HETATM   23  C17 UNL     1      20.201   2.315  52.279  1.00  0.00     0.288 C 
HETATM   24  O2  UNL     1      19.938   3.464  52.775  1.00  0.00    -0.300 OA
ENDBRANCH  22  23
ENDBRANCH   1  16
TORSDOF 2
ENDMDL
MODEL 2
REMARK VINA RESULT:      -7.1      2.759      3.880
REMARK  2 active torsions:
REMARK  status: ('A' for Active; 'I' for Inactive)
REMARK    1  A    between atoms: C2_2  and  N1_3 
REMARK    2  A    between atoms: C16_22  and  C17_23 
ROOT
HETATM    1  N1  UNL     1      24.017   2.676  51.174  1.00  0.00    -0.357 N 
HETATM    2  C3  UNL     1      22.943   3.616  51.231  1.00  0.00     0.040 C 
HETATM    3  C4  UNL     1      22.549   4.065  50.019  1.00  0.00    -0.029 C 
HETATM    4  C5  UNL     1      22.059   5.467  49.926  1.00  0.00     0.043 C 
HETATM    5  C6  UNL     1      22.253   5.727  51.237  1.00  0.00     0.073 C 
HETATM    6  O1  UNL     1      22.625   6.994  50.797  1.00  0.00    -0.333 OA
HETATM    7  C7  UNL     1      23.953   7.382  51.238  1.00  0.00     0.325 C 
HETATM    8  N2  UNL     1      24.834   7.237  50.112  1.00  0.00    -0.257 NA
HETATM    9  C8  UNL     1      25.042   6.104  49.533  1.00  0.00     0.228 C 
HETATM   10  N3  UNL     1      24.617   4.781  49.681  1.00  0.00    -0.256 NA
HETATM   11  C9  UNL     1      25.211   3.734  49.305  1.00  0.00     0.116 C 
HETATM   12  C10 UNL     1      24.287   2.650  49.725  1.00  0.00     0.130 C 
HETATM   13  C11 UNL     1      22.889   2.859  49.127  1.00  0.00     0.071 C 
HETATM   14  C12 UNL     1      21.915   4.477  51.987  1.00  0.00     0.189 C 
HETATM   15 CL1  UNL     1      20.275   4.024  51.582  1.00  0.00    -0.111 Cl
ENDROOT
BRANCH   1  16
HETATM   16  C2  UNL     1      24.416   2.137  52.451  1.00  0.00     0.080 A 
HETATM   17  C1  UNL     1      24.611   3.281  53.424  1.00  0.00     0.046 C 
HETATM   18  C13 UNL     1      23.350   1.226  53.013  1.00  0.00     0.066 A 
HETATM   19  C14 UNL     1      23.893  -0.116  53.344  1.00  0.00    -0.005 A 
HETATM   20  C15 UNL     1      25.079  -0.680  53.259  1.00  0.00     0.113 A 
HETATM   21  N4  UNL     1      26.077   0.211  52.719  1.00  0.00    -0.260 NA
HETATM   22  C16 UNL     1      25.690   1.403  52.402  1.00  0.00     0.100 A 
BRANCH  22  23
HETATM   23  C17 UNL     1      26.768   2.225  51.867  1.00  0.00     0.288 C 
HETATM   24  O2  UNL     1      27.932   2.440  52.351  1.00  0.00    -0.300 OA
ENDBRANCH  22  23
ENDBRANCH   1  16
TORSDOF 2
ENDMDL
MODEL 3
REMARK VINA RESULT:      -6.9      9.723     12.151
REMARK  2 active torsions:
REMARK  status: ('A' for Active; 'I' for Inactive)
REMARK    1  A    between atoms: C2_2  and  N1_3 
REMARK    2  A    between atoms: C16_22  and  C17_23 
ROOT
HETATM    1  N1  UNL     1      31.967   8.264  47.330  1.00  0.00    -0.357 N 
HETATM    2  C3  UNL     1      32.061   7.058  48.091  1.00  0.00     0.040 C 
HETATM    3  C4  UNL     1      33.332   6.661  48.323  1.00  0.00    -0.029 C 
HETATM    4  C5  UNL     1      33.598   5.198  48.390  1.00  0.00     0.043 C 
HETATM    5  C6  UNL     1      32.315   4.853  48.147  1.00  0.00     0.073 C 
HETATM    6  O1  UNL     1      32.872   3.803  47.422  1.00  0.00    -0.333 OA
HETATM    7  C7  UNL     1      32.415   3.758  46.043  1.00  0.00     0.325 C 
HETATM    8  N2  UNL     1      33.477   4.277  45.227  1.00  0.00    -0.257 NA
HETATM    9  C8  UNL     1      33.920   5.482  45.344  1.00  0.00     0.228 C 
HETATM   10  N3  UNL     1      33.649   6.604  46.133  1.00  0.00    -0.256 NA
HETATM   11  C9  UNL     1      33.883   7.814  45.859  1.00  0.00     0.116 C 
HETATM   12  C10 UNL     1      33.391   8.534  47.060  1.00  0.00     0.130 C 
HETATM   13  C11 UNL     1      34.071   8.009  48.331  1.00  0.00     0.071 C 
HETATM   14  C12 UNL     1      31.451   5.859  48.839  1.00  0.00     0.189 C 
HETATM   15 CL1  UNL     1      31.879   5.874  50.534  1.00  0.00    -0.111 Cl
ENDROOT
BRANCH   1  16
HETATM   16  C2  UNL     1      30.623   8.741  47.120  1.00  0.00     0.080 A 
HETATM   17  C1  UNL     1      30.669   9.930  46.182  1.00  0.00     0.046 C 
HETATM   18  C13 UNL     1      29.762   7.678  46.479  1.00  0.00     0.066 A 
HETATM   19  C14 UNL     1      28.532   7.417  47.268  1.00  0.00    -0.005 A 
HETATM   20  C15 UNL     1      28.031   7.900  48.386  1.00  0.00     0.113 A 
HETATM   21  N4  UNL     1      28.872   8.912  48.976  1.00  0.00    -0.260 NA
HETATM   22  C16 UNL     1      29.967   9.203  48.354  1.00  0.00     0.100 A 
BRANCH  22  23
HETATM   23  C17 UNL     1      30.746  10.234  49.027  1.00  0.00     0.288 C 
HETATM   24  O2  UNL     1      30.424  11.444  49.287  1.00  0.00    -0.300 OA
ENDBRANCH  22  23
ENDBRANCH   1  16
TORSDOF 2
ENDMDL
MODEL 4
REMARK VINA RESULT:      -6.9      2.546      5.462
REMARK  2 active torsions:
REMARK  status: ('A' for Active; 'I' for Inactive)
REMARK    1  A    between atoms: C2_2  and  N1_3 
REMARK    2  A    between atoms: C16_22  and  C17_23 
ROOT
HETATM    1  N1  UNL     1      23.702   4.121  50.933  1.00  0.00    -0.357 N 
HETATM    2  C3  UNL     1      22.288   3.922  50.893  1.00  0.00     0.040 C 
HETATM    3  C4  UNL     1      21.707   3.904  52.113  1.00  0.00    -0.029 C 
HETATM    4  C5  UNL     1      20.525   3.020  52.304  1.00  0.00     0.043 C 
HETATM    5  C6  UNL     1      20.549   2.548  51.038  1.00  0.00     0.073 C 
HETATM    6  O1  UNL     1      20.161   1.344  51.619  1.00  0.00    -0.333 OA
HETATM    7  C7  UNL     1      21.057   0.245  51.305  1.00  0.00     0.325 C 
HETATM    8  N2  UNL     1      21.868   0.013  52.469  1.00  0.00    -0.257 NA
HETATM    9  C8  UNL     1      22.663   0.906  52.951  1.00  0.00     0.228 C 
HETATM   10  N3  UNL     1      23.037   2.218  52.653  1.00  0.00    -0.256 NA
HETATM   11  C9  UNL     1      24.109   2.806  52.968  1.00  0.00     0.116 C 
HETATM   12  C10 UNL     1      23.936   4.161  52.388  1.00  0.00     0.130 C 
HETATM   13  C11 UNL     1      22.651   4.820  52.909  1.00  0.00     0.071 C 
HETATM   14  C12 UNL     1      20.958   3.684  50.154  1.00  0.00     0.189 C 
HETATM   15 CL1  UNL     1      19.838   5.002  50.406  1.00  0.00    -0.111 Cl
ENDROOT
BRANCH   1  16
HETATM   16  C2  UNL     1      24.337   4.205  49.641  1.00  0.00     0.080 A 
HETATM   17  C1  UNL     1      23.873   3.037  48.794  1.00  0.00     0.046 C 
HETATM   18  C13 UNL     1      23.951   5.478  48.927  1.00  0.00     0.066 A 
HETATM   19  C14 UNL     1      25.144   6.257  48.508  1.00  0.00    -0.005 A 
HETATM   20  C15 UNL     1      26.445   6.086  48.619  1.00  0.00     0.113 A 
HETATM   21  N4  UNL     1      26.785   4.864  49.305  1.00  0.00    -0.260 NA
HETATM   22  C16 UNL     1      25.805   4.122  49.705  1.00  0.00     0.100 A 
BRANCH  22  23
HETATM   23  C17 UNL     1      26.249   2.912  50.385  1.00  0.00     0.288 C 
HETATM   24  O2  UNL     1      27.188   2.770  51.241  1.00  0.00    -0.300 OA
ENDBRANCH  22  23
ENDBRANCH   1  16
TORSDOF 2
ENDMDL
MODEL 5
REMARK VINA RESULT:      -6.8      9.492     11.821
REMARK  2 active torsions:
REMARK  status: ('A' for Active; 'I' for Inactive)
REMARK    1  A    between atoms: C2_2  and  N1_3 
REMARK    2  A    between atoms: C16_22  and  C17_23 
ROOT
HETATM    1  N1  UNL     1      29.778   9.342  47.505  1.00  0.00    -0.357 N 
HETATM    2  C3  UNL     1      31.032   8.917  46.971  1.00  0.00     0.040 C 
HETATM    3  C4  UNL     1      30.922   7.972  46.011  1.00  0.00    -0.029 C 
HETATM    4  C5  UNL     1      32.002   6.953  45.916  1.00  0.00     0.043 C 
HETATM    5  C6  UNL     1      32.703   7.454  46.957  1.00  0.00     0.073 C 
HETATM    6  O1  UNL     1      32.983   6.120  47.241  1.00  0.00    -0.333 OA
HETATM    7  C7  UNL     1      32.598   5.733  48.587  1.00  0.00     0.325 C 
HETATM    8  N2  UNL     1      31.382   4.975  48.480  1.00  0.00    -0.257 NA
HETATM    9  C8  UNL     1      30.293   5.472  48.001  1.00  0.00     0.228 C 
HETATM   10  N3  UNL     1      29.864   6.694  47.477  1.00  0.00    -0.256 NA
HETATM   11  C9  UNL     1      28.686   7.142  47.430  1.00  0.00     0.116 C 
HETATM   12  C10 UNL     1      28.851   8.462  46.771  1.00  0.00     0.130 C 
HETATM   13  C11 UNL     1      29.547   8.312  45.412  1.00  0.00     0.071 C 
HETATM   14  C12 UNL     1      32.570   8.943  46.899  1.00  0.00     0.189 C 
HETATM   15 CL1  UNL     1      33.131   9.481  45.333  1.00  0.00    -0.111 Cl
ENDROOT
BRANCH   1  16
HETATM   16  C2  UNL     1      29.865  10.393  48.489  1.00  0.00     0.080 A 
HETATM   17  C1  UNL     1      30.704   9.904  49.651  1.00  0.00     0.046 C 
HETATM   18  C13 UNL     1      30.535  11.619  47.917  1.00  0.00     0.066 A 
HETATM   19  C14 UNL     1      29.694  12.833  48.081  1.00  0.00    -0.005 A 
HETATM   20  C15 UNL     1      28.512  13.073  48.608  1.00  0.00     0.113 A 
HETATM   21  N4  UNL     1      27.895  11.886  49.147  1.00  0.00    -0.260 NA
HETATM   22  C16 UNL     1      28.559  10.782  49.046  1.00  0.00     0.100 A 
BRANCH  22  23
HETATM   23  C17 UNL     1      27.854   9.641  49.618  1.00  0.00     0.288 C 
HETATM   24  O2  UNL     1      27.078   9.603  50.633  1.00  0.00    -0.300 OA
ENDBRANCH  22  23
ENDBRANCH   1  16
TORSDOF 2
ENDMDL
MODEL 6
REMARK VINA RESULT:      -6.7      2.033      5.098
REMARK  2 active torsions:
REMARK  status: ('A' for Active; 'I' for Inactive)
REMARK    1  A    between atoms: C2_2  and  N1_3 
REMARK    2  A    between atoms: C16_22  and  C17_23 
ROOT
HETATM    1  N1  UNL     1      23.154   3.862  50.584  1.00  0.00    -0.357 N 
HETATM    2  C3  UNL     1      21.759   3.648  50.801  1.00  0.00     0.040 C 
HETATM    3  C4  UNL     1      21.381   3.793  52.090  1.00  0.00    -0.029 C 
HETATM    4  C5  UNL     1      20.272   2.935  52.587  1.00  0.00     0.043 C 
HETATM    5  C6  UNL     1      20.108   2.293  51.410  1.00  0.00     0.073 C 
HETATM    6  O1  UNL     1      19.853   1.178  52.203  1.00  0.00    -0.333 OA
HETATM    7  C7  UNL     1      20.721   0.053  51.899  1.00  0.00     0.325 C 
HETATM    8  N2  UNL     1      21.713  -0.010  52.936  1.00  0.00    -0.257 NA
HETATM    9  C8  UNL     1      22.549   0.947  53.158  1.00  0.00     0.228 C 
HETATM   10  N3  UNL     1      22.831   2.209  52.629  1.00  0.00    -0.256 NA
HETATM   11  C9  UNL     1      23.920   2.842  52.684  1.00  0.00     0.116 C 
HETATM   12  C10 UNL     1      23.616   4.103  51.962  1.00  0.00     0.130 C 
HETATM   13  C11 UNL     1      22.412   4.818  52.591  1.00  0.00     0.071 C 
HETATM   14  C12 UNL     1      20.336   3.299  50.326  1.00  0.00     0.189 C 
HETATM   15 CL1  UNL     1      19.231   4.631  50.576  1.00  0.00    -0.111 Cl
ENDROOT
BRANCH   1  16
HETATM   16  C2  UNL     1      23.572   3.771  49.206  1.00  0.00     0.080 A 
HETATM   17  C1  UNL     1      25.085   3.823  49.152  1.00  0.00     0.046 C 
HETATM   18  C13 UNL     1      23.129   2.466  48.589  1.00  0.00     0.066 A 
HETATM   19  C14 UNL     1      22.345   2.683  47.347  1.00  0.00    -0.005 A 
HETATM   20  C15 UNL     1      21.956   3.745  46.674  1.00  0.00     0.113 A 
HETATM   21  N4  UNL     1      22.391   4.977  47.285  1.00  0.00    -0.260 NA
HETATM   22  C16 UNL     1      23.081   4.880  48.373  1.00  0.00     0.100 A 
BRANCH  22  23
HETATM   23  C17 UNL     1      23.474   6.176  48.913  1.00  0.00     0.288 C 
HETATM   24  O2  UNL     1      22.765   7.030  49.548  1.00  0.00    -0.300 OA
ENDBRANCH  22  23
ENDBRANCH   1  16
TORSDOF 2
ENDMDL
MODEL 7
REMARK VINA RESULT:      -6.6      1.973      2.959
REMARK  2 active torsions:
REMARK  status: ('A' for Active; 'I' for Inactive)
REMARK    1  A    between atoms: C2_2  and  N1_3 
REMARK    2  A    between atoms: C16_22  and  C17_23 
ROOT
HETATM    1  N1  UNL     1      23.874   3.935  51.009  1.00  0.00    -0.357 N 
HETATM    2  C3  UNL     1      23.149   3.768  49.789  1.00  0.00     0.040 C 
HETATM    3  C4  UNL     1      23.669   4.458  48.750  1.00  0.00    -0.029 C 
HETATM    4  C5  UNL     1      22.723   4.990  47.731  1.00  0.00     0.043 C 
HETATM    5  C6  UNL     1      21.625   4.517  48.358  1.00  0.00     0.073 C 
HETATM    6  O1  UNL     1      21.028   5.697  47.923  1.00  0.00    -0.333 OA
HETATM    7  C7  UNL     1      20.457   6.478  49.006  1.00  0.00     0.325 C 
HETATM    8  N2  UNL     1      21.356   7.570  49.263  1.00  0.00    -0.257 NA
HETATM    9  C8  UNL     1      22.573   7.391  49.647  1.00  0.00     0.228 C 
HETATM   10  N3  UNL     1      23.414   6.312  49.933  1.00  0.00    -0.256 NA
HETATM   11  C9  UNL     1      24.433   6.305  50.677  1.00  0.00     0.116 C 
HETATM   12  C10 UNL     1      24.906   4.900  50.589  1.00  0.00     0.130 C 
HETATM   13  C11 UNL     1      25.158   4.497  49.130  1.00  0.00     0.071 C 
HETATM   14  C12 UNL     1      21.993   3.193  48.950  1.00  0.00     0.189 C 
HETATM   15 CL1  UNL     1      22.583   2.165  47.664  1.00  0.00    -0.111 Cl
ENDROOT
BRANCH   1  16
HETATM   16  C2  UNL     1      23.374   3.162  52.119  1.00  0.00     0.080 A 
HETATM   17  C1  UNL     1      24.149   3.540  53.364  1.00  0.00     0.046 C 
HETATM   18  C13 UNL     1      21.915   3.455  52.373  1.00  0.00     0.066 A 
HETATM   19  C14 UNL     1      21.095   2.217  52.369  1.00  0.00    -0.005 A 
HETATM   20  C15 UNL     1      21.355   0.938  52.197  1.00  0.00     0.113 A 
HETATM   21  N4  UNL     1      22.755   0.685  51.956  1.00  0.00    -0.260 NA
HETATM   22  C16 UNL     1      23.542   1.710  51.942  1.00  0.00     0.100 A 
BRANCH  22  23
HETATM   23  C17 UNL     1      24.933   1.354  51.691  1.00  0.00     0.288 C 
HETATM   24  O2  UNL     1      25.629   0.416  52.213  1.00  0.00    -0.300 OA
ENDBRANCH  22  23
ENDBRANCH   1  16
TORSDOF 2
ENDMDL
MODEL 8
REMARK VINA RESULT:      -6.6      1.933      2.543
REMARK  2 active torsions:
REMARK  status: ('A' for Active; 'I' for Inactive)
REMARK    1  A    between atoms: C2_2  and  N1_3 
REMARK    2  A    between atoms: C16_22  and  C17_23 
ROOT
HETATM    1  N1  UNL     1      21.593   2.313  51.899  1.00  0.00    -0.357 N 
HETATM    2  C3  UNL     1      22.614   2.851  51.058  1.00  0.00     0.040 C 
HETATM    3  C4  UNL     1      22.587   4.200  50.967  1.00  0.00    -0.029 C 
HETATM    4  C5  UNL     1      23.001   4.814  49.676  1.00  0.00     0.043 C 
HETATM    5  C6  UNL     1      23.239   3.629  49.074  1.00  0.00     0.073 C 
HETATM    6  O1  UNL     1      22.726   4.251  47.939  1.00  0.00    -0.333 OA
HETATM    7  C7  UNL     1      21.607   3.533  47.353  1.00  0.00     0.325 C 
HETATM    8  N2  UNL     1      20.411   4.241  47.718  1.00  0.00    -0.257 NA
HETATM    9  C8  UNL     1      20.043   4.398  48.943  1.00  0.00     0.228 C 
HETATM   10  N3  UNL     1      20.512   4.044  50.211  1.00  0.00    -0.256 NA
HETATM   11  C9  UNL     1      19.842   3.919  51.274  1.00  0.00     0.116 C 
HETATM   12  C10 UNL     1      20.868   3.539  52.277  1.00  0.00     0.130 C 
HETATM   13  C11 UNL     1      21.993   4.581  52.333  1.00  0.00     0.071 C 
HETATM   14  C12 UNL     1      23.820   2.719  50.109  1.00  0.00     0.189 C 
HETATM   15 CL1  UNL     1      25.246   3.485  50.772  1.00  0.00    -0.111 Cl
ENDROOT
BRANCH   1  16
HETATM   16  C2  UNL     1      21.638   0.880  52.061  1.00  0.00     0.080 A 
HETATM   17  C1  UNL     1      21.542   0.233  50.695  1.00  0.00     0.046 C 
HETATM   18  C13 UNL     1      22.939   0.445  52.691  1.00  0.00     0.066 A 
HETATM   19  C14 UNL     1      22.714  -0.377  53.907  1.00  0.00    -0.005 A 
HETATM   20  C15 UNL     1      21.646  -0.805  54.548  1.00  0.00     0.113 A 
HETATM   21  N4  UNL     1      20.418  -0.374  53.926  1.00  0.00    -0.260 NA
HETATM   22  C16 UNL     1      20.522   0.347  52.859  1.00  0.00     0.100 A 
BRANCH  22  23
HETATM   23  C17 UNL     1      19.230   0.732  52.305  1.00  0.00     0.288 C 
HETATM   24  O2  UNL     1      18.243  -0.012  51.977  1.00  0.00    -0.300 OA
ENDBRANCH  22  23
ENDBRANCH   1  16
TORSDOF 2
ENDMDL
MODEL 9
REMARK VINA RESULT:      -6.6      2.703      4.619
REMARK  2 active torsions:
REMARK  status: ('A' for Active; 'I' for Inactive)
REMARK    1  A    between atoms: C2_2  and  N1_3 
REMARK    2  A    between atoms: C16_22  and  C17_23 
ROOT
HETATM    1  N1  UNL     1      22.254   2.330  50.201  1.00  0.00    -0.357 N 
HETATM    2  C3  UNL     1      21.226   2.110  51.169  1.00  0.00     0.040 C 
HETATM    3  C4  UNL     1      20.302   1.203  50.782  1.00  0.00    -0.029 C 
HETATM    4  C5  UNL     1      18.901   1.404  51.240  1.00  0.00     0.043 C 
HETATM    5  C6  UNL     1      19.178   2.545  51.909  1.00  0.00     0.073 C 
HETATM    6  O1  UNL     1      17.925   2.956  51.463  1.00  0.00    -0.333 OA
HETATM    7  C7  UNL     1      17.967   4.204  50.719  1.00  0.00     0.325 C 
HETATM    8  N2  UNL     1      17.843   3.872  49.326  1.00  0.00    -0.257 NA
HETATM    9  C8  UNL     1      18.703   3.138  48.707  1.00  0.00     0.228 C 
HETATM   10  N3  UNL     1      19.891   2.467  49.012  1.00  0.00    -0.256 NA
HETATM   11  C9  UNL     1      20.815   2.136  48.219  1.00  0.00     0.116 C 
HETATM   12  C10 UNL     1      21.795   1.459  49.105  1.00  0.00     0.130 C 
HETATM   13  C11 UNL     1      21.137   0.297  49.862  1.00  0.00     0.071 C 
HETATM   14  C12 UNL     1      20.534   2.378  52.518  1.00  0.00     0.189 C 
HETATM   15 CL1  UNL     1      20.510   0.947  53.522  1.00  0.00    -0.111 Cl
ENDROOT
BRANCH   1  16
HETATM   16  C2  UNL     1      23.285   3.250  50.615  1.00  0.00     0.080 A 
HETATM   17  C1  UNL     1      24.326   3.340  49.518  1.00  0.00     0.046 C 
HETATM   18  C13 UNL     1      22.722   4.634  50.836  1.00  0.00     0.066 A 
HETATM   19  C14 UNL     1      23.042   5.148  52.191  1.00  0.00    -0.005 A 
HETATM   20  C15 UNL     1      23.699   4.673  53.228  1.00  0.00     0.113 A 
HETATM   21  N4  UNL     1      24.225   3.351  52.991  1.00  0.00    -0.260 NA
HETATM   22  C16 UNL     1      23.992   2.826  51.834  1.00  0.00     0.100 A 
BRANCH  22  23
HETATM   23  C17 UNL     1      24.563   1.492  51.690  1.00  0.00     0.288 C 
HETATM   24  O2  UNL     1      25.742   1.088  51.974  1.00  0.00    -0.300 OA
ENDBRANCH  22  23
ENDBRANCH   1  16
TORSDOF 2
ENDMDL
