MODEL 1
REMARK VINA RESULT:      -7.4      0.000      0.000
REMARK  4 active torsions:
REMARK  status: ('A' for Active; 'I' for Inactive)
REMARK    1  A    between atoms: O1_2  and  C2_3 
REMARK    2  A    between atoms: C7_10  and  N3_11 
REMARK    3  A    between atoms: N3_11  and  C8_12 
REMARK    4  A    between atoms: C16_20  and  O2_21 
ROOT
HETATM    1  C2  UNL     1      22.455   1.395  50.791  1.00  0.00     0.076 C 
HETATM    2  C3  UNL     1      21.303   0.845  51.114  1.00  0.00     0.038 C 
HETATM    3  C4  UNL     1      20.924   0.130  52.320  1.00  0.00     0.327 C 
HETATM    4  N1  UNL     1      20.330  -0.514  53.224  1.00  0.00    -0.413 NA
HETATM    5  C5  UNL     1      20.953  -0.884  54.461  1.00  0.00     0.090 C 
HETATM    6  C6  UNL     1      22.232  -1.139  54.630  1.00  0.00     0.105 C 
HETATM    7  N2  UNL     1      23.180  -1.077  53.581  1.00  0.00    -0.351 N 
HETATM    8  C7  UNL     1      24.026  -0.002  53.207  1.00  0.00     0.104 C 
HETATM    9  C15 UNL     1      24.250   0.965  52.349  1.00  0.00     0.060 C 
HETATM   10  C16 UNL     1      23.850   1.695  51.147  1.00  0.00     0.203 C 
HETATM   11  H8  UNL     1      23.074  -2.026  53.186  1.00  0.00     0.166 HD
ENDROOT
BRANCH   8  12
HETATM   12  N3  UNL     1      24.885  -0.271  54.306  1.00  0.00    -0.343 N 
HETATM   13  H9  UNL     1      24.681  -0.478  55.319  1.00  0.00     0.167 HD
BRANCH  12  14
HETATM   14  C8  UNL     1      26.286  -0.274  54.017  1.00  0.00     0.034 A 
HETATM   15  C9  UNL     1      26.841  -1.328  53.309  1.00  0.00     0.029 A 
HETATM   16  C10 UNL     1      28.185  -1.424  52.978  1.00  0.00     0.003 A 
HETATM   17  C11 UNL     1      29.037  -0.413  53.374  1.00  0.00     0.007 A 
HETATM   18  C12 UNL     1      28.519   0.648  54.078  1.00  0.00    -0.060 A 
HETATM   19  C13 UNL     1      29.414   1.756  54.519  1.00  0.00     0.048 C 
HETATM   20  C14 UNL     1      27.179   0.714  54.390  1.00  0.00     0.036 A 
ENDBRANCH  12  14
ENDBRANCH   8  12
BRANCH  10  21
HETATM   21  O2  UNL     1      24.038   3.078  51.261  1.00  0.00    -0.380 OA
HETATM   22  C17 UNL     1      23.581   3.523  52.489  1.00  0.00     0.202 C 
ENDBRANCH  10  21
BRANCH   1  23
HETATM   23  O1  UNL     1      22.382   1.988  49.527  1.00  0.00    -0.357 OA
HETATM   24  C1  UNL     1      21.598   1.419  48.513  1.00  0.00     0.209 C 
ENDBRANCH   1  23
TORSDOF 4
ENDMDL
MODEL 2
REMARK VINA RESULT:      -7.3      2.467      3.963
REMARK  4 active torsions:
REMARK  status: ('A' for Active; 'I' for Inactive)
REMARK    1  A    between atoms: O1_2  and  C2_3 
REMARK    2  A    between atoms: C7_10  and  N3_11 
REMARK    3  A    between atoms: N3_11  and  C8_12 
REMARK    4  A    between atoms: C16_20  and  O2_21 
ROOT
HETATM    1  C2  UNL     1      22.109   1.139  51.966  1.00  0.00     0.076 C 
HETATM    2  C3  UNL     1      22.072   1.738  50.794  1.00  0.00     0.038 C 
HETATM    3  C4  UNL     1      23.124   2.438  50.078  1.00  0.00     0.327 C 
HETATM    4  N1  UNL     1      23.818   3.088  49.253  1.00  0.00    -0.413 NA
HETATM    5  C5  UNL     1      25.203   3.393  49.462  1.00  0.00     0.090 C 
HETATM    6  C6  UNL     1      25.780   3.579  50.629  1.00  0.00     0.105 C 
HETATM    7  N2  UNL     1      25.085   3.497  51.859  1.00  0.00    -0.351 N 
HETATM    8  C7  UNL     1      24.954   2.391  52.737  1.00  0.00     0.104 C 
HETATM    9  C15 UNL     1      24.173   1.437  53.186  1.00  0.00     0.060 C 
HETATM   10  C16 UNL     1      22.878   0.761  53.162  1.00  0.00     0.203 C 
HETATM   11  H8  UNL     1      24.715   4.460  51.923  1.00  0.00     0.166 HD
ENDROOT
BRANCH   8  12
HETATM   12  N3  UNL     1      26.280   2.588  53.210  1.00  0.00    -0.343 N 
HETATM   13  H9  UNL     1      26.782   3.452  53.545  1.00  0.00     0.167 HD
BRANCH  12  14
HETATM   14  C8  UNL     1      27.105   1.419  53.258  1.00  0.00     0.034 A 
HETATM   15  C9  UNL     1      28.396   1.507  53.754  1.00  0.00     0.029 A 
HETATM   16  C10 UNL     1      29.272   0.436  53.842  1.00  0.00     0.003 A 
HETATM   17  C11 UNL     1      28.846  -0.804  53.411  1.00  0.00     0.007 A 
HETATM   18  C12 UNL     1      27.571  -0.927  52.913  1.00  0.00    -0.060 A 
HETATM   19  C13 UNL     1      27.080  -2.253  52.440  1.00  0.00     0.048 C 
HETATM   20  C14 UNL     1      26.724   0.158  52.839  1.00  0.00     0.036 A 
ENDBRANCH  12  14
ENDBRANCH   8  12
BRANCH  10  21
HETATM   21  O2  UNL     1      22.989  -0.633  53.249  1.00  0.00    -0.380 OA
HETATM   22  C17 UNL     1      22.925  -1.036  54.571  1.00  0.00     0.202 C 
ENDBRANCH  10  21
BRANCH   1  23
HETATM   23  O1  UNL     1      20.865   0.584  52.277  1.00  0.00    -0.357 OA
HETATM   24  C1  UNL     1      19.896   0.395  51.281  1.00  0.00     0.209 C 
ENDBRANCH   1  23
TORSDOF 4
ENDMDL
MODEL 3
REMARK VINA RESULT:      -7.1      2.786      6.756
REMARK  4 active torsions:
REMARK  status: ('A' for Active; 'I' for Inactive)
REMARK    1  A    between atoms: O1_2  and  C2_3 
REMARK    2  A    between atoms: C7_10  and  N3_11 
REMARK    3  A    between atoms: N3_11  and  C8_12 
REMARK    4  A    between atoms: C16_20  and  O2_21 
ROOT
HETATM    1  C2  UNL     1      26.407  -0.595  52.929  1.00  0.00     0.076 C 
HETATM    2  C3  UNL     1      27.101   0.160  52.102  1.00  0.00     0.038 C 
HETATM    3  C4  UNL     1      26.764   1.448  51.520  1.00  0.00     0.327 C 
HETATM    4  N1  UNL     1      26.741   2.533  50.884  1.00  0.00    -0.413 NA
HETATM    5  C5  UNL     1      25.648   3.457  50.949  1.00  0.00     0.090 C 
HETATM    6  C6  UNL     1      24.388   3.142  51.149  1.00  0.00     0.105 C 
HETATM    7  N2  UNL     1      23.941   1.811  51.333  1.00  0.00    -0.351 N 
HETATM    8  C7  UNL     1      23.721   1.104  52.541  1.00  0.00     0.104 C 
HETATM    9  C15 UNL     1      24.164   0.187  53.368  1.00  0.00     0.060 C 
HETATM   10  C16 UNL     1      25.182  -0.803  53.715  1.00  0.00     0.203 C 
HETATM   11  H8  UNL     1      23.825   1.523  50.347  1.00  0.00     0.166 HD
ENDROOT
BRANCH   8  12
HETATM   12  N3  UNL     1      22.504   1.808  52.753  1.00  0.00    -0.343 N 
HETATM   13  H9  UNL     1      22.311   2.821  52.969  1.00  0.00     0.167 HD
BRANCH  12  14
HETATM   14  C8  UNL     1      21.308   1.029  52.656  1.00  0.00     0.034 A 
HETATM   15  C9  UNL     1      20.984   0.134  53.664  1.00  0.00     0.029 A 
HETATM   16  C10 UNL     1      19.850  -0.664  53.663  1.00  0.00     0.003 A 
HETATM   17  C11 UNL     1      18.979  -0.574  52.598  1.00  0.00     0.007 A 
HETATM   18  C12 UNL     1      19.269   0.304  51.580  1.00  0.00    -0.060 A 
HETATM   19  C13 UNL     1      18.346   0.425  50.416  1.00  0.00     0.048 C 
HETATM   20  C14 UNL     1      20.404   1.084  51.611  1.00  0.00     0.036 A 
ENDBRANCH  12  14
ENDBRANCH   8  12
BRANCH  10  21
HETATM   21  O2  UNL     1      25.479  -0.823  55.084  1.00  0.00    -0.380 OA
HETATM   22  C17 UNL     1      24.371  -1.227  55.808  1.00  0.00     0.202 C 
ENDBRANCH  10  21
BRANCH   1  23
HETATM   23  O1  UNL     1      27.112  -1.760  53.243  1.00  0.00    -0.357 OA
HETATM   24  C1  UNL     1      28.510  -1.803  53.137  1.00  0.00     0.209 C 
ENDBRANCH   1  23
TORSDOF 4
ENDMDL
MODEL 4
REMARK VINA RESULT:      -7.0      2.569      4.065
REMARK  4 active torsions:
REMARK  status: ('A' for Active; 'I' for Inactive)
REMARK    1  A    between atoms: O1_2  and  C2_3 
REMARK    2  A    between atoms: C7_10  and  N3_11 
REMARK    3  A    between atoms: N3_11  and  C8_12 
REMARK    4  A    between atoms: C16_20  and  O2_21 
ROOT
HETATM    1  C2  UNL     1      20.320   0.005  52.840  1.00  0.00     0.076 C 
HETATM    2  C3  UNL     1      19.835   0.226  51.636  1.00  0.00     0.038 C 
HETATM    3  C4  UNL     1      20.481   0.800  50.468  1.00  0.00     0.327 C 
HETATM    4  N1  UNL     1      20.771   1.254  49.331  1.00  0.00    -0.413 NA
HETATM    5  C5  UNL     1      22.069   1.762  48.996  1.00  0.00     0.090 C 
HETATM    6  C6  UNL     1      22.902   2.346  49.829  1.00  0.00     0.105 C 
HETATM    7  N2  UNL     1      22.613   2.549  51.199  1.00  0.00    -0.351 N 
HETATM    8  C7  UNL     1      22.958   1.742  52.313  1.00  0.00     0.104 C 
HETATM    9  C15 UNL     1      22.542   0.880  53.209  1.00  0.00     0.060 C 
HETATM   10  C16 UNL     1      21.454   0.083  53.774  1.00  0.00     0.203 C 
HETATM   11  H8  UNL     1      22.093   3.441  51.143  1.00  0.00     0.166 HD
ENDROOT
BRANCH   8  12
HETATM   12  N3  UNL     1      24.297   2.218  52.265  1.00  0.00    -0.343 N 
HETATM   13  H9  UNL     1      24.707   3.117  51.900  1.00  0.00     0.167 HD
BRANCH  12  14
HETATM   14  C8  UNL     1      25.290   1.342  52.809  1.00  0.00     0.034 A 
HETATM   15  C9  UNL     1      26.009   1.728  53.929  1.00  0.00     0.029 A 
HETATM   16  C10 UNL     1      26.990   0.953  54.530  1.00  0.00     0.003 A 
HETATM   17  C11 UNL     1      27.279  -0.283  53.990  1.00  0.00     0.007 A 
HETATM   18  C12 UNL     1      26.584  -0.697  52.879  1.00  0.00    -0.060 A 
HETATM   19  C13 UNL     1      26.873  -2.028  52.273  1.00  0.00     0.048 C 
HETATM   20  C14 UNL     1      25.615   0.097  52.305  1.00  0.00     0.036 A 
ENDBRANCH  12  14
ENDBRANCH   8  12
BRANCH  10  21
HETATM   21  O2  UNL     1      21.860  -1.202  54.156  1.00  0.00    -0.380 OA
HETATM   22  C17 UNL     1      23.017  -1.132  54.911  1.00  0.00     0.202 C 
ENDBRANCH  10  21
BRANCH   1  23
HETATM   23  O1  UNL     1      19.351  -0.571  53.665  1.00  0.00    -0.357 OA
HETATM   24  C1  UNL     1      18.192  -1.143  53.118  1.00  0.00     0.209 C 
ENDBRANCH   1  23
TORSDOF 4
ENDMDL
MODEL 5
REMARK VINA RESULT:      -6.9      2.498      6.078
REMARK  4 active torsions:
REMARK  status: ('A' for Active; 'I' for Inactive)
REMARK    1  A    between atoms: O1_2  and  C2_3 
REMARK    2  A    between atoms: C7_10  and  N3_11 
REMARK    3  A    between atoms: N3_11  and  C8_12 
REMARK    4  A    between atoms: C16_20  and  O2_21 
ROOT
HETATM    1  C2  UNL     1      26.797   1.676  52.436  1.00  0.00     0.076 C 
HETATM    2  C3  UNL     1      26.517   0.599  53.140  1.00  0.00     0.038 C 
HETATM    3  C4  UNL     1      25.241  -0.065  53.349  1.00  0.00     0.327 C 
HETATM    4  N1  UNL     1      24.302  -0.826  53.699  1.00  0.00    -0.413 NA
HETATM    5  C5  UNL     1      22.945  -0.643  53.276  1.00  0.00     0.090 C 
HETATM    6  C6  UNL     1      22.377   0.510  52.998  1.00  0.00     0.105 C 
HETATM    7  N2  UNL     1      23.055   1.749  53.083  1.00  0.00    -0.351 N 
HETATM    8  C7  UNL     1      23.718   2.475  52.061  1.00  0.00     0.104 C 
HETATM    9  C15 UNL     1      24.870   2.827  51.541  1.00  0.00     0.060 C 
HETATM   10  C16 UNL     1      26.331   2.772  51.574  1.00  0.00     0.203 C 
HETATM   11  H8  UNL     1      22.921   1.960  54.086  1.00  0.00     0.166 HD
ENDROOT
BRANCH   8  12
HETATM   12  N3  UNL     1      22.471   2.907  51.535  1.00  0.00    -0.343 N 
HETATM   13  H9  UNL     1      21.586   3.230  52.007  1.00  0.00     0.167 HD
BRANCH  12  14
HETATM   14  C8  UNL     1      22.369   2.924  50.107  1.00  0.00     0.034 A 
HETATM   15  C9  UNL     1      22.151   1.742  49.418  1.00  0.00     0.029 A 
HETATM   16  C10 UNL     1      22.038   1.654  48.039  1.00  0.00     0.003 A 
HETATM   17  C11 UNL     1      22.148   2.808  47.291  1.00  0.00     0.007 A 
HETATM   18  C12 UNL     1      22.364   3.999  47.943  1.00  0.00    -0.060 A 
HETATM   19  C13 UNL     1      22.486   5.263  47.162  1.00  0.00     0.048 C 
HETATM   20  C14 UNL     1      22.472   4.053  49.315  1.00  0.00     0.036 A 
ENDBRANCH  12  14
ENDBRANCH   8  12
BRANCH  10  21
HETATM   21  O2  UNL     1      26.901   2.665  50.298  1.00  0.00    -0.380 OA
HETATM   22  C17 UNL     1      26.402   3.652  49.467  1.00  0.00     0.202 C 
ENDBRANCH  10  21
BRANCH   1  23
HETATM   23  O1  UNL     1      28.162   1.968  52.503  1.00  0.00    -0.357 OA
HETATM   24  C1  UNL     1      28.742   2.419  53.698  1.00  0.00     0.209 C 
ENDBRANCH   1  23
TORSDOF 4
ENDMDL
MODEL 6
REMARK VINA RESULT:      -6.8      2.824      4.160
REMARK  4 active torsions:
REMARK  status: ('A' for Active; 'I' for Inactive)
REMARK    1  A    between atoms: O1_2  and  C2_3 
REMARK    2  A    between atoms: C7_10  and  N3_11 
REMARK    3  A    between atoms: N3_11  and  C8_12 
REMARK    4  A    between atoms: C16_20  and  O2_21 
ROOT
HETATM    1  C2  UNL     1      20.246   0.354  52.965  1.00  0.00     0.076 C 
HETATM    2  C3  UNL     1      20.336  -0.713  53.732  1.00  0.00     0.038 C 
HETATM    3  C4  UNL     1      21.458  -1.195  54.520  1.00  0.00     0.327 C 
HETATM    4  N1  UNL     1      22.238  -1.835  55.272  1.00  0.00    -0.413 NA
HETATM    5  C5  UNL     1      23.579  -1.414  55.551  1.00  0.00     0.090 C 
HETATM    6  C6  UNL     1      24.356  -0.737  54.734  1.00  0.00     0.105 C 
HETATM    7  N2  UNL     1      23.952  -0.326  53.442  1.00  0.00    -0.351 N 
HETATM    8  C7  UNL     1      23.398   0.914  53.032  1.00  0.00     0.104 C 
HETATM    9  C15 UNL     1      22.317   1.561  52.669  1.00  0.00     0.060 C 
HETATM   10  C16 UNL     1      20.880   1.554  52.399  1.00  0.00     0.203 C 
HETATM   11  H8  UNL     1      24.180  -1.178  52.903  1.00  0.00     0.166 HD
ENDROOT
BRANCH   8  12
HETATM   12  N3  UNL     1      24.678   1.528  53.102  1.00  0.00    -0.343 N 
HETATM   13  H9  UNL     1      25.454   1.450  53.811  1.00  0.00     0.167 HD
BRANCH  12  14
HETATM   14  C8  UNL     1      25.003   2.415  52.028  1.00  0.00     0.034 A 
HETATM   15  C9  UNL     1      26.078   2.130  51.201  1.00  0.00     0.029 A 
HETATM   16  C10 UNL     1      26.474   2.924  50.135  1.00  0.00     0.003 A 
HETATM   17  C11 UNL     1      25.762   4.076  49.868  1.00  0.00     0.007 A 
HETATM   18  C12 UNL     1      24.689   4.389  50.668  1.00  0.00    -0.060 A 
HETATM   19  C13 UNL     1      23.899   5.625  50.405  1.00  0.00     0.048 C 
HETATM   20  C14 UNL     1      24.321   3.578  51.720  1.00  0.00     0.036 A 
ENDBRANCH  12  14
ENDBRANCH   8  12
BRANCH  10  21
HETATM   21  O2  UNL     1      20.233   2.709  52.856  1.00  0.00    -0.380 OA
HETATM   22  C17 UNL     1      20.546   3.785  52.045  1.00  0.00     0.202 C 
ENDBRANCH  10  21
BRANCH   1  23
HETATM   23  O1  UNL     1      18.975   0.443  52.391  1.00  0.00    -0.357 OA
HETATM   24  C1  UNL     1      18.147  -0.686  52.304  1.00  0.00     0.209 C 
ENDBRANCH   1  23
TORSDOF 4
ENDMDL
MODEL 7
REMARK VINA RESULT:      -6.7      2.207      5.466
REMARK  4 active torsions:
REMARK  status: ('A' for Active; 'I' for Inactive)
REMARK    1  A    between atoms: O1_2  and  C2_3 
REMARK    2  A    between atoms: C7_10  and  N3_11 
REMARK    3  A    between atoms: N3_11  and  C8_12 
REMARK    4  A    between atoms: C16_20  and  O2_21 
ROOT
HETATM    1  C2  UNL     1      24.965  -0.377  54.158  1.00  0.00     0.076 C 
HETATM    2  C3  UNL     1      24.238  -1.226  54.855  1.00  0.00     0.038 C 
HETATM    3  C4  UNL     1      22.806  -1.467  54.817  1.00  0.00     0.327 C 
HETATM    4  N1  UNL     1      21.631  -1.877  54.999  1.00  0.00    -0.413 NA
HETATM    5  C5  UNL     1      20.504  -1.378  54.268  1.00  0.00     0.090 C 
HETATM    6  C6  UNL     1      20.380  -0.160  53.787  1.00  0.00     0.105 C 
HETATM    7  N2  UNL     1      21.374   0.836  53.935  1.00  0.00    -0.351 N 
HETATM    8  C7  UNL     1      22.412   1.199  53.040  1.00  0.00     0.104 C 
HETATM    9  C15 UNL     1      23.694   1.138  52.770  1.00  0.00     0.060 C 
HETATM   10  C16 UNL     1      25.033   0.678  53.136  1.00  0.00     0.203 C 
HETATM   11  H8  UNL     1      21.117   1.210  54.864  1.00  0.00     0.166 HD
ENDROOT
BRANCH   8  12
HETATM   12  N3  UNL     1      21.483   1.891  52.215  1.00  0.00    -0.343 N 
HETATM   13  H9  UNL     1      20.528   2.286  52.417  1.00  0.00     0.167 HD
BRANCH  12  14
HETATM   14  C8  UNL     1      21.894   2.109  50.862  1.00  0.00     0.034 A 
HETATM   15  C9  UNL     1      21.516   1.213  49.874  1.00  0.00     0.029 A 
HETATM   16  C10 UNL     1      21.862   1.336  48.537  1.00  0.00     0.003 A 
HETATM   17  C11 UNL     1      22.632   2.413  48.149  1.00  0.00     0.007 A 
HETATM   18  C12 UNL     1      23.023   3.322  49.103  1.00  0.00    -0.060 A 
HETATM   19  C13 UNL     1      23.854   4.498  48.715  1.00  0.00     0.048 C 
HETATM   20  C14 UNL     1      22.663   3.172  50.424  1.00  0.00     0.036 A 
ENDBRANCH  12  14
ENDBRANCH   8  12
BRANCH  10  21
HETATM   21  O2  UNL     1      25.780   0.242  52.033  1.00  0.00    -0.380 OA
HETATM   22  C17 UNL     1      26.449   1.307  51.459  1.00  0.00     0.202 C 
ENDBRANCH  10  21
BRANCH   1  23
HETATM   23  O1  UNL     1      26.314  -0.477  54.510  1.00  0.00    -0.357 OA
HETATM   24  C1  UNL     1      26.993   0.620  55.062  1.00  0.00     0.209 C 
ENDBRANCH   1  23
TORSDOF 4
ENDMDL
MODEL 8
REMARK VINA RESULT:      -6.5      2.692      5.251
REMARK  4 active torsions:
REMARK  status: ('A' for Active; 'I' for Inactive)
REMARK    1  A    between atoms: O1_2  and  C2_3 
REMARK    2  A    between atoms: C7_10  and  N3_11 
REMARK    3  A    between atoms: N3_11  and  C8_12 
REMARK    4  A    between atoms: C16_20  and  O2_21 
ROOT
HETATM    1  C2  UNL     1      24.045  -0.582  54.149  1.00  0.00     0.076 C 
HETATM    2  C3  UNL     1      22.846  -0.975  54.527  1.00  0.00     0.038 C 
HETATM    3  C4  UNL     1      21.553  -0.721  53.915  1.00  0.00     0.327 C 
HETATM    4  N1  UNL     1      20.331  -0.663  53.618  1.00  0.00    -0.413 NA
HETATM    5  C5  UNL     1      19.837   0.028  52.464  1.00  0.00     0.090 C 
HETATM    6  C6  UNL     1      20.382   1.090  51.914  1.00  0.00     0.105 C 
HETATM    7  N2  UNL     1      21.560   1.701  52.407  1.00  0.00    -0.351 N 
HETATM    8  C7  UNL     1      22.904   1.502  52.001  1.00  0.00     0.104 C 
HETATM    9  C15 UNL     1      24.062   0.957  52.287  1.00  0.00     0.060 C 
HETATM   10  C16 UNL     1      24.884   0.156  53.194  1.00  0.00     0.203 C 
HETATM   11  H8  UNL     1      21.154   2.320  53.128  1.00  0.00     0.166 HD
ENDROOT
BRANCH   8  12
HETATM   12  N3  UNL     1      22.686   2.282  50.834  1.00  0.00    -0.343 N 
HETATM   13  H9  UNL     1      21.966   2.210  50.068  1.00  0.00     0.167 HD
BRANCH  12  14
HETATM   14  C8  UNL     1      23.589   3.376  50.638  1.00  0.00     0.034 A 
HETATM   15  C9  UNL     1      23.262   4.633  51.119  1.00  0.00     0.029 A 
HETATM   16  C10 UNL     1      24.067   5.754  50.980  1.00  0.00     0.003 A 
HETATM   17  C11 UNL     1      25.273   5.625  50.323  1.00  0.00     0.007 A 
HETATM   18  C12 UNL     1      25.629   4.391  49.833  1.00  0.00    -0.060 A 
HETATM   19  C13 UNL     1      26.926   4.219  49.119  1.00  0.00     0.048 C 
HETATM   20  C14 UNL     1      24.807   3.296  49.988  1.00  0.00     0.036 A 
ENDBRANCH  12  14
ENDBRANCH   8  12
BRANCH  10  21
HETATM   21  O2  UNL     1      25.744  -0.721  52.520  1.00  0.00    -0.380 OA
HETATM   22  C17 UNL     1      26.777  -0.017  51.928  1.00  0.00     0.202 C 
ENDBRANCH  10  21
BRANCH   1  23
HETATM   23  O1  UNL     1      25.020  -1.057  55.029  1.00  0.00    -0.357 OA
HETATM   24  C1  UNL     1      24.853  -0.938  56.417  1.00  0.00     0.209 C 
ENDBRANCH   1  23
TORSDOF 4
ENDMDL
MODEL 9
REMARK VINA RESULT:      -6.4      3.585      5.188
REMARK  4 active torsions:
REMARK  status: ('A' for Active; 'I' for Inactive)
REMARK    1  A    between atoms: O1_2  and  C2_3 
REMARK    2  A    between atoms: C7_10  and  N3_11 
REMARK    3  A    between atoms: N3_11  and  C8_12 
REMARK    4  A    between atoms: C16_20  and  O2_21 
ROOT
HETATM    1  C2  UNL     1      22.292   4.346  50.693  1.00  0.00     0.076 C 
HETATM    2  C3  UNL     1      22.576   5.485  50.095  1.00  0.00     0.038 C 
HETATM    3  C4  UNL     1      23.799   5.905  49.434  1.00  0.00     0.327 C 
HETATM    4  N1  UNL     1      24.705   6.523  48.817  1.00  0.00    -0.413 NA
HETATM    5  C5  UNL     1      25.991   5.956  48.537  1.00  0.00     0.090 C 
HETATM    6  C6  UNL     1      26.616   5.067  49.278  1.00  0.00     0.105 C 
HETATM    7  N2  UNL     1      26.079   4.545  50.479  1.00  0.00    -0.351 N 
HETATM    8  C7  UNL     1      25.337   3.353  50.679  1.00  0.00     0.104 C 
HETATM    9  C15 UNL     1      24.157   2.824  50.898  1.00  0.00     0.060 C 
HETATM   10  C16 UNL     1      22.720   3.001  51.105  1.00  0.00     0.203 C 
HETATM   11  H8  UNL     1      26.386   5.272  51.146  1.00  0.00     0.166 HD
ENDROOT
BRANCH   8  12
HETATM   12  N3  UNL     1      26.522   2.576  50.575  1.00  0.00    -0.343 N 
HETATM   13  H9  UNL     1      27.270   2.537  49.834  1.00  0.00     0.167 HD
BRANCH  12  14
HETATM   14  C8  UNL     1      26.778   1.680  51.661  1.00  0.00     0.034 A 
HETATM   15  C9  UNL     1      27.174   2.182  52.891  1.00  0.00     0.029 A 
HETATM   16  C10 UNL     1      27.445   1.399  54.002  1.00  0.00     0.003 A 
HETATM   17  C11 UNL     1      27.317   0.029  53.893  1.00  0.00     0.007 A 
HETATM   18  C12 UNL     1      26.926  -0.503  52.688  1.00  0.00    -0.060 A 
HETATM   19  C13 UNL     1      26.778  -1.979  52.538  1.00  0.00     0.048 C 
HETATM   20  C14 UNL     1      26.664   0.303  51.602  1.00  0.00     0.036 A 
ENDBRANCH  12  14
ENDBRANCH   8  12
BRANCH  10  21
HETATM   21  O2  UNL     1      21.951   2.025  50.457  1.00  0.00    -0.380 OA
HETATM   22  C17 UNL     1      22.299   1.953  49.120  1.00  0.00     0.202 C 
ENDBRANCH  10  21
BRANCH   1  23
HETATM   23  O1  UNL     1      20.988   4.363  51.194  1.00  0.00    -0.357 OA
HETATM   24  C1  UNL     1      19.954   4.985  50.479  1.00  0.00     0.209 C 
ENDBRANCH   1  23
TORSDOF 4
ENDMDL
