MODEL 1
REMARK VINA RESULT:      -8.5      0.000      0.000
REMARK  3 active torsions:
REMARK  status: ('A' for Active; 'I' for Inactive)
REMARK    1  A    between atoms: C7_7  and  N1_8 
REMARK    2  A    between atoms: N1_8  and  C8_9 
REMARK    3  A    between atoms: C16_22  and  C17_23 
ROOT
HETATM    1  C1  UNL     1      22.662  -1.143  54.845  1.00  0.00     0.018 C 
HETATM    2  C2  UNL     1      23.522  -0.621  54.185  1.00  0.00    -0.078 C 
HETATM    3  C3  UNL     1      24.571  -0.010  53.396  1.00  0.00     0.019 A 
HETATM    4  C4  UNL     1      25.594  -0.877  53.020  1.00  0.00     0.021 A 
HETATM    5  C5  UNL     1      26.602  -0.284  52.254  1.00  0.00     0.004 A 
HETATM    6  C6  UNL     1      26.609   1.051  51.886  1.00  0.00     0.029 A 
HETATM    7  C7  UNL     1      25.573   1.836  52.293  1.00  0.00     0.035 A 
HETATM    8  C20 UNL     1      24.541   1.321  53.050  1.00  0.00     0.050 A 
ENDROOT
BRANCH   7   9
HETATM    9  N1  UNL     1      25.441   3.244  51.989  1.00  0.00    -0.340 N 
HETATM   10  H5  UNL     1      26.011   3.964  52.485  1.00  0.00     0.167 HD
BRANCH   9  11
HETATM   11  C8  UNL     1      24.528   3.744  50.985  1.00  0.00     0.140 A 
HETATM   12  N2  UNL     1      23.303   3.506  51.280  1.00  0.00    -0.224 NA
HETATM   13  C9  UNL     1      22.279   3.923  50.426  1.00  0.00     0.230 A 
HETATM   14  N3  UNL     1      22.613   4.535  49.388  1.00  0.00    -0.268 NA
HETATM   15  C10 UNL     1      23.892   4.911  48.883  1.00  0.00     0.179 A 
HETATM   16  C11 UNL     1      24.959   4.405  49.731  1.00  0.00     0.041 A 
HETATM   17  C16 UNL     1      23.934   6.395  48.623  1.00  0.00    -0.025 C 
HETATM   18  C12 UNL     1      26.292   4.408  49.536  1.00  0.00     0.180 C 
HETATM   19  O1  UNL     1      27.225   4.847  48.610  1.00  0.00    -0.254 OA
HETATM   20  N4  UNL     1      28.391   5.382  49.006  1.00  0.00    -0.295 N 
HETATM   21  C13 UNL     1      28.734   6.595  48.261  1.00  0.00     0.173 C 
HETATM   22  H9  UNL     1      28.585   5.433  50.007  1.00  0.00     0.188 HD
HETATM   23  C14 UNL     1      27.481   7.481  48.461  1.00  0.00     0.196 C 
HETATM   24  O2  UNL     1      26.453   6.723  47.889  1.00  0.00    -0.361 OA
HETATM   25  C15 UNL     1      25.151   6.604  48.259  1.00  0.00     0.140 C 
BRANCH  17  26
HETATM   26  C17 UNL     1      22.706   7.153  48.819  1.00  0.00     0.011 C 
HETATM   27  C18 UNL     1      22.672   8.115  49.946  1.00  0.00     0.014 C 
HETATM   28  C19 UNL     1      22.276   7.897  47.555  1.00  0.00     0.014 C 
ENDBRANCH  17  26
ENDBRANCH   9  11
ENDBRANCH   7   9
TORSDOF 3
ENDMDL
MODEL 2
REMARK VINA RESULT:      -8.4      3.114      5.068
REMARK  3 active torsions:
REMARK  status: ('A' for Active; 'I' for Inactive)
REMARK    1  A    between atoms: C7_7  and  N1_8 
REMARK    2  A    between atoms: N1_8  and  C8_9 
REMARK    3  A    between atoms: C16_22  and  C17_23 
ROOT
HETATM    1  C1  UNL     1      16.952  -0.127  50.553  1.00  0.00     0.018 C 
HETATM    2  C2  UNL     1      17.937   0.059  51.220  1.00  0.00    -0.078 C 
HETATM    3  C3  UNL     1      19.113   0.265  52.038  1.00  0.00     0.019 A 
HETATM    4  C4  UNL     1      19.365  -0.748  52.959  1.00  0.00     0.021 A 
HETATM    5  C5  UNL     1      20.505  -0.546  53.743  1.00  0.00     0.004 A 
HETATM    6  C6  UNL     1      21.332   0.559  53.635  1.00  0.00     0.029 A 
HETATM    7  C7  UNL     1      21.019   1.509  52.709  1.00  0.00     0.035 A 
HETATM    8  C20 UNL     1      19.911   1.378  51.899  1.00  0.00     0.050 A 
ENDROOT
BRANCH   7   9
HETATM    9  N1  UNL     1      21.785   2.715  52.479  1.00  0.00    -0.340 N 
HETATM   10  H5  UNL     1      21.815   3.483  53.185  1.00  0.00     0.167 HD
BRANCH   9  11
HETATM   11  C8  UNL     1      22.554   2.934  51.274  1.00  0.00     0.140 A 
HETATM   12  N2  UNL     1      21.903   3.606  50.397  1.00  0.00    -0.224 NA
HETATM   13  C9  UNL     1      22.493   3.919  49.170  1.00  0.00     0.230 A 
HETATM   14  N3  UNL     1      23.664   3.525  48.981  1.00  0.00    -0.268 NA
HETATM   15  C10 UNL     1      24.559   2.789  49.811  1.00  0.00     0.179 A 
HETATM   16  C11 UNL     1      23.916   2.395  51.053  1.00  0.00     0.041 A 
HETATM   17  C16 UNL     1      25.856   3.540  49.974  1.00  0.00    -0.025 C 
HETATM   18  C12 UNL     1      24.353   1.576  52.030  1.00  0.00     0.180 C 
HETATM   19  O1  UNL     1      25.467   0.821  52.358  1.00  0.00    -0.254 OA
HETATM   20  N4  UNL     1      25.913   0.761  53.623  1.00  0.00    -0.295 N 
HETATM   21  C13 UNL     1      27.368   0.905  53.714  1.00  0.00     0.173 C 
HETATM   22  H9  UNL     1      25.394   1.266  54.344  1.00  0.00     0.188 HD
HETATM   23  C14 UNL     1      27.623   2.238  52.969  1.00  0.00     0.196 C 
HETATM   24  O2  UNL     1      27.147   1.983  51.678  1.00  0.00    -0.361 OA
HETATM   25  C15 UNL     1      26.524   2.814  50.802  1.00  0.00     0.140 C 
BRANCH  17  26
HETATM   26  C17 UNL     1      26.022   4.776  49.223  1.00  0.00     0.011 C 
HETATM   27  C18 UNL     1      25.673   6.043  49.910  1.00  0.00     0.014 C 
HETATM   28  C19 UNL     1      27.434   4.925  48.657  1.00  0.00     0.014 C 
ENDBRANCH  17  26
ENDBRANCH   9  11
ENDBRANCH   7   9
TORSDOF 3
ENDMDL
MODEL 3
REMARK VINA RESULT:      -8.3      2.579      3.669
REMARK  3 active torsions:
REMARK  status: ('A' for Active; 'I' for Inactive)
REMARK    1  A    between atoms: C7_7  and  N1_8 
REMARK    2  A    between atoms: N1_8  and  C8_9 
REMARK    3  A    between atoms: C16_22  and  C17_23 
ROOT
HETATM    1  C1  UNL     1      26.630  -1.052  53.074  1.00  0.00     0.018 C 
HETATM    2  C2  UNL     1      25.489  -0.703  53.228  1.00  0.00    -0.078 C 
HETATM    3  C3  UNL     1      24.111  -0.304  53.426  1.00  0.00     0.019 A 
HETATM    4  C4  UNL     1      23.448  -0.991  54.440  1.00  0.00     0.021 A 
HETATM    5  C5  UNL     1      22.119  -0.598  54.630  1.00  0.00     0.004 A 
HETATM    6  C6  UNL     1      21.490   0.387  53.888  1.00  0.00     0.029 A 
HETATM    7  C7  UNL     1      22.206   1.013  52.912  1.00  0.00     0.035 A 
HETATM    8  C20 UNL     1      23.522   0.680  52.667  1.00  0.00     0.050 A 
ENDROOT
BRANCH   7   9
HETATM    9  N1  UNL     1      21.687   2.058  52.056  1.00  0.00    -0.340 N 
HETATM   10  H5  UNL     1      21.083   2.821  52.433  1.00  0.00     0.167 HD
BRANCH   9  11
HETATM   11  C8  UNL     1      21.970   2.119  50.639  1.00  0.00     0.140 A 
HETATM   12  N2  UNL     1      21.451   1.139  49.996  1.00  0.00    -0.224 NA
HETATM   13  C9  UNL     1      21.616   1.038  48.613  1.00  0.00     0.230 A 
HETATM   14  N3  UNL     1      22.275   1.937  48.048  1.00  0.00    -0.268 NA
HETATM   15  C10 UNL     1      22.917   3.102  48.560  1.00  0.00     0.179 A 
HETATM   16  C11 UNL     1      22.813   3.161  50.009  1.00  0.00     0.041 A 
HETATM   17  C16 UNL     1      22.428   4.329  47.834  1.00  0.00    -0.025 C 
HETATM   18  C12 UNL     1      23.400   4.003  50.882  1.00  0.00     0.180 C 
HETATM   19  O1  UNL     1      24.244   5.102  50.890  1.00  0.00    -0.254 OA
HETATM   20  N4  UNL     1      24.039   6.124  51.736  1.00  0.00    -0.295 N 
HETATM   21  C13 UNL     1      24.173   7.428  51.084  1.00  0.00     0.173 C 
HETATM   22  H9  UNL     1      23.261   6.059  52.394  1.00  0.00     0.188 HD
HETATM   23  C14 UNL     1      23.179   7.320  49.902  1.00  0.00     0.196 C 
HETATM   24  O2  UNL     1      23.680   6.248  49.156  1.00  0.00    -0.361 OA
HETATM   25  C15 UNL     1      23.016   5.297  48.448  1.00  0.00     0.140 C 
BRANCH  17  26
HETATM   26  C17 UNL     1      21.508   4.138  46.723  1.00  0.00     0.011 C 
HETATM   27  C18 UNL     1      20.103   4.567  46.919  1.00  0.00     0.014 C 
HETATM   28  C19 UNL     1      22.017   4.779  45.432  1.00  0.00     0.014 C 
ENDBRANCH  17  26
ENDBRANCH   9  11
ENDBRANCH   7   9
TORSDOF 3
ENDMDL
MODEL 4
REMARK VINA RESULT:      -8.3      2.887      6.626
REMARK  3 active torsions:
REMARK  status: ('A' for Active; 'I' for Inactive)
REMARK    1  A    between atoms: C7_7  and  N1_8 
REMARK    2  A    between atoms: N1_8  and  C8_9 
REMARK    3  A    between atoms: C16_22  and  C17_23 
ROOT
HETATM    1  C1  UNL     1      28.403   5.298  48.265  1.00  0.00     0.018 C 
HETATM    2  C2  UNL     1      27.418   5.896  48.610  1.00  0.00    -0.078 C 
HETATM    3  C3  UNL     1      26.240   6.636  49.011  1.00  0.00     0.019 A 
HETATM    4  C4  UNL     1      25.938   7.730  48.204  1.00  0.00     0.021 A 
HETATM    5  C5  UNL     1      24.796   8.437  48.594  1.00  0.00     0.004 A 
HETATM    6  C6  UNL     1      24.013   8.102  49.685  1.00  0.00     0.029 A 
HETATM    7  C7  UNL     1      24.375   7.017  50.427  1.00  0.00     0.035 A 
HETATM    8  C20 UNL     1      25.487   6.270  50.103  1.00  0.00     0.050 A 
ENDROOT
BRANCH   7   9
HETATM    9  N1  UNL     1      23.659   6.545  51.592  1.00  0.00    -0.340 N 
HETATM   10  H5  UNL     1      23.862   6.920  52.545  1.00  0.00     0.167 HD
BRANCH   9  11
HETATM   11  C8  UNL     1      22.624   5.538  51.518  1.00  0.00     0.140 A 
HETATM   12  N2  UNL     1      21.567   5.969  50.935  1.00  0.00    -0.224 NA
HETATM   13  C9  UNL     1      20.462   5.129  50.767  1.00  0.00     0.230 A 
HETATM   14  N3  UNL     1      20.563   3.960  51.199  1.00  0.00    -0.268 NA
HETATM   15  C10 UNL     1      21.631   3.283  51.854  1.00  0.00     0.179 A 
HETATM   16  C11 UNL     1      22.747   4.182  52.100  1.00  0.00     0.041 A 
HETATM   17  C16 UNL     1      21.982   2.019  51.112  1.00  0.00    -0.025 C 
HETATM   18  C12 UNL     1      23.872   3.985  52.815  1.00  0.00     0.180 C 
HETATM   19  O1  UNL     1      24.501   2.992  53.548  1.00  0.00    -0.254 OA
HETATM   20  N4  UNL     1      25.830   2.817  53.477  1.00  0.00    -0.295 N 
HETATM   21  C13 UNL     1      26.205   1.407  53.348  1.00  0.00     0.173 C 
HETATM   22  H9  UNL     1      26.371   3.453  52.888  1.00  0.00     0.188 HD
HETATM   23  C14 UNL     1      25.396   0.953  52.109  1.00  0.00     0.196 C 
HETATM   24  O2  UNL     1      24.068   1.165  52.495  1.00  0.00    -0.361 OA
HETATM   25  C15 UNL     1      23.000   1.563  51.755  1.00  0.00     0.140 C 
BRANCH  17  26
HETATM   26  C17 UNL     1      21.159   1.655  49.968  1.00  0.00     0.011 C 
HETATM   27  C18 UNL     1      21.839   1.501  48.660  1.00  0.00     0.014 C 
HETATM   28  C19 UNL     1      20.342   0.389  50.221  1.00  0.00     0.014 C 
ENDBRANCH  17  26
ENDBRANCH   9  11
ENDBRANCH   7   9
TORSDOF 3
ENDMDL
MODEL 5
REMARK VINA RESULT:      -8.3      2.543      7.178
REMARK  3 active torsions:
REMARK  status: ('A' for Active; 'I' for Inactive)
REMARK    1  A    between atoms: C7_7  and  N1_8 
REMARK    2  A    between atoms: N1_8  and  C8_9 
REMARK    3  A    between atoms: C16_22  and  C17_23 
ROOT
HETATM    1  C1  UNL     1      29.400   6.996  47.120  1.00  0.00     0.018 C 
HETATM    2  C2  UNL     1      28.449   6.800  47.831  1.00  0.00    -0.078 C 
HETATM    3  C3  UNL     1      27.309   6.585  48.697  1.00  0.00     0.019 A 
HETATM    4  C4  UNL     1      26.840   7.731  49.334  1.00  0.00     0.021 A 
HETATM    5  C5  UNL     1      25.736   7.519  50.166  1.00  0.00     0.004 A 
HETATM    6  C6  UNL     1      25.139   6.285  50.359  1.00  0.00     0.029 A 
HETATM    7  C7  UNL     1      25.657   5.209  49.700  1.00  0.00     0.035 A 
HETATM    8  C20 UNL     1      26.744   5.342  48.862  1.00  0.00     0.050 A 
ENDROOT
BRANCH   7   9
HETATM    9  N1  UNL     1      25.144   3.861  49.801  1.00  0.00    -0.340 N 
HETATM   10  H5  UNL     1      25.475   3.103  49.165  1.00  0.00     0.167 HD
BRANCH   9  11
HETATM   11  C8  UNL     1      24.153   3.473  50.781  1.00  0.00     0.140 A 
HETATM   12  N2  UNL     1      22.985   3.917  50.494  1.00  0.00    -0.224 NA
HETATM   13  C9  UNL     1      21.899   3.636  51.327  1.00  0.00     0.230 A 
HETATM   14  N3  UNL     1      22.122   2.936  52.339  1.00  0.00    -0.268 NA
HETATM   15  C10 UNL     1      23.319   2.339  52.831  1.00  0.00     0.179 A 
HETATM   16  C11 UNL     1      24.461   2.702  52.007  1.00  0.00     0.041 A 
HETATM   17  C16 UNL     1      23.120   0.859  53.030  1.00  0.00    -0.025 C 
HETATM   18  C12 UNL     1      25.774   2.477  52.206  1.00  0.00     0.180 C 
HETATM   19  O1  UNL     1      26.616   1.856  53.114  1.00  0.00    -0.254 OA
HETATM   20  N4  UNL     1      27.685   1.157  52.699  1.00  0.00    -0.295 N 
HETATM   21  C13 UNL     1      27.823  -0.124  53.394  1.00  0.00     0.173 C 
HETATM   22  H9  UNL     1      27.878   1.116  51.697  1.00  0.00     0.188 HD
HETATM   23  C14 UNL     1      26.445  -0.789  53.154  1.00  0.00     0.196 C 
HETATM   24  O2  UNL     1      25.548   0.101  53.755  1.00  0.00    -0.361 OA
HETATM   25  C15 UNL     1      24.285   0.442  53.387  1.00  0.00     0.140 C 
BRANCH  17  26
HETATM   26  C17 UNL     1      21.788   0.317  52.800  1.00  0.00     0.011 C 
HETATM   27  C18 UNL     1      21.465  -0.137  51.426  1.00  0.00     0.014 C 
HETATM   28  C19 UNL     1      21.453  -0.824  53.759  1.00  0.00     0.014 C 
ENDBRANCH  17  26
ENDBRANCH   9  11
ENDBRANCH   7   9
TORSDOF 3
ENDMDL
MODEL 6
REMARK VINA RESULT:      -8.2      2.835      7.381
REMARK  3 active torsions:
REMARK  status: ('A' for Active; 'I' for Inactive)
REMARK    1  A    between atoms: C7_7  and  N1_8 
REMARK    2  A    between atoms: N1_8  and  C8_9 
REMARK    3  A    between atoms: C16_22  and  C17_23 
ROOT
HETATM    1  C1  UNL     1      26.472   9.000  48.390  1.00  0.00     0.018 C 
HETATM    2  C2  UNL     1      26.422   7.849  48.737  1.00  0.00    -0.078 C 
HETATM    3  C3  UNL     1      26.375   6.458  49.136  1.00  0.00     0.019 A 
HETATM    4  C4  UNL     1      27.315   5.643  48.512  1.00  0.00     0.021 A 
HETATM    5  C5  UNL     1      27.268   4.301  48.904  1.00  0.00     0.004 A 
HETATM    6  C6  UNL     1      26.372   3.798  49.831  1.00  0.00     0.029 A 
HETATM    7  C7  UNL     1      25.481   4.659  50.398  1.00  0.00     0.035 A 
HETATM    8  C20 UNL     1      25.468   5.996  50.062  1.00  0.00     0.050 A 
ENDROOT
BRANCH   7   9
HETATM    9  N1  UNL     1      24.487   4.282  51.379  1.00  0.00    -0.340 N 
HETATM   10  H5  UNL     1      23.828   4.983  51.784  1.00  0.00     0.167 HD
BRANCH   9  11
HETATM   11  C8  UNL     1      24.336   2.925  51.856  1.00  0.00     0.140 A 
HETATM   12  N2  UNL     1      25.157   2.647  52.800  1.00  0.00    -0.224 NA
HETATM   13  C9  UNL     1      25.151   1.380  53.389  1.00  0.00     0.230 A 
HETATM   14  N3  UNL     1      24.315   0.555  52.961  1.00  0.00    -0.268 NA
HETATM   15  C10 UNL     1      23.318   0.658  51.948  1.00  0.00     0.179 A 
HETATM   16  C11 UNL     1      23.381   1.949  51.282  1.00  0.00     0.041 A 
HETATM   17  C16 UNL     1      21.967   0.294  52.506  1.00  0.00    -0.025 C 
HETATM   18  C12 UNL     1      22.728   2.389  50.189  1.00  0.00     0.180 C 
HETATM   19  O1  UNL     1      21.779   1.956  49.277  1.00  0.00    -0.254 OA
HETATM   20  N4  UNL     1      20.823   2.785  48.829  1.00  0.00    -0.295 N 
HETATM   21  C13 UNL     1      19.499   2.160  48.813  1.00  0.00     0.173 C 
HETATM   22  H9  UNL     1      20.828   3.753  49.157  1.00  0.00     0.188 HD
HETATM   23  C14 UNL     1      19.339   1.669  50.273  1.00  0.00     0.196 C 
HETATM   24  O2  UNL     1      20.400   0.770  50.430  1.00  0.00    -0.361 OA
HETATM   25  C15 UNL     1      21.164   0.511  51.523  1.00  0.00     0.140 C 
BRANCH  17  26
HETATM   26  C17 UNL     1      21.907  -0.176  53.883  1.00  0.00     0.011 C 
HETATM   27  C18 UNL     1      20.830   0.370  54.743  1.00  0.00     0.014 C 
HETATM   28  C19 UNL     1      21.848  -1.701  53.973  1.00  0.00     0.014 C 
ENDBRANCH  17  26
ENDBRANCH   9  11
ENDBRANCH   7   9
TORSDOF 3
ENDMDL
MODEL 7
REMARK VINA RESULT:      -7.8      3.095      8.001
REMARK  3 active torsions:
REMARK  status: ('A' for Active; 'I' for Inactive)
REMARK    1  A    between atoms: C7_7  and  N1_8 
REMARK    2  A    between atoms: N1_8  and  C8_9 
REMARK    3  A    between atoms: C16_22  and  C17_23 
ROOT
HETATM    1  C1  UNL     1      21.961   4.803  45.959  1.00  0.00     0.018 C 
HETATM    2  C2  UNL     1      22.266   5.138  47.073  1.00  0.00    -0.078 C 
HETATM    3  C3  UNL     1      22.641   5.564  48.406  1.00  0.00     0.019 A 
HETATM    4  C4  UNL     1      22.790   6.940  48.555  1.00  0.00     0.021 A 
HETATM    5  C5  UNL     1      23.147   7.346  49.845  1.00  0.00     0.004 A 
HETATM    6  C6  UNL     1      23.343   6.476  50.903  1.00  0.00     0.029 A 
HETATM    7  C7  UNL     1      23.180   5.142  50.677  1.00  0.00     0.035 A 
HETATM    8  C20 UNL     1      22.827   4.667  49.431  1.00  0.00     0.050 A 
ENDROOT
BRANCH   7   9
HETATM    9  N1  UNL     1      23.350   4.113  51.680  1.00  0.00    -0.340 N 
HETATM   10  H5  UNL     1      22.732   4.064  52.520  1.00  0.00     0.167 HD
BRANCH   9  11
HETATM   11  C8  UNL     1      24.371   3.093  51.587  1.00  0.00     0.140 A 
HETATM   12  N2  UNL     1      25.502   3.569  51.216  1.00  0.00    -0.224 NA
HETATM   13  C9  UNL     1      26.609   2.728  51.077  1.00  0.00     0.230 A 
HETATM   14  N3  UNL     1      26.443   1.517  51.337  1.00  0.00    -0.268 NA
HETATM   15  C10 UNL     1      25.296   0.792  51.770  1.00  0.00     0.179 A 
HETATM   16  C11 UNL     1      24.126   1.654  51.835  1.00  0.00     0.041 A 
HETATM   17  C16 UNL     1      25.603   0.037  53.038  1.00  0.00    -0.025 C 
HETATM   18  C12 UNL     1      22.834   1.340  52.049  1.00  0.00     0.180 C 
HETATM   19  O1  UNL     1      22.043   0.234  52.318  1.00  0.00    -0.254 OA
HETATM   20  N4  UNL     1      21.026   0.308  53.192  1.00  0.00    -0.295 N 
HETATM   21  C13 UNL     1      20.986  -0.837  54.105  1.00  0.00     0.173 C 
HETATM   22  H9  UNL     1      20.833   1.207  53.635  1.00  0.00     0.188 HD
HETATM   23  C14 UNL     1      22.407  -0.830  54.719  1.00  0.00     0.196 C 
HETATM   24  O2  UNL     1      23.240  -1.006  53.608  1.00  0.00    -0.361 OA
HETATM   25  C15 UNL     1      24.473  -0.492  53.357  1.00  0.00     0.140 C 
BRANCH  17  26
HETATM   26  C17 UNL     1      26.969   0.082  53.539  1.00  0.00     0.011 C 
HETATM   27  C18 UNL     1      27.155   0.267  54.998  1.00  0.00     0.014 C 
HETATM   28  C19 UNL     1      27.781  -1.142  53.117  1.00  0.00     0.014 C 
ENDBRANCH  17  26
ENDBRANCH   9  11
ENDBRANCH   7   9
TORSDOF 3
ENDMDL
MODEL 8
REMARK VINA RESULT:      -7.6      4.695      8.891
REMARK  3 active torsions:
REMARK  status: ('A' for Active; 'I' for Inactive)
REMARK    1  A    between atoms: C7_7  and  N1_8 
REMARK    2  A    between atoms: N1_8  and  C8_9 
REMARK    3  A    between atoms: C16_22  and  C17_23 
ROOT
HETATM    1  C1  UNL     1      26.540   3.015  49.798  1.00  0.00     0.018 C 
HETATM    2  C2  UNL     1      26.678   4.142  49.399  1.00  0.00    -0.078 C 
HETATM    3  C3  UNL     1      26.821   5.502  48.924  1.00  0.00     0.019 A 
HETATM    4  C4  UNL     1      25.786   6.357  49.292  1.00  0.00     0.021 A 
HETATM    5  C5  UNL     1      25.931   7.671  48.834  1.00  0.00     0.004 A 
HETATM    6  C6  UNL     1      27.002   8.111  48.076  1.00  0.00     0.029 A 
HETATM    7  C7  UNL     1      27.976   7.213  47.755  1.00  0.00     0.035 A 
HETATM    8  C20 UNL     1      27.902   5.901  48.172  1.00  0.00     0.050 A 
ENDROOT
BRANCH   7   9
HETATM    9  N1  UNL     1      29.151   7.523  46.971  1.00  0.00    -0.340 N 
HETATM   10  H5  UNL     1      29.085   7.739  45.952  1.00  0.00     0.167 HD
BRANCH   9  11
HETATM   11  C8  UNL     1      30.481   7.558  47.538  1.00  0.00     0.140 A 
HETATM   12  N2  UNL     1      30.463   7.637  48.817  1.00  0.00    -0.224 NA
HETATM   13  C9  UNL     1      31.659   7.676  49.538  1.00  0.00     0.230 A 
HETATM   14  N3  UNL     1      32.723   7.622  48.884  1.00  0.00    -0.268 NA
HETATM   15  C10 UNL     1      32.967   7.521  47.484  1.00  0.00     0.179 A 
HETATM   16  C11 UNL     1      31.724   7.563  46.732  1.00  0.00     0.041 A 
HETATM   17  C16 UNL     1      33.849   6.334  47.193  1.00  0.00    -0.025 C 
HETATM   18  C12 UNL     1      31.522   7.645  45.402  1.00  0.00     0.180 C 
HETATM   19  O1  UNL     1      32.246   7.687  44.222  1.00  0.00    -0.254 OA
HETATM   20  N4  UNL     1      31.831   7.023  43.132  1.00  0.00    -0.295 N 
HETATM   21  C13 UNL     1      32.917   6.301  42.466  1.00  0.00     0.173 C 
HETATM   22  H9  UNL     1      30.952   6.505  43.186  1.00  0.00     0.188 HD
HETATM   23  C14 UNL     1      33.496   5.431  43.608  1.00  0.00     0.196 C 
HETATM   24  O2  UNL     1      33.922   6.375  44.549  1.00  0.00    -0.361 OA
HETATM   25  C15 UNL     1      33.914   6.313  45.907  1.00  0.00     0.140 C 
BRANCH  17  26
HETATM   26  C17 UNL     1      34.366   5.580  48.326  1.00  0.00     0.011 C 
HETATM   27  C18 UNL     1      34.581   4.125  48.136  1.00  0.00     0.014 C 
HETATM   28  C19 UNL     1      35.661   6.176  48.876  1.00  0.00     0.014 C 
ENDBRANCH  17  26
ENDBRANCH   9  11
ENDBRANCH   7   9
TORSDOF 3
ENDMDL
MODEL 9
REMARK VINA RESULT:      -7.5      2.881      3.883
REMARK  3 active torsions:
REMARK  status: ('A' for Active; 'I' for Inactive)
REMARK    1  A    between atoms: C7_7  and  N1_8 
REMARK    2  A    between atoms: N1_8  and  C8_9 
REMARK    3  A    between atoms: C16_22  and  C17_23 
ROOT
HETATM    1  C1  UNL     1      29.324  -0.063  53.621  1.00  0.00     0.018 C 
HETATM    2  C2  UNL     1      28.164   0.095  53.348  1.00  0.00    -0.078 C 
HETATM    3  C3  UNL     1      26.762   0.264  53.028  1.00  0.00     0.019 A 
HETATM    4  C4  UNL     1      25.906  -0.610  53.692  1.00  0.00     0.021 A 
HETATM    5  C5  UNL     1      24.552  -0.440  53.383  1.00  0.00     0.004 A 
HETATM    6  C6  UNL     1      24.075   0.508  52.495  1.00  0.00     0.029 A 
HETATM    7  C7  UNL     1      24.977   1.327  51.882  1.00  0.00     0.035 A 
HETATM    8  C20 UNL     1      26.328   1.219  52.138  1.00  0.00     0.050 A 
ENDROOT
BRANCH   7   9
HETATM    9  N1  UNL     1      24.632   2.362  50.933  1.00  0.00    -0.340 N 
HETATM   10  H5  UNL     1      25.062   2.394  49.982  1.00  0.00     0.167 HD
BRANCH   9  11
HETATM   11  C8  UNL     1      23.677   3.407  51.229  1.00  0.00     0.140 A 
HETATM   12  N2  UNL     1      23.840   3.897  52.402  1.00  0.00    -0.224 NA
HETATM   13  C9  UNL     1      23.009   4.924  52.859  1.00  0.00     0.230 A 
HETATM   14  N3  UNL     1      22.125   5.334  52.076  1.00  0.00    -0.268 NA
HETATM   15  C10 UNL     1      21.784   4.947  50.748  1.00  0.00     0.179 A 
HETATM   16  C11 UNL     1      22.595   3.824  50.306  1.00  0.00     0.041 A 
HETATM   17  C16 UNL     1      21.801   6.145  49.834  1.00  0.00    -0.025 C 
HETATM   18  C12 UNL     1      22.494   3.071  49.194  1.00  0.00     0.180 C 
HETATM   19  O1  UNL     1      21.729   2.981  48.043  1.00  0.00    -0.254 OA
HETATM   20  N4  UNL     1      22.292   2.688  46.860  1.00  0.00    -0.295 N 
HETATM   21  C13 UNL     1      21.805   3.545  45.778  1.00  0.00     0.173 C 
HETATM   22  H9  UNL     1      23.297   2.507  46.834  1.00  0.00     0.188 HD
HETATM   23  C14 UNL     1      22.078   4.968  46.323  1.00  0.00     0.196 C 
HETATM   24  O2  UNL     1      21.310   5.019  47.492  1.00  0.00    -0.361 OA
HETATM   25  C15 UNL     1      21.564   5.642  48.672  1.00  0.00     0.140 C 
BRANCH  17  26
HETATM   26  C17 UNL     1      22.048   7.449  50.431  1.00  0.00     0.011 C 
HETATM   27  C18 UNL     1      23.378   8.063  50.202  1.00  0.00     0.014 C 
HETATM   28  C19 UNL     1      20.987   8.477  50.040  1.00  0.00     0.014 C 
ENDBRANCH  17  26
ENDBRANCH   9  11
ENDBRANCH   7   9
TORSDOF 3
ENDMDL
