MODEL 1
REMARK VINA RESULT:      -7.4      0.000      0.000
REMARK  10 active torsions:
REMARK  status: ('A' for Active; 'I' for Inactive)
REMARK    1  A    between atoms: C2_2  and  C3_3 
REMARK    2  A    between atoms: C3_3  and  C4_4 
REMARK    3  A    between atoms: C4_4  and  C5_5 
REMARK    4  A    between atoms: C5_5  and  C6_6 
REMARK    5  A    between atoms: C6_6  and  N1_7 
REMARK       I    between atoms: N1_7  and  C7_8 
REMARK    6  A    between atoms: C7_8  and  C8_10 
REMARK    7  A    between atoms: C10_13  and  C11_14 
REMARK    8  A    between atoms: C11_14  and  C12_15 
REMARK    9  A    between atoms: C17_20  and  O3_21 
REMARK   10  A    between atoms: C20_24  and  O4_25 
ROOT
HETATM    1  C8  UNL     1      24.564   5.030  50.920  1.00  0.00     0.087 C 
HETATM    2  C9  UNL     1      25.235   4.007  50.359  1.00  0.00     0.162 C 
HETATM    3  O2  UNL     1      25.084   2.634  50.646  1.00  0.00    -0.326 OA
HETATM    4  C10 UNL     1      24.865   2.054  51.897  1.00  0.00     0.057 C 
HETATM    5  C18 UNL     1      24.069   2.618  52.818  1.00  0.00     0.036 C 
HETATM    6  C19 UNL     1      23.307   3.854  52.749  1.00  0.00     0.040 C 
HETATM    7  C20 UNL     1      23.535   4.867  51.933  1.00  0.00     0.083 C 
ENDROOT
BRANCH   1   8
HETATM    8  C7  UNL     1      24.953   6.325  50.406  1.00  0.00     0.256 C 
HETATM    9  N1  UNL     1      26.054   7.163  50.656  1.00  0.00    -0.357 N 
HETATM   10  H14 UNL     1      26.737   6.790  51.337  1.00  0.00     0.162 HD
HETATM   11  O1  UNL     1      24.217   6.898  49.558  1.00  0.00    -0.268 OA
BRANCH   9  12
HETATM   12  C6  UNL     1      26.259   8.433  50.037  1.00  0.00     0.123 C 
BRANCH  12  13
HETATM   13  C5  UNL     1      27.514   8.595  49.260  1.00  0.00     0.020 C 
BRANCH  13  14
HETATM   14  C4  UNL     1      27.455   7.714  48.031  1.00  0.00     0.002 C 
BRANCH  14  15
HETATM   15  C3  UNL     1      28.777   7.255  47.527  1.00  0.00    -0.000 C 
BRANCH  15  16
HETATM   16  C2  UNL     1      29.232   5.926  48.054  1.00  0.00    -0.005 C 
HETATM   17  C1  UNL     1      28.137   5.009  48.484  1.00  0.00     0.005 C 
ENDBRANCH  15  16
ENDBRANCH  14  15
ENDBRANCH  13  14
ENDBRANCH  12  13
ENDBRANCH   9  12
ENDBRANCH   1   8
BRANCH   7  18
HETATM   18  O4  UNL     1      22.675   5.931  52.053  1.00  0.00    -0.360 OA
HETATM   19  H25 UNL     1      22.552   6.387  52.953  1.00  0.00     0.217 HD
ENDBRANCH   7  18
BRANCH   4  20
HETATM   20  C11 UNL     1      25.551   0.779  52.179  1.00  0.00     0.106 C 
BRANCH  20  21
HETATM   21  C12 UNL     1      26.794   1.026  52.925  1.00  0.00    -0.019 A 
HETATM   22  C13 UNL     1      27.541   2.191  52.877  1.00  0.00     0.010 A 
HETATM   23  C14 UNL     1      28.701   2.361  53.603  1.00  0.00     0.001 A 
HETATM   24  C15 UNL     1      29.172   1.349  54.426  1.00  0.00     0.003 A 
HETATM   25  C16 UNL     1      28.455   0.170  54.503  1.00  0.00     0.037 A 
HETATM   26  C17 UNL     1      27.308   0.042  53.766  1.00  0.00     0.072 A 
BRANCH  26  27
HETATM   27  O3  UNL     1      26.614  -1.155  53.868  1.00  0.00    -0.360 OA
HETATM   28  H22 UNL     1      26.776  -1.951  53.238  1.00  0.00     0.217 HD
ENDBRANCH  26  27
ENDBRANCH  20  21
ENDBRANCH   4  20
TORSDOF 10
ENDMDL
MODEL 2
REMARK VINA RESULT:      -7.4      3.575      6.571
REMARK  10 active torsions:
REMARK  status: ('A' for Active; 'I' for Inactive)
REMARK    1  A    between atoms: C2_2  and  C3_3 
REMARK    2  A    between atoms: C3_3  and  C4_4 
REMARK    3  A    between atoms: C4_4  and  C5_5 
REMARK    4  A    between atoms: C5_5  and  C6_6 
REMARK    5  A    between atoms: C6_6  and  N1_7 
REMARK       I    between atoms: N1_7  and  C7_8 
REMARK    6  A    between atoms: C7_8  and  C8_10 
REMARK    7  A    between atoms: C10_13  and  C11_14 
REMARK    8  A    between atoms: C11_14  and  C12_15 
REMARK    9  A    between atoms: C17_20  and  O3_21 
REMARK   10  A    between atoms: C20_24  and  O4_25 
ROOT
HETATM    1  C8  UNL     1      23.446   2.167  51.283  1.00  0.00     0.087 C 
HETATM    2  C9  UNL     1      23.952   1.980  52.516  1.00  0.00     0.162 C 
HETATM    3  O2  UNL     1      25.223   2.378  52.982  1.00  0.00    -0.326 OA
HETATM    4  C10 UNL     1      26.426   2.347  52.276  1.00  0.00     0.057 C 
HETATM    5  C18 UNL     1      26.500   2.658  50.973  1.00  0.00     0.036 C 
HETATM    6  C19 UNL     1      25.446   3.065  50.059  1.00  0.00     0.040 C 
HETATM    7  C20 UNL     1      24.153   2.847  50.211  1.00  0.00     0.083 C 
ENDROOT
BRANCH   1   8
HETATM    8  C7  UNL     1      22.109   1.637  51.121  1.00  0.00     0.256 C 
HETATM    9  N1  UNL     1      20.942   1.729  51.899  1.00  0.00    -0.357 N 
HETATM   10  H14 UNL     1      21.038   2.291  52.762  1.00  0.00     0.162 HD
HETATM   11  O1  UNL     1      21.843   0.938  50.107  1.00  0.00    -0.268 OA
BRANCH   9  12
HETATM   12  C6  UNL     1      19.696   1.118  51.561  1.00  0.00     0.123 C 
BRANCH  12  13
HETATM   13  C5  UNL     1      19.276  -0.033  52.398  1.00  0.00     0.020 C 
BRANCH  13  14
HETATM   14  C4  UNL     1      20.042  -0.005  53.703  1.00  0.00     0.002 C 
BRANCH  14  15
HETATM   15  C3  UNL     1      20.809  -1.244  54.004  1.00  0.00    -0.000 C 
BRANCH  15  16
HETATM   16  C2  UNL     1      22.226  -1.249  53.513  1.00  0.00    -0.005 C 
HETATM   17  C1  UNL     1      23.256  -0.959  54.551  1.00  0.00     0.005 C 
ENDBRANCH  15  16
ENDBRANCH  14  15
ENDBRANCH  13  14
ENDBRANCH  12  13
ENDBRANCH   9  12
ENDBRANCH   1   8
BRANCH   7  18
HETATM   18  O4  UNL     1      23.347   3.331  49.210  1.00  0.00    -0.360 OA
HETATM   19  H25 UNL     1      22.617   2.744  48.815  1.00  0.00     0.217 HD
ENDBRANCH   7  18
BRANCH   4  20
HETATM   20  C11 UNL     1      27.636   1.954  53.023  1.00  0.00     0.106 C 
BRANCH  20  21
HETATM   21  C12 UNL     1      27.797   0.493  52.996  1.00  0.00    -0.019 A 
HETATM   22  C13 UNL     1      26.811  -0.416  52.647  1.00  0.00     0.010 A 
HETATM   23  C14 UNL     1      27.025  -1.778  52.642  1.00  0.00     0.001 A 
HETATM   24  C15 UNL     1      28.262  -2.299  52.992  1.00  0.00     0.003 A 
HETATM   25  C16 UNL     1      29.273  -1.426  53.345  1.00  0.00     0.037 A 
HETATM   26  C17 UNL     1      29.019  -0.079  53.338  1.00  0.00     0.072 A 
BRANCH  26  27
HETATM   27  O3  UNL     1      30.057   0.768  53.698  1.00  0.00    -0.360 OA
HETATM   28  H22 UNL     1      31.036   0.595  53.436  1.00  0.00     0.217 HD
ENDBRANCH  26  27
ENDBRANCH  20  21
ENDBRANCH   4  20
TORSDOF 10
ENDMDL
MODEL 3
REMARK VINA RESULT:      -7.3      1.920      2.603
REMARK  10 active torsions:
REMARK  status: ('A' for Active; 'I' for Inactive)
REMARK    1  A    between atoms: C2_2  and  C3_3 
REMARK    2  A    between atoms: C3_3  and  C4_4 
REMARK    3  A    between atoms: C4_4  and  C5_5 
REMARK    4  A    between atoms: C5_5  and  C6_6 
REMARK    5  A    between atoms: C6_6  and  N1_7 
REMARK       I    between atoms: N1_7  and  C7_8 
REMARK    6  A    between atoms: C7_8  and  C8_10 
REMARK    7  A    between atoms: C10_13  and  C11_14 
REMARK    8  A    between atoms: C11_14  and  C12_15 
REMARK    9  A    between atoms: C17_20  and  O3_21 
REMARK   10  A    between atoms: C20_24  and  O4_25 
ROOT
HETATM    1  C8  UNL     1      25.453   3.397  50.186  1.00  0.00     0.087 C 
HETATM    2  C9  UNL     1      26.448   2.750  50.819  1.00  0.00     0.162 C 
HETATM    3  O2  UNL     1      26.362   1.514  51.495  1.00  0.00    -0.326 OA
HETATM    4  C10 UNL     1      25.306   1.058  52.285  1.00  0.00     0.057 C 
HETATM    5  C18 UNL     1      24.023   1.288  51.968  1.00  0.00     0.036 C 
HETATM    6  C19 UNL     1      23.466   2.002  50.831  1.00  0.00     0.040 C 
HETATM    7  C20 UNL     1      24.093   2.894  50.087  1.00  0.00     0.083 C 
ENDROOT
BRANCH   1   8
HETATM    8  C7  UNL     1      25.866   4.649  49.591  1.00  0.00     0.256 C 
HETATM    9  N1  UNL     1      27.089   5.103  49.067  1.00  0.00    -0.357 N 
HETATM   10  H14 UNL     1      27.858   4.412  49.100  1.00  0.00     0.162 HD
HETATM   11  O1  UNL     1      25.027   5.583  49.477  1.00  0.00    -0.268 OA
BRANCH   9  12
HETATM   12  C6  UNL     1      27.299   6.404  48.516  1.00  0.00     0.123 C 
BRANCH  12  13
HETATM   13  C5  UNL     1      28.586   6.624  47.812  1.00  0.00     0.020 C 
BRANCH  13  14
HETATM   14  C4  UNL     1      29.517   5.466  48.103  1.00  0.00     0.002 C 
BRANCH  14  15
HETATM   15  C3  UNL     1      30.966   5.795  48.026  1.00  0.00    -0.000 C 
BRANCH  15  16
HETATM   16  C2  UNL     1      31.608   6.151  49.334  1.00  0.00    -0.005 C 
HETATM   17  C1  UNL     1      31.792   7.612  49.569  1.00  0.00     0.005 C 
ENDBRANCH  15  16
ENDBRANCH  14  15
ENDBRANCH  13  14
ENDBRANCH  12  13
ENDBRANCH   9  12
ENDBRANCH   1   8
BRANCH   7  18
HETATM   18  O4  UNL     1      23.356   3.435  49.061  1.00  0.00    -0.360 OA
HETATM   19  H25 UNL     1      23.218   2.910  48.201  1.00  0.00     0.217 HD
ENDBRANCH   7  18
BRANCH   4  20
HETATM   20  C11 UNL     1      25.652   0.301  53.503  1.00  0.00     0.106 C 
BRANCH  20  21
HETATM   21  C12 UNL     1      27.085  -0.029  53.505  1.00  0.00    -0.019 A 
HETATM   22  C13 UNL     1      27.629  -1.242  53.117  1.00  0.00     0.010 A 
HETATM   23  C14 UNL     1      28.986  -1.490  53.143  1.00  0.00     0.001 A 
HETATM   24  C15 UNL     1      29.873  -0.512  53.566  1.00  0.00     0.003 A 
HETATM   25  C16 UNL     1      29.371   0.713  53.961  1.00  0.00     0.037 A 
HETATM   26  C17 UNL     1      28.017   0.918  53.921  1.00  0.00     0.072 A 
BRANCH  26  27
HETATM   27  O3  UNL     1      27.548   2.160  54.324  1.00  0.00    -0.360 OA
HETATM   28  H22 UNL     1      27.960   3.046  54.002  1.00  0.00     0.217 HD
ENDBRANCH  26  27
ENDBRANCH  20  21
ENDBRANCH   4  20
TORSDOF 10
ENDMDL
MODEL 4
REMARK VINA RESULT:      -7.3      2.911      4.673
REMARK  10 active torsions:
REMARK  status: ('A' for Active; 'I' for Inactive)
REMARK    1  A    between atoms: C2_2  and  C3_3 
REMARK    2  A    between atoms: C3_3  and  C4_4 
REMARK    3  A    between atoms: C4_4  and  C5_5 
REMARK    4  A    between atoms: C5_5  and  C6_6 
REMARK    5  A    between atoms: C6_6  and  N1_7 
REMARK       I    between atoms: N1_7  and  C7_8 
REMARK    6  A    between atoms: C7_8  and  C8_10 
REMARK    7  A    between atoms: C10_13  and  C11_14 
REMARK    8  A    between atoms: C11_14  and  C12_15 
REMARK    9  A    between atoms: C17_20  and  O3_21 
REMARK   10  A    between atoms: C20_24  and  O4_25 
ROOT
HETATM    1  C8  UNL     1      24.873   3.240  51.619  1.00  0.00     0.087 C 
HETATM    2  C9  UNL     1      23.801   2.913  52.365  1.00  0.00     0.162 C 
HETATM    3  O2  UNL     1      23.665   1.791  53.209  1.00  0.00    -0.326 OA
HETATM    4  C10 UNL     1      24.133   0.497  52.973  1.00  0.00     0.057 C 
HETATM    5  C18 UNL     1      25.317   0.260  52.388  1.00  0.00     0.036 C 
HETATM    6  C19 UNL     1      26.312   1.201  51.900  1.00  0.00     0.040 C 
HETATM    7  C20 UNL     1      26.101   2.464  51.580  1.00  0.00     0.083 C 
ENDROOT
BRANCH   1   8
HETATM    8  C7  UNL     1      24.696   4.457  50.858  1.00  0.00     0.256 C 
HETATM    9  N1  UNL     1      25.347   5.703  50.880  1.00  0.00    -0.357 N 
HETATM   10  H14 UNL     1      26.114   5.780  51.569  1.00  0.00     0.162 HD
HETATM   11  O1  UNL     1      23.801   4.505  49.972  1.00  0.00    -0.268 OA
BRANCH   9  12
HETATM   12  C6  UNL     1      25.014   6.803  50.031  1.00  0.00     0.123 C 
BRANCH  12  13
HETATM   13  C5  UNL     1      26.149   7.495  49.371  1.00  0.00     0.020 C 
BRANCH  13  14
HETATM   14  C4  UNL     1      26.583   6.696  48.160  1.00  0.00     0.002 C 
BRANCH  14  15
HETATM   15  C3  UNL     1      27.800   5.865  48.363  1.00  0.00    -0.000 C 
BRANCH  15  16
HETATM   16  C2  UNL     1      29.088   6.510  47.946  1.00  0.00    -0.005 C 
HETATM   17  C1  UNL     1      28.972   7.482  46.821  1.00  0.00     0.005 C 
ENDBRANCH  15  16
ENDBRANCH  14  15
ENDBRANCH  13  14
ENDBRANCH  12  13
ENDBRANCH   9  12
ENDBRANCH   1   8
BRANCH   7  18
HETATM   18  O4  UNL     1      27.204   3.158  51.144  1.00  0.00    -0.360 OA
HETATM   19  H25 UNL     1      27.911   3.460  51.808  1.00  0.00     0.217 HD
ENDBRANCH   7  18
BRANCH   4  20
HETATM   20  C11 UNL     1      23.268  -0.620  53.394  1.00  0.00     0.106 C 
BRANCH  20  21
HETATM   21  C12 UNL     1      21.892  -0.403  52.924  1.00  0.00    -0.019 A 
HETATM   22  C13 UNL     1      21.540   0.144  51.702  1.00  0.00     0.010 A 
HETATM   23  C14 UNL     1      20.228   0.323  51.318  1.00  0.00     0.001 A 
HETATM   24  C15 UNL     1      19.190  -0.048  52.160  1.00  0.00     0.003 A 
HETATM   25  C16 UNL     1      19.499  -0.599  53.389  1.00  0.00     0.037 A 
HETATM   26  C17 UNL     1      20.816  -0.759  53.732  1.00  0.00     0.072 A 
BRANCH  26  27
HETATM   27  O3  UNL     1      21.089  -1.316  54.973  1.00  0.00    -0.360 OA
HETATM   28  H22 UNL     1      20.472  -2.003  55.426  1.00  0.00     0.217 HD
ENDBRANCH  26  27
ENDBRANCH  20  21
ENDBRANCH   4  20
TORSDOF 10
ENDMDL
MODEL 5
REMARK VINA RESULT:      -7.2      1.804      2.540
REMARK  10 active torsions:
REMARK  status: ('A' for Active; 'I' for Inactive)
REMARK    1  A    between atoms: C2_2  and  C3_3 
REMARK    2  A    between atoms: C3_3  and  C4_4 
REMARK    3  A    between atoms: C4_4  and  C5_5 
REMARK    4  A    between atoms: C5_5  and  C6_6 
REMARK    5  A    between atoms: C6_6  and  N1_7 
REMARK       I    between atoms: N1_7  and  C7_8 
REMARK    6  A    between atoms: C7_8  and  C8_10 
REMARK    7  A    between atoms: C10_13  and  C11_14 
REMARK    8  A    between atoms: C11_14  and  C12_15 
REMARK    9  A    between atoms: C17_20  and  O3_21 
REMARK   10  A    between atoms: C20_24  and  O4_25 
ROOT
HETATM    1  C8  UNL     1      25.531   2.924  50.631  1.00  0.00     0.087 C 
HETATM    2  C9  UNL     1      26.479   2.016  50.929  1.00  0.00     0.162 C 
HETATM    3  O2  UNL     1      26.290   0.764  51.551  1.00  0.00    -0.326 OA
HETATM    4  C10 UNL     1      25.407   0.465  52.590  1.00  0.00     0.057 C 
HETATM    5  C18 UNL     1      24.177   0.996  52.661  1.00  0.00     0.036 C 
HETATM    6  C19 UNL     1      23.520   1.928  51.759  1.00  0.00     0.040 C 
HETATM    7  C20 UNL     1      24.116   2.737  50.903  1.00  0.00     0.083 C 
ENDROOT
BRANCH   1   8
HETATM    8  C7  UNL     1      26.052   4.113  49.994  1.00  0.00     0.256 C 
HETATM    9  N1  UNL     1      27.133   4.339  49.125  1.00  0.00    -0.357 N 
HETATM   10  H14 UNL     1      27.673   3.493  48.874  1.00  0.00     0.162 HD
HETATM   11  O1  UNL     1      25.486   5.221  50.201  1.00  0.00    -0.268 OA
BRANCH   9  12
HETATM   12  C6  UNL     1      27.492   5.617  48.597  1.00  0.00     0.123 C 
BRANCH  12  13
HETATM   13  C5  UNL     1      28.902   5.780  48.163  1.00  0.00     0.020 C 
BRANCH  13  14
HETATM   14  C4  UNL     1      29.133   7.218  47.751  1.00  0.00     0.002 C 
BRANCH  14  15
HETATM   15  C3  UNL     1      27.896   7.986  47.442  1.00  0.00    -0.000 C 
BRANCH  15  16
HETATM   16  C2  UNL     1      27.726   9.258  48.218  1.00  0.00    -0.005 C 
HETATM   17  C1  UNL     1      28.447   9.303  49.523  1.00  0.00     0.005 C 
ENDBRANCH  15  16
ENDBRANCH  14  15
ENDBRANCH  13  14
ENDBRANCH  12  13
ENDBRANCH   9  12
ENDBRANCH   1   8
BRANCH   7  18
HETATM   18  O4  UNL     1      23.279   3.527  50.152  1.00  0.00    -0.360 OA
HETATM   19  H25 UNL     1      23.590   3.888  49.254  1.00  0.00     0.217 HD
ENDBRANCH   7  18
BRANCH   4  20
HETATM   20  C11 UNL     1      25.879  -0.472  53.628  1.00  0.00     0.106 C 
BRANCH  20  21
HETATM   21  C12 UNL     1      27.349  -0.487  53.667  1.00  0.00    -0.019 A 
HETATM   22  C13 UNL     1      28.151   0.561  54.086  1.00  0.00     0.010 A 
HETATM   23  C14 UNL     1      29.528   0.484  54.098  1.00  0.00     0.001 A 
HETATM   24  C15 UNL     1      30.173  -0.671  53.684  1.00  0.00     0.003 A 
HETATM   25  C16 UNL     1      29.409  -1.740  53.258  1.00  0.00     0.037 A 
HETATM   26  C17 UNL     1      28.044  -1.623  53.261  1.00  0.00     0.072 A 
BRANCH  26  27
HETATM   27  O3  UNL     1      27.309  -2.717  52.828  1.00  0.00    -0.360 OA
HETATM   28  H22 UNL     1      27.221  -3.584  53.374  1.00  0.00     0.217 HD
ENDBRANCH  26  27
ENDBRANCH  20  21
ENDBRANCH   4  20
TORSDOF 10
ENDMDL
MODEL 6
REMARK VINA RESULT:      -7.0      1.799      2.582
REMARK  10 active torsions:
REMARK  status: ('A' for Active; 'I' for Inactive)
REMARK    1  A    between atoms: C2_2  and  C3_3 
REMARK    2  A    between atoms: C3_3  and  C4_4 
REMARK    3  A    between atoms: C4_4  and  C5_5 
REMARK    4  A    between atoms: C5_5  and  C6_6 
REMARK    5  A    between atoms: C6_6  and  N1_7 
REMARK       I    between atoms: N1_7  and  C7_8 
REMARK    6  A    between atoms: C7_8  and  C8_10 
REMARK    7  A    between atoms: C10_13  and  C11_14 
REMARK    8  A    between atoms: C11_14  and  C12_15 
REMARK    9  A    between atoms: C17_20  and  O3_21 
REMARK   10  A    between atoms: C20_24  and  O4_25 
ROOT
HETATM    1  C8  UNL     1      23.602   3.252  51.713  1.00  0.00     0.087 C 
HETATM    2  C9  UNL     1      24.731   2.834  52.315  1.00  0.00     0.162 C 
HETATM    3  O2  UNL     1      25.101   1.500  52.591  1.00  0.00    -0.326 OA
HETATM    4  C10 UNL     1      24.266   0.464  53.011  1.00  0.00     0.057 C 
HETATM    5  C18 UNL     1      23.020   0.311  52.538  1.00  0.00     0.036 C 
HETATM    6  C19 UNL     1      22.298   1.111  51.562  1.00  0.00     0.040 C 
HETATM    7  C20 UNL     1      22.564   2.360  51.226  1.00  0.00     0.083 C 
ENDROOT
BRANCH   1   8
HETATM    8  C7  UNL     1      23.520   4.690  51.579  1.00  0.00     0.256 C 
HETATM    9  N1  UNL     1      24.459   5.675  51.226  1.00  0.00    -0.357 N 
HETATM   10  H14 UNL     1      25.404   5.315  51.009  1.00  0.00     0.162 HD
HETATM   11  O1  UNL     1      22.422   5.268  51.805  1.00  0.00    -0.268 OA
BRANCH   9  12
HETATM   12  C6  UNL     1      24.175   7.073  51.153  1.00  0.00     0.123 C 
BRANCH  12  13
HETATM   13  C5  UNL     1      24.772   7.809  50.011  1.00  0.00     0.020 C 
BRANCH  13  14
HETATM   14  C4  UNL     1      26.248   7.487  49.927  1.00  0.00     0.002 C 
BRANCH  14  15
HETATM   15  C3  UNL     1      26.819   7.523  48.554  1.00  0.00    -0.000 C 
BRANCH  15  16
HETATM   16  C2  UNL     1      27.575   6.293  48.146  1.00  0.00    -0.005 C 
HETATM   17  C1  UNL     1      27.171   5.042  48.850  1.00  0.00     0.005 C 
ENDBRANCH  15  16
ENDBRANCH  14  15
ENDBRANCH  13  14
ENDBRANCH  12  13
ENDBRANCH   9  12
ENDBRANCH   1   8
BRANCH   7  18
HETATM   18  O4  UNL     1      21.739   2.907  50.274  1.00  0.00    -0.360 OA
HETATM   19  H25 UNL     1      20.984   3.530  50.551  1.00  0.00     0.217 HD
ENDBRANCH   7  18
BRANCH   4  20
HETATM   20  C11 UNL     1      24.808  -0.475  54.011  1.00  0.00     0.106 C 
BRANCH  20  21
HETATM   21  C12 UNL     1      26.240  -0.706  53.768  1.00  0.00    -0.019 A 
HETATM   22  C13 UNL     1      26.764  -1.650  52.901  1.00  0.00     0.010 A 
HETATM   23  C14 UNL     1      28.120  -1.818  52.718  1.00  0.00     0.001 A 
HETATM   24  C15 UNL     1      29.028  -1.029  53.409  1.00  0.00     0.003 A 
HETATM   25  C16 UNL     1      28.546  -0.075  54.283  1.00  0.00     0.037 A 
HETATM   26  C17 UNL     1      27.191   0.060  54.437  1.00  0.00     0.072 A 
BRANCH  26  27
HETATM   27  O3  UNL     1      26.743   1.029  55.323  1.00  0.00    -0.360 OA
HETATM   28  H22 UNL     1      27.338   1.433  56.058  1.00  0.00     0.217 HD
ENDBRANCH  26  27
ENDBRANCH  20  21
ENDBRANCH   4  20
TORSDOF 10
ENDMDL
MODEL 7
REMARK VINA RESULT:      -6.7      2.060      2.862
REMARK  10 active torsions:
REMARK  status: ('A' for Active; 'I' for Inactive)
REMARK    1  A    between atoms: C2_2  and  C3_3 
REMARK    2  A    between atoms: C3_3  and  C4_4 
REMARK    3  A    between atoms: C4_4  and  C5_5 
REMARK    4  A    between atoms: C5_5  and  C6_6 
REMARK    5  A    between atoms: C6_6  and  N1_7 
REMARK       I    between atoms: N1_7  and  C7_8 
REMARK    6  A    between atoms: C7_8  and  C8_10 
REMARK    7  A    between atoms: C10_13  and  C11_14 
REMARK    8  A    between atoms: C11_14  and  C12_15 
REMARK    9  A    between atoms: C17_20  and  O3_21 
REMARK   10  A    between atoms: C20_24  and  O4_25 
ROOT
HETATM    1  C8  UNL     1      25.672   3.429  50.270  1.00  0.00     0.087 C 
HETATM    2  C9  UNL     1      26.605   2.679  50.886  1.00  0.00     0.162 C 
HETATM    3  O2  UNL     1      26.418   1.414  51.482  1.00  0.00    -0.326 OA
HETATM    4  C10 UNL     1      25.312   0.984  52.216  1.00  0.00     0.057 C 
HETATM    5  C18 UNL     1      24.056   1.320  51.883  1.00  0.00     0.036 C 
HETATM    6  C19 UNL     1      23.580   2.137  50.779  1.00  0.00     0.040 C 
HETATM    7  C20 UNL     1      24.286   3.028  50.107  1.00  0.00     0.083 C 
ENDROOT
BRANCH   1   8
HETATM    8  C7  UNL     1      26.184   4.684  49.763  1.00  0.00     0.256 C 
HETATM    9  N1  UNL     1      25.868   6.027  50.034  1.00  0.00    -0.357 N 
HETATM   10  H14 UNL     1      25.125   6.164  50.741  1.00  0.00     0.162 HD
HETATM   11  O1  UNL     1      27.103   4.671  48.900  1.00  0.00    -0.268 OA
BRANCH   9  12
HETATM   12  C6  UNL     1      26.500   7.147  49.413  1.00  0.00     0.123 C 
BRANCH  12  13
HETATM   13  C5  UNL     1      26.492   8.419  50.178  1.00  0.00     0.020 C 
BRANCH  13  14
HETATM   14  C4  UNL     1      27.734   9.213  49.836  1.00  0.00     0.002 C 
BRANCH  14  15
HETATM   15  C3  UNL     1      27.996   9.368  48.380  1.00  0.00    -0.000 C 
BRANCH  15  16
HETATM   16  C2  UNL     1      27.223  10.465  47.708  1.00  0.00    -0.005 C 
HETATM   17  C1  UNL     1      27.733  11.843  47.961  1.00  0.00     0.005 C 
ENDBRANCH  15  16
ENDBRANCH  14  15
ENDBRANCH  13  14
ENDBRANCH  12  13
ENDBRANCH   9  12
ENDBRANCH   1   8
BRANCH   7  18
HETATM   18  O4  UNL     1      23.615   3.678  49.099  1.00  0.00    -0.360 OA
HETATM   19  H25 UNL     1      23.916   3.567  48.134  1.00  0.00     0.217 HD
ENDBRANCH   7  18
BRANCH   4  20
HETATM   20  C11 UNL     1      25.573   0.133  53.393  1.00  0.00     0.106 C 
BRANCH  20  21
HETATM   21  C12 UNL     1      26.988  -0.264  53.428  1.00  0.00    -0.019 A 
HETATM   22  C13 UNL     1      27.494  -1.467  52.968  1.00  0.00     0.010 A 
HETATM   23  C14 UNL     1      28.836  -1.781  53.030  1.00  0.00     0.001 A 
HETATM   24  C15 UNL     1      29.746  -0.883  53.567  1.00  0.00     0.003 A 
HETATM   25  C16 UNL     1      29.281   0.330  54.037  1.00  0.00     0.037 A 
HETATM   26  C17 UNL     1      27.941   0.603  53.957  1.00  0.00     0.072 A 
BRANCH  26  27
HETATM   27  O3  UNL     1      27.510   1.831  54.438  1.00  0.00    -0.360 OA
HETATM   28  H22 UNL     1      26.771   2.382  53.983  1.00  0.00     0.217 HD
ENDBRANCH  26  27
ENDBRANCH  20  21
ENDBRANCH   4  20
TORSDOF 10
ENDMDL
MODEL 8
REMARK VINA RESULT:      -6.7      2.088      3.285
REMARK  10 active torsions:
REMARK  status: ('A' for Active; 'I' for Inactive)
REMARK    1  A    between atoms: C2_2  and  C3_3 
REMARK    2  A    between atoms: C3_3  and  C4_4 
REMARK    3  A    between atoms: C4_4  and  C5_5 
REMARK    4  A    between atoms: C5_5  and  C6_6 
REMARK    5  A    between atoms: C6_6  and  N1_7 
REMARK       I    between atoms: N1_7  and  C7_8 
REMARK    6  A    between atoms: C7_8  and  C8_10 
REMARK    7  A    between atoms: C10_13  and  C11_14 
REMARK    8  A    between atoms: C11_14  and  C12_15 
REMARK    9  A    between atoms: C17_20  and  O3_21 
REMARK   10  A    between atoms: C20_24  and  O4_25 
ROOT
HETATM    1  C8  UNL     1      24.736   5.071  50.566  1.00  0.00     0.087 C 
HETATM    2  C9  UNL     1      25.023   3.838  50.107  1.00  0.00     0.162 C 
HETATM    3  O2  UNL     1      24.560   2.610  50.625  1.00  0.00    -0.326 OA
HETATM    4  C10 UNL     1      24.382   2.277  51.969  1.00  0.00     0.057 C 
HETATM    5  C18 UNL     1      23.906   3.152  52.867  1.00  0.00     0.036 C 
HETATM    6  C19 UNL     1      23.496   4.535  52.683  1.00  0.00     0.040 C 
HETATM    7  C20 UNL     1      23.861   5.332  51.696  1.00  0.00     0.083 C 
ENDROOT
BRANCH   1   8
HETATM    8  C7  UNL     1      25.373   6.129  49.813  1.00  0.00     0.256 C 
HETATM    9  N1  UNL     1      26.719   6.440  49.550  1.00  0.00    -0.357 N 
HETATM   10  H14 UNL     1      27.405   5.787  49.965  1.00  0.00     0.162 HD
HETATM   11  O1  UNL     1      24.658   6.996  49.242  1.00  0.00    -0.268 OA
BRANCH   9  12
HETATM   12  C6  UNL     1      27.152   7.556  48.770  1.00  0.00     0.123 C 
BRANCH  12  13
HETATM   13  C5  UNL     1      28.083   7.259  47.652  1.00  0.00     0.020 C 
BRANCH  13  14
HETATM   14  C4  UNL     1      29.437   6.892  48.217  1.00  0.00     0.002 C 
BRANCH  14  15
HETATM   15  C3  UNL     1      29.801   5.455  48.084  1.00  0.00    -0.000 C 
BRANCH  15  16
HETATM   16  C2  UNL     1      31.172   5.194  47.535  1.00  0.00    -0.005 C 
HETATM   17  C1  UNL     1      32.267   5.190  48.547  1.00  0.00     0.005 C 
ENDBRANCH  15  16
ENDBRANCH  14  15
ENDBRANCH  13  14
ENDBRANCH  12  13
ENDBRANCH   9  12
ENDBRANCH   1   8
BRANCH   7  18
HETATM   18  O4  UNL     1      23.339   6.602  51.735  1.00  0.00    -0.360 OA
HETATM   19  H25 UNL     1      23.825   7.337  52.243  1.00  0.00     0.217 HD
ENDBRANCH   7  18
BRANCH   4  20
HETATM   20  C11 UNL     1      24.741   0.905  52.376  1.00  0.00     0.106 C 
BRANCH  20  21
HETATM   21  C12 UNL     1      23.575   0.228  52.964  1.00  0.00    -0.019 A 
HETATM   22  C13 UNL     1      22.288   0.263  52.455  1.00  0.00     0.010 A 
HETATM   23  C14 UNL     1      21.234  -0.395  53.055  1.00  0.00     0.001 A 
HETATM   24  C15 UNL     1      21.431  -1.131  54.214  1.00  0.00     0.003 A 
HETATM   25  C16 UNL     1      22.701  -1.191  54.753  1.00  0.00     0.037 A 
HETATM   26  C17 UNL     1      23.720  -0.523  54.127  1.00  0.00     0.072 A 
BRANCH  26  27
HETATM   27  O3  UNL     1      24.983  -0.606  54.696  1.00  0.00    -0.360 OA
HETATM   28  H22 UNL     1      25.686   0.138  54.608  1.00  0.00     0.217 HD
ENDBRANCH  26  27
ENDBRANCH  20  21
ENDBRANCH   4  20
TORSDOF 10
ENDMDL
MODEL 9
REMARK VINA RESULT:      -6.7      2.172      3.400
REMARK  10 active torsions:
REMARK  status: ('A' for Active; 'I' for Inactive)
REMARK    1  A    between atoms: C2_2  and  C3_3 
REMARK    2  A    between atoms: C3_3  and  C4_4 
REMARK    3  A    between atoms: C4_4  and  C5_5 
REMARK    4  A    between atoms: C5_5  and  C6_6 
REMARK    5  A    between atoms: C6_6  and  N1_7 
REMARK       I    between atoms: N1_7  and  C7_8 
REMARK    6  A    between atoms: C7_8  and  C8_10 
REMARK    7  A    between atoms: C10_13  and  C11_14 
REMARK    8  A    between atoms: C11_14  and  C12_15 
REMARK    9  A    between atoms: C17_20  and  O3_21 
REMARK   10  A    between atoms: C20_24  and  O4_25 
ROOT
HETATM    1  C8  UNL     1      25.790   3.251  50.088  1.00  0.00     0.087 C 
HETATM    2  C9  UNL     1      26.654   2.434  50.719  1.00  0.00     0.162 C 
HETATM    3  O2  UNL     1      26.346   1.242  51.409  1.00  0.00    -0.326 OA
HETATM    4  C10 UNL     1      25.232   1.000  52.215  1.00  0.00     0.057 C 
HETATM    5  C18 UNL     1      24.011   1.465  51.908  1.00  0.00     0.036 C 
HETATM    6  C19 UNL     1      23.585   2.262  50.769  1.00  0.00     0.040 C 
HETATM    7  C20 UNL     1      24.359   3.013  50.009  1.00  0.00     0.083 C 
ENDROOT
BRANCH   1   8
HETATM    8  C7  UNL     1      26.424   4.398  49.475  1.00  0.00     0.256 C 
HETATM    9  N1  UNL     1      26.012   5.727  49.276  1.00  0.00    -0.357 N 
HETATM   10  H14 UNL     1      25.071   5.949  49.641  1.00  0.00     0.162 HD
HETATM   11  O1  UNL     1      27.583   4.277  48.993  1.00  0.00    -0.268 OA
BRANCH   9  12
HETATM   12  C6  UNL     1      26.801   6.729  48.632  1.00  0.00     0.123 C 
BRANCH  12  13
HETATM   13  C5  UNL     1      26.059   7.842  47.988  1.00  0.00     0.020 C 
BRANCH  13  14
HETATM   14  C4  UNL     1      24.577   7.661  48.236  1.00  0.00     0.002 C 
BRANCH  14  15
HETATM   15  C3  UNL     1      23.966   8.673  49.139  1.00  0.00    -0.000 C 
BRANCH  15  16
HETATM   16  C2  UNL     1      22.467   8.657  49.191  1.00  0.00    -0.005 C 
HETATM   17  C1  UNL     1      21.881   7.743  50.214  1.00  0.00     0.005 C 
ENDBRANCH  15  16
ENDBRANCH  14  15
ENDBRANCH  13  14
ENDBRANCH  12  13
ENDBRANCH   9  12
ENDBRANCH   1   8
BRANCH   7  18
HETATM   18  O4  UNL     1      23.725   3.674  48.985  1.00  0.00    -0.360 OA
HETATM   19  H25 UNL     1      23.758   3.300  48.040  1.00  0.00     0.217 HD
ENDBRANCH   7  18
BRANCH   4  20
HETATM   20  C11 UNL     1      25.445   0.202  53.437  1.00  0.00     0.106 C 
BRANCH  20  21
HETATM   21  C12 UNL     1      26.751  -0.470  53.383  1.00  0.00    -0.019 A 
HETATM   22  C13 UNL     1      26.983  -1.730  52.857  1.00  0.00     0.010 A 
HETATM   23  C14 UNL     1      28.235  -2.308  52.837  1.00  0.00     0.001 A 
HETATM   24  C15 UNL     1      29.331  -1.633  53.352  1.00  0.00     0.003 A 
HETATM   25  C16 UNL     1      29.143  -0.372  53.885  1.00  0.00     0.037 A 
HETATM   26  C17 UNL     1      27.883   0.166  53.886  1.00  0.00     0.072 A 
BRANCH  26  27
HETATM   27  O3  UNL     1      27.731   1.434  54.429  1.00  0.00    -0.360 OA
HETATM   28  H22 UNL     1      26.994   2.085  54.131  1.00  0.00     0.217 HD
ENDBRANCH  26  27
ENDBRANCH  20  21
ENDBRANCH   4  20
TORSDOF 10
ENDMDL
