MODEL 1
REMARK VINA RESULT:      -7.8      0.000      0.000
REMARK  5 active torsions:
REMARK  status: ('A' for Active; 'I' for Inactive)
REMARK    1  A    between atoms: C2_2  and  C3_3 
REMARK       I    between atoms: C3_3  and  N1_5 
REMARK    2  A    between atoms: N1_5  and  C4_6 
REMARK    3  A    between atoms: C7_9  and  O2_10 
REMARK    4  A    between atoms: O2_10  and  C8_11 
REMARK    5  A    between atoms: C13_19  and  O4_20 
ROOT
HETATM    1  O2  UNL     1      24.118   1.136  53.423  1.00  0.00    -0.320 OA
ENDROOT
BRANCH   1   2
HETATM    2  C7  UNL     1      22.955   0.403  53.486  1.00  0.00     0.072 A 
HETATM    3  C6  UNL     1      21.893   1.275  53.271  1.00  0.00     0.039 A 
HETATM    4  C5  UNL     1      20.561   0.847  53.270  1.00  0.00     0.032 A 
HETATM    5  C4  UNL     1      20.282  -0.500  53.492  1.00  0.00     0.034 A 
HETATM    6  C17 UNL     1      21.343  -1.350  53.702  1.00  0.00     0.032 A 
HETATM    7  C16 UNL     1      22.650  -0.918  53.701  1.00  0.00     0.039 A 
BRANCH   5   8
HETATM    8  N1  UNL     1      18.989  -1.083  53.521  1.00  0.00    -0.327 N 
HETATM    9  C3  UNL     1      17.979  -1.077  52.517  1.00  0.00     0.221 C 
HETATM   10  O1  UNL     1      18.259  -0.477  51.453  1.00  0.00    -0.273 OA
HETATM   11  H6  UNL     1      19.009  -1.499  54.472  1.00  0.00     0.169 HD
BRANCH   9  12
HETATM   12  C2  UNL     1      16.793  -1.831  53.035  1.00  0.00     0.098 C 
HETATM   13  C1  UNL     1      17.281  -3.172  53.540  1.00  0.00     0.014 C 
ENDBRANCH   9  12
ENDBRANCH   5   8
ENDBRANCH   1   2
BRANCH   1  14
HETATM   14  C8  UNL     1      25.151   0.778  52.558  1.00  0.00     0.290 A 
HETATM   15  N2  UNL     1      25.140   1.732  51.455  1.00  0.00    -0.246 NA
HETATM   16  C9  UNL     1      26.112   2.486  51.138  1.00  0.00     0.230 A 
HETATM   17  N3  UNL     1      27.377   2.541  51.789  1.00  0.00    -0.244 NA
HETATM   18  C10 UNL     1      27.559   1.768  52.780  1.00  0.00     0.072 A 
HETATM   19  C11 UNL     1      28.874   1.805  53.481  1.00  0.00     0.228 C 
HETATM   20  C15 UNL     1      26.488   0.871  53.205  1.00  0.00     0.050 A 
HETATM   21  O3  UNL     1      29.078   0.567  54.057  1.00  0.00    -0.379 OA
HETATM   22  C12 UNL     1      28.054   0.171  54.895  1.00  0.00     0.233 C 
HETATM   23  C13 UNL     1      26.735   0.076  54.257  1.00  0.00     0.082 C 
BRANCH  23  24
HETATM   24  O4  UNL     1      25.814  -0.830  54.778  1.00  0.00    -0.357 OA
HETATM   25  C14 UNL     1      25.357  -0.845  56.101  1.00  0.00     0.209 C 
ENDBRANCH  23  24
ENDBRANCH   1  14
TORSDOF 5
ENDMDL
MODEL 2
REMARK VINA RESULT:      -7.5      2.879      7.717
REMARK  5 active torsions:
REMARK  status: ('A' for Active; 'I' for Inactive)
REMARK    1  A    between atoms: C2_2  and  C3_3 
REMARK       I    between atoms: C3_3  and  N1_5 
REMARK    2  A    between atoms: N1_5  and  C4_6 
REMARK    3  A    between atoms: C7_9  and  O2_10 
REMARK    4  A    between atoms: O2_10  and  C8_11 
REMARK    5  A    between atoms: C13_19  and  O4_20 
ROOT
HETATM    1  O2  UNL     1      23.147   2.314  51.266  1.00  0.00    -0.320 OA
ENDROOT
BRANCH   1   2
HETATM    2  C7  UNL     1      24.186   1.571  51.777  1.00  0.00     0.072 A 
HETATM    3  C6  UNL     1      25.368   2.075  51.244  1.00  0.00     0.039 A 
HETATM    4  C5  UNL     1      26.622   1.540  51.563  1.00  0.00     0.032 A 
HETATM    5  C4  UNL     1      26.694   0.463  52.445  1.00  0.00     0.034 A 
HETATM    6  C17 UNL     1      25.517  -0.023  52.963  1.00  0.00     0.032 A 
HETATM    7  C16 UNL     1      24.289   0.511  52.642  1.00  0.00     0.039 A 
BRANCH   5   8
HETATM    8  N1  UNL     1      27.885  -0.185  52.862  1.00  0.00    -0.327 N 
HETATM    9  C3  UNL     1      28.756   0.145  53.940  1.00  0.00     0.221 C 
HETATM   10  O1  UNL     1      28.437   1.145  54.624  1.00  0.00    -0.273 OA
HETATM   11  H6  UNL     1      27.922  -0.948  52.159  1.00  0.00     0.169 HD
BRANCH   9  12
HETATM   12  C2  UNL     1      29.877  -0.849  53.963  1.00  0.00     0.098 C 
HETATM   13  C1  UNL     1      29.392  -2.110  53.279  1.00  0.00     0.014 C 
ENDBRANCH   9  12
ENDBRANCH   5   8
ENDBRANCH   1   2
BRANCH   1  14
HETATM   14  C8  UNL     1      22.479   3.253  52.049  1.00  0.00     0.290 A 
HETATM   15  N2  UNL     1      22.982   4.568  51.670  1.00  0.00    -0.246 NA
HETATM   16  C9  UNL     1      22.269   5.515  51.213  1.00  0.00     0.230 A 
HETATM   17  N3  UNL     1      20.863   5.472  50.988  1.00  0.00    -0.244 NA
HETATM   18  C10 UNL     1      20.258   4.390  51.268  1.00  0.00     0.072 A 
HETATM   19  C11 UNL     1      18.788   4.318  51.043  1.00  0.00     0.228 C 
HETATM   20  C15 UNL     1      21.011   3.256  51.799  1.00  0.00     0.050 A 
HETATM   21  O3  UNL     1      18.274   3.384  51.922  1.00  0.00    -0.379 OA
HETATM   22  C12 UNL     1      18.875   2.145  51.827  1.00  0.00     0.233 C 
HETATM   23  C13 UNL     1      20.322   2.141  52.077  1.00  0.00     0.082 C 
BRANCH  23  24
HETATM   24  O4  UNL     1      20.900   0.979  52.586  1.00  0.00    -0.357 OA
HETATM   25  C14 UNL     1      20.687   0.469  53.872  1.00  0.00     0.209 C 
ENDBRANCH  23  24
ENDBRANCH   1  14
TORSDOF 5
ENDMDL
MODEL 3
REMARK VINA RESULT:      -7.3      3.133      7.850
REMARK  5 active torsions:
REMARK  status: ('A' for Active; 'I' for Inactive)
REMARK    1  A    between atoms: C2_2  and  C3_3 
REMARK       I    between atoms: C3_3  and  N1_5 
REMARK    2  A    between atoms: N1_5  and  C4_6 
REMARK    3  A    between atoms: C7_9  and  O2_10 
REMARK    4  A    between atoms: O2_10  and  C8_11 
REMARK    5  A    between atoms: C13_19  and  O4_20 
ROOT
HETATM    1  O2  UNL     1      23.551   1.488  51.371  1.00  0.00    -0.320 OA
ENDROOT
BRANCH   1   2
HETATM    2  C7  UNL     1      24.203   2.439  50.620  1.00  0.00     0.072 A 
HETATM    3  C6  UNL     1      25.537   2.448  51.016  1.00  0.00     0.039 A 
HETATM    4  C5  UNL     1      26.481   3.308  50.444  1.00  0.00     0.032 A 
HETATM    5  C4  UNL     1      26.077   4.188  49.442  1.00  0.00     0.034 A 
HETATM    6  C17 UNL     1      24.756   4.167  49.063  1.00  0.00     0.032 A 
HETATM    7  C16 UNL     1      23.834   3.317  49.632  1.00  0.00     0.039 A 
BRANCH   5   8
HETATM    8  N1  UNL     1      26.914   5.117  48.771  1.00  0.00    -0.327 N 
HETATM    9  C3  UNL     1      26.978   6.532  48.912  1.00  0.00     0.221 C 
HETATM   10  O1  UNL     1      26.191   7.043  49.742  1.00  0.00    -0.273 OA
HETATM   11  H6  UNL     1      27.446   4.462  48.165  1.00  0.00     0.169 HD
BRANCH   9  12
HETATM   12  C2  UNL     1      28.028   7.053  47.978  1.00  0.00     0.098 C 
HETATM   13  C1  UNL     1      29.169   6.059  47.963  1.00  0.00     0.014 C 
ENDBRANCH   9  12
ENDBRANCH   5   8
ENDBRANCH   1   2
BRANCH   1  14
HETATM   14  C8  UNL     1      22.945   1.817  52.583  1.00  0.00     0.290 A 
HETATM   15  N2  UNL     1      21.667   2.446  52.269  1.00  0.00    -0.246 NA
HETATM   16  C9  UNL     1      20.534   2.017  52.651  1.00  0.00     0.230 A 
HETATM   17  N3  UNL     1      20.301   0.858  53.446  1.00  0.00    -0.244 NA
HETATM   18  C10 UNL     1      21.314   0.186  53.813  1.00  0.00     0.072 A 
HETATM   19  C11 UNL     1      21.100  -1.030  54.645  1.00  0.00     0.228 C 
HETATM   20  C15 UNL     1      22.652   0.617  53.413  1.00  0.00     0.050 A 
HETATM   21  O3  UNL     1      22.240  -1.231  55.398  1.00  0.00    -0.379 OA
HETATM   22  C12 UNL     1      23.393  -1.315  54.645  1.00  0.00     0.233 C 
HETATM   23  C13 UNL     1      23.685  -0.130  53.828  1.00  0.00     0.082 C 
BRANCH  23  24
HETATM   24  O4  UNL     1      25.016   0.152  53.527  1.00  0.00    -0.357 OA
HETATM   25  C14 UNL     1      25.956  -0.781  53.074  1.00  0.00     0.209 C 
ENDBRANCH  23  24
ENDBRANCH   1  14
TORSDOF 5
ENDMDL
MODEL 4
REMARK VINA RESULT:      -7.3      2.354      8.173
REMARK  5 active torsions:
REMARK  status: ('A' for Active; 'I' for Inactive)
REMARK    1  A    between atoms: C2_2  and  C3_3 
REMARK       I    between atoms: C3_3  and  N1_5 
REMARK    2  A    between atoms: N1_5  and  C4_6 
REMARK    3  A    between atoms: C7_9  and  O2_10 
REMARK    4  A    between atoms: O2_10  and  C8_11 
REMARK    5  A    between atoms: C13_19  and  O4_20 
ROOT
HETATM    1  O2  UNL     1      22.325   0.880  52.520  1.00  0.00    -0.320 OA
ENDROOT
BRANCH   1   2
HETATM    2  C7  UNL     1      23.607   0.495  52.840  1.00  0.00     0.072 A 
HETATM    3  C6  UNL     1      24.476   1.178  51.995  1.00  0.00     0.039 A 
HETATM    4  C5  UNL     1      25.865   1.014  52.057  1.00  0.00     0.032 A 
HETATM    5  C4  UNL     1      26.401   0.135  52.997  1.00  0.00     0.034 A 
HETATM    6  C17 UNL     1      25.529  -0.532  53.824  1.00  0.00     0.032 A 
HETATM    7  C16 UNL     1      24.165  -0.363  53.754  1.00  0.00     0.039 A 
BRANCH   5   8
HETATM    8  N1  UNL     1      27.782  -0.137  53.180  1.00  0.00    -0.327 N 
HETATM    9  C3  UNL     1      28.777   0.658  53.817  1.00  0.00     0.221 C 
HETATM   10  O1  UNL     1      28.392   1.754  54.288  1.00  0.00    -0.273 OA
HETATM   11  H6  UNL     1      27.837  -1.065  52.718  1.00  0.00     0.169 HD
BRANCH   9  12
HETATM   12  C2  UNL     1      30.082  -0.073  53.748  1.00  0.00     0.098 C 
HETATM   13  C1  UNL     1      29.783  -1.526  53.448  1.00  0.00     0.014 C 
ENDBRANCH   9  12
ENDBRANCH   5   8
ENDBRANCH   1   2
BRANCH   1  14
HETATM   14  C8  UNL     1      21.392  -0.042  52.050  1.00  0.00     0.290 A 
HETATM   15  N2  UNL     1      20.770  -0.659  53.216  1.00  0.00    -0.246 NA
HETATM   16  C9  UNL     1      19.527  -0.627  53.479  1.00  0.00     0.230 A 
HETATM   17  N3  UNL     1      18.521   0.007  52.695  1.00  0.00    -0.244 NA
HETATM   18  C10 UNL     1      18.892   0.598  51.634  1.00  0.00     0.072 A 
HETATM   19  C11 UNL     1      17.860   1.269  50.795  1.00  0.00     0.228 C 
HETATM   20  C15 UNL     1      20.305   0.605  51.265  1.00  0.00     0.050 A 
HETATM   21  O3  UNL     1      18.325   1.292  49.495  1.00  0.00    -0.379 OA
HETATM   22  C12 UNL     1      19.566   1.881  49.361  1.00  0.00     0.233 C 
HETATM   23  C13 UNL     1      20.639   1.243  50.134  1.00  0.00     0.082 C 
BRANCH  23  24
HETATM   24  O4  UNL     1      21.944   1.336  49.652  1.00  0.00    -0.357 OA
HETATM   25  C14 UNL     1      22.550   2.508  49.187  1.00  0.00     0.209 C 
ENDBRANCH  23  24
ENDBRANCH   1  14
TORSDOF 5
ENDMDL
MODEL 5
REMARK VINA RESULT:      -7.3      2.819      7.901
REMARK  5 active torsions:
REMARK  status: ('A' for Active; 'I' for Inactive)
REMARK    1  A    between atoms: C2_2  and  C3_3 
REMARK       I    between atoms: C3_3  and  N1_5 
REMARK    2  A    between atoms: N1_5  and  C4_6 
REMARK    3  A    between atoms: C7_9  and  O2_10 
REMARK    4  A    between atoms: O2_10  and  C8_11 
REMARK    5  A    between atoms: C13_19  and  O4_20 
ROOT
HETATM    1  O2  UNL     1      22.515   1.683  52.722  1.00  0.00    -0.320 OA
ENDROOT
BRANCH   1   2
HETATM    2  C7  UNL     1      23.695   1.011  52.943  1.00  0.00     0.072 A 
HETATM    3  C6  UNL     1      24.705   1.703  52.281  1.00  0.00     0.039 A 
HETATM    4  C5  UNL     1      26.039   1.282  52.304  1.00  0.00     0.032 A 
HETATM    5  C4  UNL     1      26.374   0.129  53.013  1.00  0.00     0.034 A 
HETATM    6  C17 UNL     1      25.365  -0.542  53.661  1.00  0.00     0.032 A 
HETATM    7  C16 UNL     1      24.055  -0.119  53.632  1.00  0.00     0.039 A 
BRANCH   5   8
HETATM    8  N1  UNL     1      27.677  -0.421  53.128  1.00  0.00    -0.327 N 
HETATM    9  C3  UNL     1      28.706  -0.104  54.060  1.00  0.00     0.221 C 
HETATM   10  O1  UNL     1      28.436   0.783  54.903  1.00  0.00    -0.273 OA
HETATM   11  H6  UNL     1      27.645  -1.103  52.346  1.00  0.00     0.169 HD
BRANCH   9  12
HETATM   12  C2  UNL     1      29.895  -0.966  53.763  1.00  0.00     0.098 C 
HETATM   13  C1  UNL     1      29.385  -2.299  53.258  1.00  0.00     0.014 C 
ENDBRANCH   9  12
ENDBRANCH   5   8
ENDBRANCH   1   2
BRANCH   1  14
HETATM   14  C8  UNL     1      21.775   1.478  51.558  1.00  0.00     0.290 A 
HETATM   15  N2  UNL     1      20.985   0.269  51.757  1.00  0.00    -0.246 NA
HETATM   16  C9  UNL     1      19.716   0.214  51.707  1.00  0.00     0.230 A 
HETATM   17  N3  UNL     1      18.840   1.307  51.449  1.00  0.00    -0.244 NA
HETATM   18  C10 UNL     1      19.367   2.445  51.250  1.00  0.00     0.072 A 
HETATM   19  C11 UNL     1      18.473   3.606  50.978  1.00  0.00     0.228 C 
HETATM   20  C15 UNL     1      20.820   2.588  51.292  1.00  0.00     0.050 A 
HETATM   21  O3  UNL     1      19.188   4.520  50.228  1.00  0.00    -0.379 OA
HETATM   22  C12 UNL     1      20.377   4.906  50.814  1.00  0.00     0.233 C 
HETATM   23  C13 UNL     1      21.321   3.812  51.074  1.00  0.00     0.082 C 
BRANCH  23  24
HETATM   24  O4  UNL     1      22.684   4.105  51.083  1.00  0.00    -0.357 OA
HETATM   25  C14 UNL     1      23.291   5.097  51.862  1.00  0.00     0.209 C 
ENDBRANCH  23  24
ENDBRANCH   1  14
TORSDOF 5
ENDMDL
MODEL 6
REMARK VINA RESULT:      -7.1      3.422      7.776
REMARK  5 active torsions:
REMARK  status: ('A' for Active; 'I' for Inactive)
REMARK    1  A    between atoms: C2_2  and  C3_3 
REMARK       I    between atoms: C3_3  and  N1_5 
REMARK    2  A    between atoms: N1_5  and  C4_6 
REMARK    3  A    between atoms: C7_9  and  O2_10 
REMARK    4  A    between atoms: O2_10  and  C8_11 
REMARK    5  A    between atoms: C13_19  and  O4_20 
ROOT
HETATM    1  O2  UNL     1      24.594   2.075  52.631  1.00  0.00    -0.320 OA
ENDROOT
BRANCH   1   2
HETATM    2  C7  UNL     1      25.110   2.860  51.626  1.00  0.00     0.072 A 
HETATM    3  C6  UNL     1      24.223   3.911  51.413  1.00  0.00     0.039 A 
HETATM    4  C5  UNL     1      24.450   4.900  50.450  1.00  0.00     0.032 A 
HETATM    5  C4  UNL     1      25.606   4.835  49.673  1.00  0.00     0.034 A 
HETATM    6  C17 UNL     1      26.472   3.791  49.895  1.00  0.00     0.032 A 
HETATM    7  C16 UNL     1      26.238   2.823  50.846  1.00  0.00     0.039 A 
BRANCH   5   8
HETATM    8  N1  UNL     1      25.973   5.759  48.660  1.00  0.00    -0.327 N 
HETATM    9  C3  UNL     1      26.397   7.112  48.792  1.00  0.00     0.221 C 
HETATM   10  O1  UNL     1      26.459   7.563  49.959  1.00  0.00    -0.273 OA
HETATM   11  H6  UNL     1      25.840   5.160  47.823  1.00  0.00     0.169 HD
BRANCH   9  12
HETATM   12  C2  UNL     1      26.669   7.658  47.423  1.00  0.00     0.098 C 
HETATM   13  C1  UNL     1      28.167   7.638  47.206  1.00  0.00     0.014 C 
ENDBRANCH   9  12
ENDBRANCH   5   8
ENDBRANCH   1   2
BRANCH   1  14
HETATM   14  C8  UNL     1      24.664   0.684  52.567  1.00  0.00     0.290 A 
HETATM   15  N2  UNL     1      26.026   0.304  52.924  1.00  0.00    -0.246 NA
HETATM   16  C9  UNL     1      26.338  -0.449  53.899  1.00  0.00     0.230 A 
HETATM   17  N3  UNL     1      25.430  -1.057  54.813  1.00  0.00    -0.244 NA
HETATM   18  C10 UNL     1      24.191  -0.830  54.645  1.00  0.00     0.072 A 
HETATM   19  C11 UNL     1      23.219  -1.453  55.586  1.00  0.00     0.228 C 
HETATM   20  C15 UNL     1      23.754   0.028  53.546  1.00  0.00     0.050 A 
HETATM   21  O3  UNL     1      22.019  -1.595  54.918  1.00  0.00    -0.379 OA
HETATM   22  C12 UNL     1      21.540  -0.415  54.383  1.00  0.00     0.233 C 
HETATM   23  C13 UNL     1      22.436   0.232  53.416  1.00  0.00     0.082 C 
BRANCH  23  24
HETATM   24  O4  UNL     1      21.868   1.025  52.420  1.00  0.00    -0.357 OA
HETATM   25  C14 UNL     1      20.854   1.968  52.619  1.00  0.00     0.209 C 
ENDBRANCH  23  24
ENDBRANCH   1  14
TORSDOF 5
ENDMDL
MODEL 7
REMARK VINA RESULT:      -7.1      4.040      8.509
REMARK  5 active torsions:
REMARK  status: ('A' for Active; 'I' for Inactive)
REMARK    1  A    between atoms: C2_2  and  C3_3 
REMARK       I    between atoms: C3_3  and  N1_5 
REMARK    2  A    between atoms: N1_5  and  C4_6 
REMARK    3  A    between atoms: C7_9  and  O2_10 
REMARK    4  A    between atoms: O2_10  and  C8_11 
REMARK    5  A    between atoms: C13_19  and  O4_20 
ROOT
HETATM    1  O2  UNL     1      25.517   2.663  50.903  1.00  0.00    -0.320 OA
ENDROOT
BRANCH   1   2
HETATM    2  C7  UNL     1      25.759   3.850  50.250  1.00  0.00     0.072 A 
HETATM    3  C6  UNL     1      26.895   3.677  49.466  1.00  0.00     0.039 A 
HETATM    4  C5  UNL     1      27.417   4.701  48.667  1.00  0.00     0.032 A 
HETATM    5  C4  UNL     1      26.780   5.940  48.654  1.00  0.00     0.034 A 
HETATM    6  C17 UNL     1      25.659   6.096  49.434  1.00  0.00     0.032 A 
HETATM    7  C16 UNL     1      25.153   5.081  50.216  1.00  0.00     0.039 A 
BRANCH   5   8
HETATM    8  N1  UNL     1      27.188   7.071  47.900  1.00  0.00    -0.327 N 
HETATM    9  C3  UNL     1      28.413   7.795  47.959  1.00  0.00     0.221 C 
HETATM   10  O1  UNL     1      29.258   7.386  48.789  1.00  0.00    -0.273 OA
HETATM   11  H6  UNL     1      26.341   7.201  47.312  1.00  0.00     0.169 HD
BRANCH   9  12
HETATM   12  C2  UNL     1      28.353   8.907  46.957  1.00  0.00     0.098 C 
HETATM   13  C1  UNL     1      28.678   8.325  45.598  1.00  0.00     0.014 C 
ENDBRANCH   9  12
ENDBRANCH   5   8
ENDBRANCH   1   2
BRANCH   1  14
HETATM   14  C8  UNL     1      25.059   2.644  52.219  1.00  0.00     0.290 A 
HETATM   15  N2  UNL     1      23.602   2.661  52.169  1.00  0.00    -0.246 NA
HETATM   16  C9  UNL     1      22.848   1.763  52.660  1.00  0.00     0.230 A 
HETATM   17  N3  UNL     1      23.278   0.589  53.342  1.00  0.00    -0.244 NA
HETATM   18  C10 UNL     1      24.529   0.415  53.477  1.00  0.00     0.072 A 
HETATM   19  C11 UNL     1      25.006  -0.805  54.186  1.00  0.00     0.228 C 
HETATM   20  C15 UNL     1      25.459   1.404  52.939  1.00  0.00     0.050 A 
HETATM   21  O3  UNL     1      26.239  -0.515  54.737  1.00  0.00    -0.379 OA
HETATM   22  C12 UNL     1      27.161  -0.055  53.819  1.00  0.00     0.233 C 
HETATM   23  C13 UNL     1      26.768   1.170  53.110  1.00  0.00     0.082 C 
BRANCH  23  24
HETATM   24  O4  UNL     1      27.775   2.019  52.654  1.00  0.00    -0.357 OA
HETATM   25  C14 UNL     1      28.779   2.581  53.450  1.00  0.00     0.209 C 
ENDBRANCH  23  24
ENDBRANCH   1  14
TORSDOF 5
ENDMDL
MODEL 8
REMARK VINA RESULT:      -7.0      4.431      8.392
REMARK  5 active torsions:
REMARK  status: ('A' for Active; 'I' for Inactive)
REMARK    1  A    between atoms: C2_2  and  C3_3 
REMARK       I    between atoms: C3_3  and  N1_5 
REMARK    2  A    between atoms: N1_5  and  C4_6 
REMARK    3  A    between atoms: C7_9  and  O2_10 
REMARK    4  A    between atoms: O2_10  and  C8_11 
REMARK    5  A    between atoms: C13_19  and  O4_20 
ROOT
HETATM    1  O2  UNL     1      23.768   4.416  50.434  1.00  0.00    -0.320 OA
ENDROOT
BRANCH   1   2
HETATM    2  C7  UNL     1      24.736   3.601  50.975  1.00  0.00     0.072 A 
HETATM    3  C6  UNL     1      24.291   3.192  52.229  1.00  0.00     0.039 A 
HETATM    4  C5  UNL     1      25.044   2.347  53.052  1.00  0.00     0.032 A 
HETATM    5  C4  UNL     1      26.285   1.897  52.605  1.00  0.00     0.034 A 
HETATM    6  C17 UNL     1      26.711   2.310  51.364  1.00  0.00     0.032 A 
HETATM    7  C16 UNL     1      25.961   3.141  50.563  1.00  0.00     0.039 A 
BRANCH   5   8
HETATM    8  N1  UNL     1      27.161   1.041  53.322  1.00  0.00    -0.327 N 
HETATM    9  C3  UNL     1      28.301   1.377  54.107  1.00  0.00     0.221 C 
HETATM   10  O1  UNL     1      28.581   2.595  54.184  1.00  0.00    -0.273 OA
HETATM   11  H6  UNL     1      26.725   0.124  53.101  1.00  0.00     0.169 HD
BRANCH   9  12
HETATM   12  C2  UNL     1      28.886   0.111  54.657  1.00  0.00     0.098 C 
HETATM   13  C1  UNL     1      29.579  -0.610  53.521  1.00  0.00     0.014 C 
ENDBRANCH   9  12
ENDBRANCH   5   8
ENDBRANCH   1   2
BRANCH   1  14
HETATM   14  C8  UNL     1      23.275   5.513  51.138  1.00  0.00     0.290 A 
HETATM   15  N2  UNL     1      24.322   6.527  51.145  1.00  0.00    -0.246 NA
HETATM   16  C9  UNL     1      24.203   7.699  50.667  1.00  0.00     0.230 A 
HETATM   17  N3  UNL     1      23.040   8.235  50.043  1.00  0.00    -0.244 NA
HETATM   18  C10 UNL     1      22.024   7.478  49.952  1.00  0.00     0.072 A 
HETATM   19  C11 UNL     1      20.794   8.014  49.304  1.00  0.00     0.228 C 
HETATM   20  C15 UNL     1      22.084   6.117  50.479  1.00  0.00     0.050 A 
HETATM   21  O3  UNL     1      19.713   7.333  49.828  1.00  0.00    -0.379 OA
HETATM   22  C12 UNL     1      19.809   5.961  49.705  1.00  0.00     0.233 C 
HETATM   23  C13 UNL     1      20.982   5.364  50.356  1.00  0.00     0.082 C 
BRANCH  23  24
HETATM   24  O4  UNL     1      20.886   4.049  50.809  1.00  0.00    -0.357 OA
HETATM   25  C14 UNL     1      20.049   3.609  51.840  1.00  0.00     0.209 C 
ENDBRANCH  23  24
ENDBRANCH   1  14
TORSDOF 5
ENDMDL
MODEL 9
REMARK VINA RESULT:      -6.7      1.767      2.082
REMARK  5 active torsions:
REMARK  status: ('A' for Active; 'I' for Inactive)
REMARK    1  A    between atoms: C2_2  and  C3_3 
REMARK       I    between atoms: C3_3  and  N1_5 
REMARK    2  A    between atoms: N1_5  and  C4_6 
REMARK    3  A    between atoms: C7_9  and  O2_10 
REMARK    4  A    between atoms: O2_10  and  C8_11 
REMARK    5  A    between atoms: C13_19  and  O4_20 
ROOT
HETATM    1  O2  UNL     1      23.731   1.963  52.885  1.00  0.00    -0.320 OA
ENDROOT
BRANCH   1   2
HETATM    2  C7  UNL     1      22.403   1.722  52.619  1.00  0.00     0.072 A 
HETATM    3  C6  UNL     1      22.303   0.435  52.099  1.00  0.00     0.039 A 
HETATM    4  C5  UNL     1      21.079  -0.127  51.719  1.00  0.00     0.032 A 
HETATM    5  C4  UNL     1      19.915   0.626  51.865  1.00  0.00     0.034 A 
HETATM    6  C17 UNL     1      20.030   1.895  52.380  1.00  0.00     0.032 A 
HETATM    7  C16 UNL     1      21.240   2.438  52.751  1.00  0.00     0.039 A 
BRANCH   5   8
HETATM    8  N1  UNL     1      18.605   0.196  51.526  1.00  0.00    -0.327 N 
HETATM    9  C3  UNL     1      17.812   0.542  50.395  1.00  0.00     0.221 C 
HETATM   10  O1  UNL     1      18.331   1.336  49.577  1.00  0.00    -0.273 OA
HETATM   11  H6  UNL     1      18.414  -0.427  52.334  1.00  0.00     0.169 HD
BRANCH   9  12
HETATM   12  C2  UNL     1      16.502  -0.178  50.498  1.00  0.00     0.098 C 
HETATM   13  C1  UNL     1      16.224  -0.826  49.159  1.00  0.00     0.014 C 
ENDBRANCH   9  12
ENDBRANCH   5   8
ENDBRANCH   1   2
BRANCH   1  14
HETATM   14  C8  UNL     1      24.737   1.403  52.100  1.00  0.00     0.290 A 
HETATM   15  N2  UNL     1      25.055   2.368  51.054  1.00  0.00    -0.246 NA
HETATM   16  C9  UNL     1      26.200   2.887  50.868  1.00  0.00     0.230 A 
HETATM   17  N3  UNL     1      27.372   2.627  51.634  1.00  0.00    -0.244 NA
HETATM   18  C10 UNL     1      27.273   1.801  52.594  1.00  0.00     0.072 A 
HETATM   19  C11 UNL     1      28.484   1.511  53.411  1.00  0.00     0.228 C 
HETATM   20  C15 UNL     1      25.988   1.163  52.870  1.00  0.00     0.050 A 
HETATM   21  O3  UNL     1      28.342   0.241  53.936  1.00  0.00    -0.379 OA
HETATM   22  C12 UNL     1      27.176   0.067  54.655  1.00  0.00     0.233 C 
HETATM   23  C13 UNL     1      25.942   0.300  53.895  1.00  0.00     0.082 C 
BRANCH  23  24
HETATM   24  O4  UNL     1      24.790  -0.384  54.281  1.00  0.00    -0.357 OA
HETATM   25  C14 UNL     1      24.649  -1.125  55.460  1.00  0.00     0.209 C 
ENDBRANCH  23  24
ENDBRANCH   1  14
TORSDOF 5
ENDMDL
