MODEL 1
REMARK VINA RESULT:      -8.2      0.000      0.000
REMARK  5 active torsions:
REMARK  status: ('A' for Active; 'I' for Inactive)
REMARK    1  A    between atoms: C4_5  and  N2_6 
REMARK    2  A    between atoms: C5_7  and  O1_8 
REMARK    3  A    between atoms: O1_8  and  C6_9 
REMARK    4  A    between atoms: C6_9  and  C8_11 
REMARK    5  A    between atoms: N5_24  and  C16_25 
ROOT
HETATM    1  C1  UNL     1      22.947   6.859  49.577  1.00  0.00     0.068 C 
HETATM    2  C2  UNL     1      23.094   5.519  49.043  1.00  0.00     0.032 C 
HETATM    3  C3  UNL     1      24.322   5.225  49.566  1.00  0.00     0.187 C 
HETATM    4  N1  UNL     1      25.541   4.598  49.929  1.00  0.00    -0.262 NA
HETATM    5  C4  UNL     1      25.582   3.419  50.542  1.00  0.00     0.127 C 
HETATM    6  C5  UNL     1      24.945   2.195  51.126  1.00  0.00     0.112 C 
HETATM    7  C14 UNL     1      23.753   2.585  50.807  1.00  0.00     0.172 C 
HETATM    8  N3  UNL     1      22.399   2.314  50.817  1.00  0.00    -0.370 N 
HETATM    9  C15 UNL     1      22.013   3.596  50.272  1.00  0.00     0.225 C 
HETATM   10  N4  UNL     1      22.276   3.761  49.046  1.00  0.00    -0.168 NA
HETATM   11  N5  UNL     1      22.048   4.860  48.236  1.00  0.00    -0.270 N 
HETATM   12  H14 UNL     1      21.379   2.120  50.823  1.00  0.00     0.161 HD
ENDROOT
BRANCH   6  13
HETATM   13  O1  UNL     1      25.904   1.393  51.641  1.00  0.00    -0.340 OA
BRANCH  13  14
HETATM   14  C6  UNL     1      25.859   0.293  52.465  1.00  0.00     0.161 C 
HETATM   15  C7  UNL     1      24.897   0.531  53.626  1.00  0.00     0.045 C 
BRANCH  14  16
HETATM   16  C8  UNL     1      27.223  -0.008  52.973  1.00  0.00     0.017 A 
HETATM   17  C9  UNL     1      28.052   0.932  53.545  1.00  0.00     0.044 A 
HETATM   18 CL1  UNL     1      27.469   2.596  53.711  1.00  0.00    -0.084 Cl
HETATM   19  C10 UNL     1      29.336   0.721  54.035  1.00  0.00     0.028 A 
HETATM   20  C11 UNL     1      29.753  -0.606  53.895  1.00  0.00     0.046 A 
HETATM   21  C12 UNL     1      29.027  -1.644  53.345  1.00  0.00     0.138 A 
HETATM   22  F1  UNL     1      29.558  -2.878  53.274  1.00  0.00    -0.204 F 
HETATM   23  C13 UNL     1      27.780  -1.261  52.910  1.00  0.00     0.083 A 
HETATM   24 CL2  UNL     1      26.794  -2.526  52.196  1.00  0.00    -0.080 Cl
ENDBRANCH  14  16
ENDBRANCH  13  14
ENDBRANCH   6  13
BRANCH   5  25
HETATM   25  N2  UNL     1      26.942   3.686  50.452  1.00  0.00    -0.285 NA
HETATM   26  H5  UNL     1      27.880   4.031  50.237  1.00  0.00     0.125 HD
HETATM   27  H6  UNL     1      27.843   4.117  50.152  1.00  0.00     0.125 HD
ENDBRANCH   5  25
BRANCH  11  28
HETATM   28  C16 UNL     1      21.540   5.731  47.233  1.00  0.00     0.113 C 
HETATM   29  C17 UNL     1      20.097   5.357  46.934  1.00  0.00     0.057 C 
HETATM   30  C18 UNL     1      19.865   5.355  45.439  1.00  0.00     0.271 C 
HETATM   31  N6  UNL     1      20.499   6.498  44.809  1.00  0.00     0.083 N 
HETATM   32  C19 UNL     1      21.909   6.266  44.787  1.00  0.00     0.271 C 
HETATM   33  H21 UNL     1      20.225   7.407  45.190  1.00  0.00     0.315 HD
HETATM   34  C20 UNL     1      22.347   5.471  45.967  1.00  0.00     0.057 C 
ENDBRANCH  11  28
TORSDOF 5
ENDMDL
MODEL 2
REMARK VINA RESULT:      -7.9      4.094      8.723
REMARK  5 active torsions:
REMARK  status: ('A' for Active; 'I' for Inactive)
REMARK    1  A    between atoms: C4_5  and  N2_6 
REMARK    2  A    between atoms: C5_7  and  O1_8 
REMARK    3  A    between atoms: O1_8  and  C6_9 
REMARK    4  A    between atoms: C6_9  and  C8_11 
REMARK    5  A    between atoms: N5_24  and  C16_25 
ROOT
HETATM    1  C1  UNL     1      24.380  -0.749  55.005  1.00  0.00     0.068 C 
HETATM    2  C2  UNL     1      24.758  -0.091  53.770  1.00  0.00     0.032 C 
HETATM    3  C3  UNL     1      23.530  -0.062  53.172  1.00  0.00     0.187 C 
HETATM    4  N1  UNL     1      22.446   0.133  52.277  1.00  0.00    -0.262 NA
HETATM    5  C4  UNL     1      22.124   1.331  51.799  1.00  0.00     0.127 C 
HETATM    6  C5  UNL     1      22.326   2.808  51.648  1.00  0.00     0.112 C 
HETATM    7  C14 UNL     1      23.384   2.803  52.394  1.00  0.00     0.172 C 
HETATM    8  N3  UNL     1      24.406   3.534  52.968  1.00  0.00    -0.370 N 
HETATM    9  C15 UNL     1      24.929   2.428  53.739  1.00  0.00     0.225 C 
HETATM   10  N4  UNL     1      25.533   1.542  53.069  1.00  0.00    -0.168 NA
HETATM   11  N5  UNL     1      26.133   0.370  53.496  1.00  0.00    -0.270 N 
HETATM   12  H14 UNL     1      25.177   4.075  53.405  1.00  0.00     0.161 HD
ENDROOT
BRANCH   6  13
HETATM   13  O1  UNL     1      21.353   3.316  50.860  1.00  0.00    -0.340 OA
BRANCH  13  14
HETATM   14  C6  UNL     1      21.312   4.389  50.000  1.00  0.00     0.161 C 
HETATM   15  C7  UNL     1      20.791   3.960  48.631  1.00  0.00     0.045 C 
BRANCH  14  16
HETATM   16  C8  UNL     1      22.669   4.984  49.878  1.00  0.00     0.017 A 
HETATM   17  C9  UNL     1      23.727   4.356  49.258  1.00  0.00     0.044 A 
HETATM   18 CL1  UNL     1      23.471   2.756  48.543  1.00  0.00    -0.084 Cl
HETATM   19  C10 UNL     1      25.018   4.850  49.113  1.00  0.00     0.028 A 
HETATM   20  C11 UNL     1      25.175   6.118  49.682  1.00  0.00     0.046 A 
HETATM   21  C12 UNL     1      24.204   6.858  50.327  1.00  0.00     0.138 A 
HETATM   22  F1  UNL     1      24.499   8.070  50.828  1.00  0.00    -0.204 F 
HETATM   23  C13 UNL     1      22.987   6.220  50.382  1.00  0.00     0.083 A 
HETATM   24 CL2  UNL     1      21.698   7.096  51.190  1.00  0.00    -0.080 Cl
ENDBRANCH  14  16
ENDBRANCH  13  14
ENDBRANCH   6  13
BRANCH   5  25
HETATM   25  N2  UNL     1      21.150   0.559  51.178  1.00  0.00    -0.285 NA
HETATM   26  H5  UNL     1      20.511   0.082  50.538  1.00  0.00     0.125 HD
HETATM   27  H6  UNL     1      20.558   0.135  50.432  1.00  0.00     0.125 HD
ENDBRANCH   5  25
BRANCH  11  28
HETATM   28  C16 UNL     1      27.091  -0.627  53.829  1.00  0.00     0.113 C 
HETATM   29  C17 UNL     1      28.459   0.023  53.964  1.00  0.00     0.057 C 
HETATM   30  C18 UNL     1      29.502  -0.825  53.271  1.00  0.00     0.271 C 
HETATM   31  N6  UNL     1      29.301  -2.235  53.549  1.00  0.00     0.083 N 
HETATM   32  C19 UNL     1      28.166  -2.676  52.803  1.00  0.00     0.271 C 
HETATM   33  H21 UNL     1      29.276  -2.479  54.542  1.00  0.00     0.315 HD
HETATM   34  C20 UNL     1      27.162  -1.588  52.648  1.00  0.00     0.057 C 
ENDBRANCH  11  28
TORSDOF 5
ENDMDL
MODEL 3
REMARK VINA RESULT:      -7.8      4.325      9.236
REMARK  5 active torsions:
REMARK  status: ('A' for Active; 'I' for Inactive)
REMARK    1  A    between atoms: C4_5  and  N2_6 
REMARK    2  A    between atoms: C5_7  and  O1_8 
REMARK    3  A    between atoms: O1_8  and  C6_9 
REMARK    4  A    between atoms: C6_9  and  C8_11 
REMARK    5  A    between atoms: N5_24  and  C16_25 
ROOT
HETATM    1  C1  UNL     1      25.241  -0.573  55.573  1.00  0.00     0.068 C 
HETATM    2  C2  UNL     1      25.422  -0.038  54.238  1.00  0.00     0.032 C 
HETATM    3  C3  UNL     1      24.156  -0.241  53.764  1.00  0.00     0.187 C 
HETATM    4  N1  UNL     1      22.986  -0.300  52.965  1.00  0.00    -0.262 NA
HETATM    5  C4  UNL     1      22.465   0.775  52.383  1.00  0.00     0.127 C 
HETATM    6  C5  UNL     1      22.451   2.234  52.040  1.00  0.00     0.112 C 
HETATM    7  C14 UNL     1      23.557   2.458  52.673  1.00  0.00     0.172 C 
HETATM    8  N3  UNL     1      24.514   3.379  53.053  1.00  0.00    -0.370 N 
HETATM    9  C15 UNL     1      25.245   2.457  53.893  1.00  0.00     0.225 C 
HETATM   10  N4  UNL     1      25.906   1.574  53.276  1.00  0.00    -0.168 NA
HETATM   11  N5  UNL     1      26.694   0.552  53.777  1.00  0.00    -0.270 N 
HETATM   12  H14 UNL     1      25.238   4.065  53.345  1.00  0.00     0.161 HD
ENDROOT
BRANCH   6  13
HETATM   13  O1  UNL     1      21.355   2.510  51.298  1.00  0.00    -0.340 OA
BRANCH  13  14
HETATM   14  C6  UNL     1      20.753   3.689  50.924  1.00  0.00     0.161 C 
HETATM   15  C7  UNL     1      19.254   3.487  50.727  1.00  0.00     0.045 C 
BRANCH  14  16
HETATM   16  C8  UNL     1      21.379   4.196  49.674  1.00  0.00     0.017 A 
HETATM   17  C9  UNL     1      21.542   3.435  48.537  1.00  0.00     0.044 A 
HETATM   18 CL1  UNL     1      20.963   1.762  48.538  1.00  0.00    -0.084 Cl
HETATM   19  C10 UNL     1      22.121   3.843  47.340  1.00  0.00     0.028 A 
HETATM   20  C11 UNL     1      22.555   5.171  47.378  1.00  0.00     0.046 A 
HETATM   21  C12 UNL     1      22.452   6.042  48.445  1.00  0.00     0.138 A 
HETATM   22  F1  UNL     1      22.916   7.299  48.339  1.00  0.00    -0.204 F 
HETATM   23  C13 UNL     1      21.857   5.476  49.548  1.00  0.00     0.083 A 
HETATM   24 CL2  UNL     1      21.691   6.520  50.950  1.00  0.00    -0.080 Cl
ENDBRANCH  14  16
ENDBRANCH  13  14
ENDBRANCH   6  13
BRANCH   5  25
HETATM   25  N2  UNL     1      21.558  -0.186  51.956  1.00  0.00    -0.285 NA
HETATM   26  H5  UNL     1      20.757  -0.722  51.615  1.00  0.00     0.125 HD
HETATM   27  H6  UNL     1      20.681  -0.622  51.598  1.00  0.00     0.125 HD
ENDBRANCH   5  25
BRANCH  11  28
HETATM   28  C16 UNL     1      27.803  -0.266  54.128  1.00  0.00     0.113 C 
HETATM   29  C17 UNL     1      29.059   0.591  54.175  1.00  0.00     0.057 C 
HETATM   30  C18 UNL     1      30.199  -0.130  53.492  1.00  0.00     0.271 C 
HETATM   31  N6  UNL     1      30.226  -1.534  53.856  1.00  0.00     0.083 N 
HETATM   32  C19 UNL     1      29.150  -2.187  53.178  1.00  0.00     0.271 C 
HETATM   33  H21 UNL     1      30.266  -1.718  54.861  1.00  0.00     0.315 HD
HETATM   34  C20 UNL     1      27.987  -1.275  53.001  1.00  0.00     0.057 C 
ENDBRANCH  11  28
TORSDOF 5
ENDMDL
MODEL 4
REMARK VINA RESULT:      -7.8      4.184      9.021
REMARK  5 active torsions:
REMARK  status: ('A' for Active; 'I' for Inactive)
REMARK    1  A    between atoms: C4_5  and  N2_6 
REMARK    2  A    between atoms: C5_7  and  O1_8 
REMARK    3  A    between atoms: O1_8  and  C6_9 
REMARK    4  A    between atoms: C6_9  and  C8_11 
REMARK    5  A    between atoms: N5_24  and  C16_25 
ROOT
HETATM    1  C1  UNL     1      25.235  -0.557  55.594  1.00  0.00     0.068 C 
HETATM    2  C2  UNL     1      25.401  -0.045  54.248  1.00  0.00     0.032 C 
HETATM    3  C3  UNL     1      24.130  -0.256  53.792  1.00  0.00     0.187 C 
HETATM    4  N1  UNL     1      22.952  -0.329  53.006  1.00  0.00    -0.262 NA
HETATM    5  C4  UNL     1      22.423   0.737  52.412  1.00  0.00     0.127 C 
HETATM    6  C5  UNL     1      22.405   2.190  52.046  1.00  0.00     0.112 C 
HETATM    7  C14 UNL     1      23.517   2.425  52.664  1.00  0.00     0.172 C 
HETATM    8  N3  UNL     1      24.478   3.352  53.018  1.00  0.00    -0.370 N 
HETATM    9  C15 UNL     1      25.218   2.445  53.865  1.00  0.00     0.225 C 
HETATM   10  N4  UNL     1      25.874   1.552  53.255  1.00  0.00    -0.168 NA
HETATM   11  N5  UNL     1      26.668   0.539  53.764  1.00  0.00    -0.270 N 
HETATM   12  H14 UNL     1      25.204   4.043  53.291  1.00  0.00     0.161 HD
ENDROOT
BRANCH   6  13
HETATM   13  O1  UNL     1      21.301   2.453  51.311  1.00  0.00    -0.340 OA
BRANCH  13  14
HETATM   14  C6  UNL     1      20.689   3.625  50.932  1.00  0.00     0.161 C 
HETATM   15  C7  UNL     1      19.198   3.400  50.696  1.00  0.00     0.045 C 
BRANCH  14  16
HETATM   16  C8  UNL     1      21.337   4.152  49.702  1.00  0.00     0.017 A 
HETATM   17  C9  UNL     1      21.804   5.442  49.575  1.00  0.00     0.044 A 
HETATM   18 CL1  UNL     1      21.650   6.546  50.951  1.00  0.00    -0.084 Cl
HETATM   19  C10 UNL     1      22.413   5.999  48.456  1.00  0.00     0.028 A 
HETATM   20  C11 UNL     1      22.525   5.092  47.398  1.00  0.00     0.046 A 
HETATM   21  C12 UNL     1      22.104   3.777  47.391  1.00  0.00     0.138 A 
HETATM   22  F1  UNL     1      22.277   3.017  46.295  1.00  0.00    -0.204 F 
HETATM   23  C13 UNL     1      21.522   3.390  48.575  1.00  0.00     0.083 A 
HETATM   24 CL2  UNL     1      20.958   1.729  48.645  1.00  0.00    -0.080 Cl
ENDBRANCH  14  16
ENDBRANCH  13  14
ENDBRANCH   6  13
BRANCH   5  25
HETATM   25  N2  UNL     1      21.513  -0.233  52.011  1.00  0.00    -0.285 NA
HETATM   26  H5  UNL     1      20.774  -0.934  51.924  1.00  0.00     0.125 HD
HETATM   27  H6  UNL     1      20.735  -0.926  52.045  1.00  0.00     0.125 HD
ENDBRANCH   5  25
BRANCH  11  28
HETATM   28  C16 UNL     1      27.781  -0.273  54.117  1.00  0.00     0.113 C 
HETATM   29  C17 UNL     1      29.031   0.592  54.166  1.00  0.00     0.057 C 
HETATM   30  C18 UNL     1      30.178  -0.122  53.484  1.00  0.00     0.271 C 
HETATM   31  N6  UNL     1      30.212  -1.526  53.847  1.00  0.00     0.083 N 
HETATM   32  C19 UNL     1      29.141  -2.185  53.168  1.00  0.00     0.271 C 
HETATM   33  H21 UNL     1      30.252  -1.709  54.853  1.00  0.00     0.315 HD
HETATM   34  C20 UNL     1      27.972  -1.280  52.990  1.00  0.00     0.057 C 
ENDBRANCH  11  28
TORSDOF 5
ENDMDL
MODEL 5
REMARK VINA RESULT:      -7.7      3.794      5.560
REMARK  5 active torsions:
REMARK  status: ('A' for Active; 'I' for Inactive)
REMARK    1  A    between atoms: C4_5  and  N2_6 
REMARK    2  A    between atoms: C5_7  and  O1_8 
REMARK    3  A    between atoms: O1_8  and  C6_9 
REMARK    4  A    between atoms: C6_9  and  C8_11 
REMARK    5  A    between atoms: N5_24  and  C16_25 
ROOT
HETATM    1  C1  UNL     1      23.894   8.887  49.706  1.00  0.00     0.068 C 
HETATM    2  C2  UNL     1      24.667   7.663  49.638  1.00  0.00     0.032 C 
HETATM    3  C3  UNL     1      24.229   7.081  50.794  1.00  0.00     0.187 C 
HETATM    4  N1  UNL     1      24.009   6.206  51.889  1.00  0.00    -0.262 NA
HETATM    5  C4  UNL     1      23.623   4.944  51.728  1.00  0.00     0.127 C 
HETATM    6  C5  UNL     1      23.262   3.755  50.891  1.00  0.00     0.112 C 
HETATM    7  C14 UNL     1      23.483   4.386  49.784  1.00  0.00     0.172 C 
HETATM    8  N3  UNL     1      23.497   4.344  48.403  1.00  0.00    -0.370 N 
HETATM    9  C15 UNL     1      23.792   5.750  48.241  1.00  0.00     0.225 C 
HETATM   10  N4  UNL     1      24.971   6.092  48.542  1.00  0.00    -0.168 NA
HETATM   11  N5  UNL     1      25.561   7.343  48.508  1.00  0.00    -0.270 N 
HETATM   12  H14 UNL     1      23.509   4.322  47.365  1.00  0.00     0.161 HD
ENDROOT
BRANCH   6  13
HETATM   13  O1  UNL     1      22.921   2.726  51.699  1.00  0.00    -0.340 OA
BRANCH  13  14
HETATM   14  C6  UNL     1      22.885   1.363  51.512  1.00  0.00     0.161 C 
HETATM   15  C7  UNL     1      22.001   1.008  50.320  1.00  0.00     0.045 C 
BRANCH  14  16
HETATM   16  C8  UNL     1      22.386   0.702  52.746  1.00  0.00     0.017 A 
HETATM   17  C9  UNL     1      21.114   0.876  53.247  1.00  0.00     0.044 A 
HETATM   18 CL1  UNL     1      19.989   1.928  52.374  1.00  0.00    -0.084 Cl
HETATM   19  C10 UNL     1      20.585   0.294  54.393  1.00  0.00     0.028 A 
HETATM   20  C11 UNL     1      21.501  -0.537  55.046  1.00  0.00     0.046 A 
HETATM   21  C12 UNL     1      22.799  -0.800  54.655  1.00  0.00     0.138 A 
HETATM   22  F1  UNL     1      23.571  -1.625  55.384  1.00  0.00    -0.204 F 
HETATM   23  C13 UNL     1      23.159  -0.143  53.502  1.00  0.00     0.083 A 
HETATM   24 CL2  UNL     1      24.798  -0.425  52.939  1.00  0.00    -0.080 Cl
ENDBRANCH  14  16
ENDBRANCH  13  14
ENDBRANCH   6  13
BRANCH   5  25
HETATM   25  N2  UNL     1      23.688   4.996  53.115  1.00  0.00    -0.285 NA
HETATM   26  H5  UNL     1      23.770   4.819  54.118  1.00  0.00     0.125 HD
HETATM   27  H6  UNL     1      23.791   4.694  54.107  1.00  0.00     0.125 HD
ENDBRANCH   5  25
BRANCH  11  28
HETATM   28  C16 UNL     1      26.379   8.455  48.162  1.00  0.00     0.113 C 
HETATM   29  C17 UNL     1      27.003   8.208  46.797  1.00  0.00     0.057 C 
HETATM   30  C18 UNL     1      28.465   8.594  46.823  1.00  0.00     0.271 C 
HETATM   31  N6  UNL     1      28.665   9.843  47.535  1.00  0.00     0.083 N 
HETATM   32  C19 UNL     1      28.508   9.587  48.931  1.00  0.00     0.271 C 
HETATM   33  H21 UNL     1      28.116  10.631  47.184  1.00  0.00     0.315 HD
HETATM   34  C20 UNL     1      27.515   8.505  49.176  1.00  0.00     0.057 C 
ENDBRANCH  11  28
TORSDOF 5
ENDMDL
MODEL 6
REMARK VINA RESULT:      -7.6      4.445      8.998
REMARK  5 active torsions:
REMARK  status: ('A' for Active; 'I' for Inactive)
REMARK    1  A    between atoms: C4_5  and  N2_6 
REMARK    2  A    between atoms: C5_7  and  O1_8 
REMARK    3  A    between atoms: O1_8  and  C6_9 
REMARK    4  A    between atoms: C6_9  and  C8_11 
REMARK    5  A    between atoms: N5_24  and  C16_25 
ROOT
HETATM    1  C1  UNL     1      22.762   0.730  52.193  1.00  0.00     0.068 C 
HETATM    2  C2  UNL     1      23.825   1.684  51.947  1.00  0.00     0.032 C 
HETATM    3  C3  UNL     1      23.346   2.228  50.789  1.00  0.00     0.187 C 
HETATM    4  N1  UNL     1      23.160   2.996  49.610  1.00  0.00    -0.262 NA
HETATM    5  C4  UNL     1      23.151   4.325  49.619  1.00  0.00     0.127 C 
HETATM    6  C5  UNL     1      23.272   5.657  50.295  1.00  0.00     0.112 C 
HETATM    7  C14 UNL     1      23.524   5.122  51.446  1.00  0.00     0.172 C 
HETATM    8  N3  UNL     1      23.806   5.318  52.784  1.00  0.00    -0.370 N 
HETATM    9  C15 UNL     1      23.751   3.915  53.128  1.00  0.00     0.225 C 
HETATM   10  N4  UNL     1      24.724   3.221  52.716  1.00  0.00    -0.168 NA
HETATM   11  N5  UNL     1      24.966   1.867  52.866  1.00  0.00    -0.270 N 
HETATM   12  H14 UNL     1      24.015   5.456  53.792  1.00  0.00     0.161 HD
ENDROOT
BRANCH   6  13
HETATM   13  O1  UNL     1      23.066   6.640  49.390  1.00  0.00    -0.340 OA
BRANCH  13  14
HETATM   14  C6  UNL     1      23.412   7.971  49.361  1.00  0.00     0.161 C 
HETATM   15  C7  UNL     1      22.170   8.845  49.215  1.00  0.00     0.045 C 
BRANCH  14  16
HETATM   16  C8  UNL     1      24.357   8.217  48.240  1.00  0.00     0.017 A 
HETATM   17  C9  UNL     1      24.094   7.883  46.929  1.00  0.00     0.044 A 
HETATM   18 CL1  UNL     1      22.539   7.133  46.534  1.00  0.00    -0.084 Cl
HETATM   19  C10 UNL     1      24.931   8.080  45.837  1.00  0.00     0.028 A 
HETATM   20  C11 UNL     1      26.142   8.683  46.190  1.00  0.00     0.046 A 
HETATM   21  C12 UNL     1      26.532   9.070  47.457  1.00  0.00     0.138 A 
HETATM   22  F1  UNL     1      27.733   9.642  47.651  1.00  0.00    -0.204 F 
HETATM   23  C13 UNL     1      25.586   8.801  48.419  1.00  0.00     0.083 A 
HETATM   24 CL2  UNL     1      26.008   9.262  50.059  1.00  0.00    -0.080 Cl
ENDBRANCH  14  16
ENDBRANCH  13  14
ENDBRANCH   6  13
BRANCH   5  25
HETATM   25  N2  UNL     1      22.941   4.097  48.265  1.00  0.00    -0.285 NA
HETATM   26  H5  UNL     1      22.877   4.127  47.245  1.00  0.00     0.125 HD
HETATM   27  H6  UNL     1      22.930   4.242  47.233  1.00  0.00     0.125 HD
ENDBRANCH   5  25
BRANCH  11  28
HETATM   28  C16 UNL     1      25.517   0.617  53.264  1.00  0.00     0.113 C 
HETATM   29  C17 UNL     1      26.429   0.834  54.461  1.00  0.00     0.057 C 
HETATM   30  C18 UNL     1      27.709   0.048  54.281  1.00  0.00     0.271 C 
HETATM   31  N6  UNL     1      27.441  -1.280  53.763  1.00  0.00     0.083 N 
HETATM   32  C19 UNL     1      27.095  -1.155  52.382  1.00  0.00     0.271 C 
HETATM   33  H21 UNL     1      26.782  -1.833  54.316  1.00  0.00     0.315 HD
HETATM   34  C20 UNL     1      26.388   0.128  52.114  1.00  0.00     0.057 C 
ENDBRANCH  11  28
TORSDOF 5
ENDMDL
MODEL 7
REMARK VINA RESULT:      -7.6      4.308      5.635
REMARK  5 active torsions:
REMARK  status: ('A' for Active; 'I' for Inactive)
REMARK    1  A    between atoms: C4_5  and  N2_6 
REMARK    2  A    between atoms: C5_7  and  O1_8 
REMARK    3  A    between atoms: O1_8  and  C6_9 
REMARK    4  A    between atoms: C6_9  and  C8_11 
REMARK    5  A    between atoms: N5_24  and  C16_25 
ROOT
HETATM    1  C1  UNL     1      29.344   7.250  48.357  1.00  0.00     0.068 C 
HETATM    2  C2  UNL     1      27.972   6.955  47.997  1.00  0.00     0.032 C 
HETATM    3  C3  UNL     1      27.904   5.679  48.481  1.00  0.00     0.187 C 
HETATM    4  N1  UNL     1      27.487   4.375  48.852  1.00  0.00    -0.262 NA
HETATM    5  C4  UNL     1      26.418   4.158  49.611  1.00  0.00     0.127 C 
HETATM    6  C5  UNL     1      25.218   4.607  50.388  1.00  0.00     0.112 C 
HETATM    7  C14 UNL     1      25.411   5.851  50.090  1.00  0.00     0.172 C 
HETATM    8  N3  UNL     1      24.982   7.158  50.216  1.00  0.00    -0.370 N 
HETATM    9  C15 UNL     1      26.120   7.727  49.530  1.00  0.00     0.225 C 
HETATM   10  N4  UNL     1      26.144   7.539  48.280  1.00  0.00    -0.168 NA
HETATM   11  N5  UNL     1      27.085   7.940  47.347  1.00  0.00    -0.270 N 
HETATM   12  H14 UNL     1      24.668   8.144  50.307  1.00  0.00     0.161 HD
ENDROOT
BRANCH   6  13
HETATM   13  O1  UNL     1      24.617   3.532  50.947  1.00  0.00    -0.340 OA
BRANCH  13  14
HETATM   14  C6  UNL     1      23.570   3.401  51.830  1.00  0.00     0.161 C 
HETATM   15  C7  UNL     1      23.689   4.423  52.957  1.00  0.00     0.045 C 
BRANCH  14  16
HETATM   16  C8  UNL     1      23.550   2.020  52.380  1.00  0.00     0.017 A 
HETATM   17  C9  UNL     1      24.657   1.387  52.901  1.00  0.00     0.044 A 
HETATM   18 CL1  UNL     1      26.198   2.259  52.946  1.00  0.00    -0.084 Cl
HETATM   19  C10 UNL     1      24.710   0.101  53.425  1.00  0.00     0.028 A 
HETATM   20  C11 UNL     1      23.472  -0.549  53.381  1.00  0.00     0.046 A 
HETATM   21  C12 UNL     1      22.289  -0.034  52.890  1.00  0.00     0.138 A 
HETATM   22  F1  UNL     1      21.168  -0.776  52.910  1.00  0.00    -0.204 F 
HETATM   23  C13 UNL     1      22.415   1.248  52.410  1.00  0.00     0.083 A 
HETATM   24 CL2  UNL     1      20.953   1.974  51.765  1.00  0.00    -0.080 Cl
ENDBRANCH  14  16
ENDBRANCH  13  14
ENDBRANCH   6  13
BRANCH   5  25
HETATM   25  N2  UNL     1      26.833   2.848  49.408  1.00  0.00    -0.285 NA
HETATM   26  H5  UNL     1      26.941   1.861  49.164  1.00  0.00     0.125 HD
HETATM   27  H6  UNL     1      26.827   1.849  49.109  1.00  0.00     0.125 HD
ENDBRANCH   5  25
BRANCH  11  28
HETATM   28  C16 UNL     1      27.741   8.597  46.269  1.00  0.00     0.113 C 
HETATM   29  C17 UNL     1      27.909  10.069  46.612  1.00  0.00     0.057 C 
HETATM   30  C18 UNL     1      27.551  10.921  45.414  1.00  0.00     0.271 C 
HETATM   31  N6  UNL     1      28.094  10.360  44.191  1.00  0.00     0.083 N 
HETATM   32  C19 UNL     1      27.318   9.209  43.850  1.00  0.00     0.271 C 
HETATM   33  H21 UNL     1      29.104  10.202  44.201  1.00  0.00     0.315 HD
HETATM   34  C20 UNL     1      26.810   8.517  45.065  1.00  0.00     0.057 C 
ENDBRANCH  11  28
TORSDOF 5
ENDMDL
MODEL 8
REMARK VINA RESULT:      -7.5      5.931      9.893
REMARK  5 active torsions:
REMARK  status: ('A' for Active; 'I' for Inactive)
REMARK    1  A    between atoms: C4_5  and  N2_6 
REMARK    2  A    between atoms: C5_7  and  O1_8 
REMARK    3  A    between atoms: O1_8  and  C6_9 
REMARK    4  A    between atoms: C6_9  and  C8_11 
REMARK    5  A    between atoms: N5_24  and  C16_25 
ROOT
HETATM    1  C1  UNL     1      23.659   3.674  52.594  1.00  0.00     0.068 C 
HETATM    2  C2  UNL     1      22.842   2.508  52.320  1.00  0.00     0.032 C 
HETATM    3  C3  UNL     1      21.616   3.110  52.338  1.00  0.00     0.187 C 
HETATM    4  N1  UNL     1      20.226   3.388  52.286  1.00  0.00    -0.262 NA
HETATM    5  C4  UNL     1      19.476   3.082  51.231  1.00  0.00     0.127 C 
HETATM    6  C5  UNL     1      19.263   2.492  49.870  1.00  0.00     0.112 C 
HETATM    7  C14 UNL     1      20.493   2.104  49.776  1.00  0.00     0.172 C 
HETATM    8  N3  UNL     1      21.459   1.471  49.017  1.00  0.00    -0.370 N 
HETATM    9  C15 UNL     1      22.543   1.770  49.924  1.00  0.00     0.225 C 
HETATM   10  N4  UNL     1      22.536   1.116  51.006  1.00  0.00    -0.168 NA
HETATM   11  N5  UNL     1      23.415   1.170  52.074  1.00  0.00    -0.270 N 
HETATM   12  H14 UNL     1      22.191   0.998  48.453  1.00  0.00     0.161 HD
ENDROOT
BRANCH   6  13
HETATM   13  O1  UNL     1      17.975   2.674  49.500  1.00  0.00    -0.340 OA
BRANCH  13  14
HETATM   14  C6  UNL     1      16.912   1.811  49.361  1.00  0.00     0.161 C 
HETATM   15  C7  UNL     1      16.164   2.086  48.060  1.00  0.00     0.045 C 
BRANCH  14  16
HETATM   16  C8  UNL     1      16.000   1.950  50.527  1.00  0.00     0.017 A 
HETATM   17  C9  UNL     1      15.249   3.077  50.781  1.00  0.00     0.044 A 
HETATM   18 CL1  UNL     1      15.349   4.442  49.657  1.00  0.00    -0.084 Cl
HETATM   19  C10 UNL     1      14.383   3.275  51.850  1.00  0.00     0.028 A 
HETATM   20  C11 UNL     1      14.325   2.172  52.707  1.00  0.00     0.046 A 
HETATM   21  C12 UNL     1      15.018   0.985  52.570  1.00  0.00     0.138 A 
HETATM   22  F1  UNL     1      14.865   0.003  53.476  1.00  0.00    -0.204 F 
HETATM   23  C13 UNL     1      15.830   0.958  51.460  1.00  0.00     0.083 A 
HETATM   24 CL2  UNL     1      16.748  -0.518  51.216  1.00  0.00    -0.080 Cl
ENDBRANCH  14  16
ENDBRANCH  13  14
ENDBRANCH   6  13
BRANCH   5  25
HETATM   25  N2  UNL     1      18.511   3.659  52.047  1.00  0.00    -0.285 NA
HETATM   26  H5  UNL     1      17.768   3.878  52.715  1.00  0.00     0.125 HD
HETATM   27  H6  UNL     1      17.751   3.758  52.753  1.00  0.00     0.125 HD
ENDBRANCH   5  25
BRANCH  11  28
HETATM   28  C16 UNL     1      24.416   0.849  53.033  1.00  0.00     0.113 C 
HETATM   29  C17 UNL     1      25.702   0.488  52.307  1.00  0.00     0.057 C 
HETATM   30  C18 UNL     1      26.320  -0.741  52.936  1.00  0.00     0.271 C 
HETATM   31  N6  UNL     1      26.259  -0.676  54.384  1.00  0.00     0.083 N 
HETATM   32  C19 UNL     1      24.907  -0.914  54.781  1.00  0.00     0.271 C 
HETATM   33  H21 UNL     1      26.680   0.160  54.796  1.00  0.00     0.315 HD
HETATM   34  C20 UNL     1      23.945  -0.399  53.768  1.00  0.00     0.057 C 
ENDBRANCH  11  28
TORSDOF 5
ENDMDL
MODEL 9
REMARK VINA RESULT:      -7.4      5.064      7.217
REMARK  5 active torsions:
REMARK  status: ('A' for Active; 'I' for Inactive)
REMARK    1  A    between atoms: C4_5  and  N2_6 
REMARK    2  A    between atoms: C5_7  and  O1_8 
REMARK    3  A    between atoms: O1_8  and  C6_9 
REMARK    4  A    between atoms: C6_9  and  C8_11 
REMARK    5  A    between atoms: N5_24  and  C16_25 
ROOT
HETATM    1  C1  UNL     1      27.096   9.132  45.991  1.00  0.00     0.068 C 
HETATM    2  C2  UNL     1      27.326   8.828  47.390  1.00  0.00     0.032 C 
HETATM    3  C3  UNL     1      26.135   8.217  47.664  1.00  0.00     0.187 C 
HETATM    4  N1  UNL     1      25.048   7.553  48.288  1.00  0.00    -0.262 NA
HETATM    5  C4  UNL     1      25.187   6.387  48.910  1.00  0.00     0.127 C 
HETATM    6  C5  UNL     1      25.994   5.226  49.407  1.00  0.00     0.112 C 
HETATM    7  C14 UNL     1      27.101   5.721  48.957  1.00  0.00     0.172 C 
HETATM    8  N3  UNL     1      28.467   5.576  48.813  1.00  0.00    -0.370 N 
HETATM    9  C15 UNL     1      28.629   6.747  47.982  1.00  0.00     0.225 C 
HETATM   10  N4  UNL     1      28.507   7.854  48.580  1.00  0.00    -0.168 NA
HETATM   11  N5  UNL     1      28.594   9.141  48.079  1.00  0.00    -0.270 N 
HETATM   12  H14 UNL     1      29.494   5.473  48.698  1.00  0.00     0.161 HD
ENDROOT
BRANCH   6  13
HETATM   13  O1  UNL     1      25.176   4.343  50.022  1.00  0.00    -0.340 OA
BRANCH  13  14
HETATM   14  C6  UNL     1      25.412   3.290  50.876  1.00  0.00     0.161 C 
HETATM   15  C7  UNL     1      26.472   2.357  50.299  1.00  0.00     0.045 C 
BRANCH  14  16
HETATM   16  C8  UNL     1      24.145   2.551  51.120  1.00  0.00     0.017 A 
HETATM   17  C9  UNL     1      23.183   2.342  50.156  1.00  0.00     0.044 A 
HETATM   18 CL1  UNL     1      23.461   2.965  48.522  1.00  0.00    -0.084 Cl
HETATM   19  C10 UNL     1      21.978   1.667  50.317  1.00  0.00     0.028 A 
HETATM   20  C11 UNL     1      21.803   1.182  51.617  1.00  0.00     0.046 A 
HETATM   21  C12 UNL     1      22.682   1.318  52.673  1.00  0.00     0.138 A 
HETATM   22  F1  UNL     1      22.381   0.798  53.876  1.00  0.00    -0.204 F 
HETATM   23  C13 UNL     1      23.821   2.013  52.341  1.00  0.00     0.083 A 
HETATM   24 CL2  UNL     1      24.991   2.230  53.632  1.00  0.00    -0.080 Cl
ENDBRANCH  14  16
ENDBRANCH  13  14
ENDBRANCH   6  13
BRANCH   5  25
HETATM   25  N2  UNL     1      23.827   6.596  49.102  1.00  0.00    -0.285 NA
HETATM   26  H5  UNL     1      22.888   6.955  49.289  1.00  0.00     0.125 HD
HETATM   27  H6  UNL     1      22.926   7.074  49.315  1.00  0.00     0.125 HD
ENDBRANCH   5  25
BRANCH  11  28
HETATM   28  C16 UNL     1      29.028  10.465  47.792  1.00  0.00     0.113 C 
HETATM   29  C17 UNL     1      30.536  10.544  47.972  1.00  0.00     0.057 C 
HETATM   30  C18 UNL     1      30.899  11.807  48.719  1.00  0.00     0.271 C 
HETATM   31  N6  UNL     1      30.132  12.941  48.237  1.00  0.00     0.083 N 
HETATM   32  C19 UNL     1      28.794  12.807  48.720  1.00  0.00     0.271 C 
HETATM   33  H21 UNL     1      30.204  13.113  47.231  1.00  0.00     0.315 HD
HETATM   34  C20 UNL     1      28.399  11.377  48.837  1.00  0.00     0.057 C 
ENDBRANCH  11  28
TORSDOF 5
ENDMDL
