MODEL 1
REMARK VINA RESULT:      -8.6      0.000      0.000
REMARK  4 active torsions:
REMARK  status: ('A' for Active; 'I' for Inactive)
REMARK    1  A    between atoms: C1_2  and  C2_3 
REMARK    2  A    between atoms: C2_3  and  N1_4 
REMARK    3  A    between atoms: C2_3  and  C13_18 
REMARK    4  A    between atoms: N1_4  and  C3_5 
ROOT
HETATM    1  C3  UNL     1      24.841   1.925  51.579  1.00  0.00     0.139 A 
HETATM    2  N2  UNL     1      25.169   2.984  50.848  1.00  0.00    -0.224 NA
HETATM    3  C4  UNL     1      24.452   4.034  50.543  1.00  0.00     0.236 A 
HETATM    4  N3  UNL     1      23.235   4.008  51.051  1.00  0.00    -0.234 NA
HETATM    5  C5  UNL     1      22.790   2.986  51.808  1.00  0.00     0.114 A 
HETATM    6  S1  UNL     1      21.206   2.595  52.677  1.00  0.00    -0.073 SA
HETATM    7  C6  UNL     1      21.748   0.980  53.371  1.00  0.00    -0.008 A 
HETATM    8  C7  UNL     1      23.072   0.860  52.899  1.00  0.00    -0.028 A 
HETATM    9  C8  UNL     1      23.588   1.855  52.125  1.00  0.00     0.053 A 
HETATM   10  C9  UNL     1      23.428  -0.447  53.476  1.00  0.00     0.041 C 
HETATM   11  C10 UNL     1      22.275  -1.446  53.321  1.00  0.00     0.005 C 
HETATM   12  C11 UNL     1      21.292  -1.135  54.431  1.00  0.00     0.005 C 
HETATM   13  C12 UNL     1      20.814   0.269  54.159  1.00  0.00     0.047 C 
ENDROOT
BRANCH   1  14
HETATM   14  N1  UNL     1      25.874   0.954  51.737  1.00  0.00    -0.359 N 
HETATM   15  H3  UNL     1      26.257   0.161  51.211  1.00  0.00     0.162 HD
BRANCH  14  16
HETATM   16  C2  UNL     1      26.705   0.950  52.919  1.00  0.00     0.178 C 
BRANCH  16  17
HETATM   17  C1  UNL     1      27.400   2.253  53.113  1.00  0.00     0.261 C 
HETATM   18  O1  UNL     1      27.681   2.768  54.199  1.00  0.00    -0.304 OA
ENDBRANCH  16  17
BRANCH  16  19
HETATM   19  C13 UNL     1      27.559  -0.225  53.042  1.00  0.00    -0.029 A 
HETATM   20  C14 UNL     1      26.970  -1.421  52.687  1.00  0.00     0.009 A 
HETATM   21  C15 UNL     1      27.662  -2.610  52.754  1.00  0.00     0.001 A 
HETATM   22  C16 UNL     1      28.968  -2.621  53.183  1.00  0.00     0.000 A 
HETATM   23  C17 UNL     1      29.570  -1.441  53.540  1.00  0.00     0.001 A 
HETATM   24  C18 UNL     1      28.871  -0.256  53.470  1.00  0.00     0.009 A 
ENDBRANCH  16  19
ENDBRANCH  14  16
ENDBRANCH   1  14
TORSDOF 4
ENDMDL
MODEL 2
REMARK VINA RESULT:      -8.4      2.382      3.642
REMARK  4 active torsions:
REMARK  status: ('A' for Active; 'I' for Inactive)
REMARK    1  A    between atoms: C1_2  and  C2_3 
REMARK    2  A    between atoms: C2_3  and  N1_4 
REMARK    3  A    between atoms: C2_3  and  C13_18 
REMARK    4  A    between atoms: N1_4  and  C3_5 
ROOT
HETATM    1  C3  UNL     1      23.690  -0.393  53.561  1.00  0.00     0.139 A 
HETATM    2  N2  UNL     1      23.948  -0.993  54.717  1.00  0.00    -0.224 NA
HETATM    3  C4  UNL     1      23.118  -1.506  55.587  1.00  0.00     0.236 A 
HETATM    4  N3  UNL     1      21.851  -1.395  55.238  1.00  0.00    -0.234 NA
HETATM    5  C5  UNL     1      21.468  -0.805  54.088  1.00  0.00     0.114 A 
HETATM    6  S1  UNL     1      19.846  -0.470  53.268  1.00  0.00    -0.073 SA
HETATM    7  C6  UNL     1      20.539   0.364  51.781  1.00  0.00    -0.008 A 
HETATM    8  C7  UNL     1      21.929   0.325  52.015  1.00  0.00    -0.028 A 
HETATM    9  C8  UNL     1      22.389  -0.255  53.158  1.00  0.00     0.053 A 
HETATM   10  C9  UNL     1      22.408   1.015  50.805  1.00  0.00     0.041 C 
HETATM   11  C10 UNL     1      21.535   2.236  50.491  1.00  0.00     0.005 C 
HETATM   12  C11 UNL     1      20.298   1.707  49.795  1.00  0.00     0.005 C 
HETATM   13  C12 UNL     1      19.619   0.820  50.809  1.00  0.00     0.047 C 
ENDROOT
BRANCH   1  14
HETATM   14  N1  UNL     1      24.838   0.039  52.832  1.00  0.00    -0.359 N 
HETATM   15  H3  UNL     1      25.254  -0.119  51.908  1.00  0.00     0.162 HD
BRANCH  14  16
HETATM   16  C2  UNL     1      25.782   0.958  53.425  1.00  0.00     0.178 C 
BRANCH  16  17
HETATM   17  C1  UNL     1      25.642   2.332  52.870  1.00  0.00     0.261 C 
HETATM   18  O1  UNL     1      24.601   2.994  52.832  1.00  0.00    -0.304 OA
ENDBRANCH  16  17
BRANCH  16  19
HETATM   19  C13 UNL     1      27.150   0.454  53.477  1.00  0.00    -0.029 A 
HETATM   20  C14 UNL     1      27.306  -0.866  53.103  1.00  0.00     0.009 A 
HETATM   21  C15 UNL     1      28.543  -1.470  53.105  1.00  0.00     0.001 A 
HETATM   22  C16 UNL     1      29.655  -0.758  53.485  1.00  0.00     0.000 A 
HETATM   23  C17 UNL     1      29.519   0.556  53.860  1.00  0.00     0.001 A 
HETATM   24  C18 UNL     1      28.278   1.153  53.856  1.00  0.00     0.009 A 
ENDBRANCH  16  19
ENDBRANCH  14  16
ENDBRANCH   1  14
TORSDOF 4
ENDMDL
MODEL 3
REMARK VINA RESULT:      -8.3      2.396      5.047
REMARK  4 active torsions:
REMARK  status: ('A' for Active; 'I' for Inactive)
REMARK    1  A    between atoms: C1_2  and  C2_3 
REMARK    2  A    between atoms: C2_3  and  N1_4 
REMARK    3  A    between atoms: C2_3  and  C13_18 
REMARK    4  A    between atoms: N1_4  and  C3_5 
ROOT
HETATM    1  C3  UNL     1      25.455   1.020  52.543  1.00  0.00     0.139 A 
HETATM    2  N2  UNL     1      26.756   1.171  52.761  1.00  0.00    -0.224 NA
HETATM    3  C4  UNL     1      27.501   0.659  53.705  1.00  0.00     0.236 A 
HETATM    4  N3  UNL     1      26.837  -0.114  54.543  1.00  0.00    -0.234 NA
HETATM    5  C5  UNL     1      25.514  -0.341  54.421  1.00  0.00     0.114 A 
HETATM    6  S1  UNL     1      24.266  -1.331  55.357  1.00  0.00    -0.073 SA
HETATM    7  C6  UNL     1      22.826  -0.899  54.297  1.00  0.00    -0.008 A 
HETATM    8  C7  UNL     1      23.393  -0.048  53.325  1.00  0.00    -0.028 A 
HETATM    9  C8  UNL     1      24.725   0.227  53.387  1.00  0.00     0.053 A 
HETATM   10  C9  UNL     1      22.191   0.263  52.532  1.00  0.00     0.041 C 
HETATM   11  C10 UNL     1      20.990   0.537  53.445  1.00  0.00     0.005 C 
HETATM   12  C11 UNL     1      20.458  -0.817  53.865  1.00  0.00     0.005 C 
HETATM   13  C12 UNL     1      21.576  -1.461  54.644  1.00  0.00     0.047 C 
ENDROOT
BRANCH   1  14
HETATM   14  N1  UNL     1      24.948   1.707  51.399  1.00  0.00    -0.359 N 
HETATM   15  H3  UNL     1      24.670   1.480  50.439  1.00  0.00     0.162 HD
BRANCH  14  16
HETATM   16  C2  UNL     1      24.706   3.131  51.446  1.00  0.00     0.178 C 
BRANCH  16  17
HETATM   17  C1  UNL     1      23.251   3.447  51.452  1.00  0.00     0.261 C 
HETATM   18  O1  UNL     1      22.593   3.805  52.433  1.00  0.00    -0.304 OA
ENDBRANCH  16  17
BRANCH  16  19
HETATM   19  C13 UNL     1      25.497   3.900  50.492  1.00  0.00    -0.029 A 
HETATM   20  C14 UNL     1      25.062   5.192  50.272  1.00  0.00     0.009 A 
HETATM   21  C15 UNL     1      25.716   6.029  49.397  1.00  0.00     0.001 A 
HETATM   22  C16 UNL     1      26.825   5.584  48.719  1.00  0.00     0.000 A 
HETATM   23  C17 UNL     1      27.272   4.302  48.925  1.00  0.00     0.001 A 
HETATM   24  C18 UNL     1      26.612   3.471  49.803  1.00  0.00     0.009 A 
ENDBRANCH  16  19
ENDBRANCH  14  16
ENDBRANCH   1  14
TORSDOF 4
ENDMDL
MODEL 4
REMARK VINA RESULT:      -8.2      1.687      2.033
REMARK  4 active torsions:
REMARK  status: ('A' for Active; 'I' for Inactive)
REMARK    1  A    between atoms: C1_2  and  C2_3 
REMARK    2  A    between atoms: C2_3  and  N1_4 
REMARK    3  A    between atoms: C2_3  and  C13_18 
REMARK    4  A    between atoms: N1_4  and  C3_5 
ROOT
HETATM    1  C3  UNL     1      24.633   1.713  52.394  1.00  0.00     0.139 A 
HETATM    2  N2  UNL     1      25.492   2.373  51.626  1.00  0.00    -0.224 NA
HETATM    3  C4  UNL     1      25.295   2.946  50.467  1.00  0.00     0.236 A 
HETATM    4  N3  UNL     1      24.057   2.835  50.027  1.00  0.00    -0.234 NA
HETATM    5  C5  UNL     1      23.099   2.187  50.719  1.00  0.00     0.114 A 
HETATM    6  S1  UNL     1      21.306   1.831  50.451  1.00  0.00    -0.073 SA
HETATM    7  C6  UNL     1      21.045   0.905  52.019  1.00  0.00    -0.008 A 
HETATM    8  C7  UNL     1      22.320   0.936  52.621  1.00  0.00    -0.028 A 
HETATM    9  C8  UNL     1      23.337   1.572  51.977  1.00  0.00     0.053 A 
HETATM   10  C9  UNL     1      22.038   0.172  53.848  1.00  0.00     0.041 C 
HETATM   11  C10 UNL     1      21.166  -1.051  53.542  1.00  0.00     0.005 C 
HETATM   12  C11 UNL     1      19.743  -0.543  53.438  1.00  0.00     0.005 C 
HETATM   13  C12 UNL     1      19.744   0.409  52.268  1.00  0.00     0.047 C 
ENDROOT
BRANCH   1  14
HETATM   14  N1  UNL     1      25.171   1.224  53.622  1.00  0.00    -0.359 N 
HETATM   15  H3  UNL     1      25.290   1.558  54.585  1.00  0.00     0.162 HD
BRANCH  14  16
HETATM   16  C2  UNL     1      25.749  -0.098  53.697  1.00  0.00     0.178 C 
BRANCH  16  17
HETATM   17  C1  UNL     1      25.128  -0.916  54.775  1.00  0.00     0.261 C 
HETATM   18  O1  UNL     1      25.482  -0.943  55.957  1.00  0.00    -0.304 OA
ENDBRANCH  16  17
BRANCH  16  19
HETATM   19  C13 UNL     1      27.207  -0.111  53.680  1.00  0.00    -0.029 A 
HETATM   20  C14 UNL     1      27.781  -1.283  53.231  1.00  0.00     0.009 A 
HETATM   21  C15 UNL     1      29.149  -1.432  53.163  1.00  0.00     0.001 A 
HETATM   22  C16 UNL     1      29.972  -0.401  53.548  1.00  0.00     0.000 A 
HETATM   23  C17 UNL     1      29.419   0.772  53.999  1.00  0.00     0.001 A 
HETATM   24  C18 UNL     1      28.050   0.913  54.064  1.00  0.00     0.009 A 
ENDBRANCH  16  19
ENDBRANCH  14  16
ENDBRANCH   1  14
TORSDOF 4
ENDMDL
MODEL 5
REMARK VINA RESULT:      -8.1      3.051      6.195
REMARK  4 active torsions:
REMARK  status: ('A' for Active; 'I' for Inactive)
REMARK    1  A    between atoms: C1_2  and  C2_3 
REMARK    2  A    between atoms: C2_3  and  N1_4 
REMARK    3  A    between atoms: C2_3  and  C13_18 
REMARK    4  A    between atoms: N1_4  and  C3_5 
ROOT
HETATM    1  C3  UNL     1      22.132  -0.069  52.947  1.00  0.00     0.139 A 
HETATM    2  N2  UNL     1      21.011  -0.632  53.383  1.00  0.00    -0.224 NA
HETATM    3  C4  UNL     1      20.821  -1.404  54.421  1.00  0.00     0.236 A 
HETATM    4  N3  UNL     1      21.919  -1.636  55.114  1.00  0.00    -0.234 NA
HETATM    5  C5  UNL     1      23.115  -1.118  54.768  1.00  0.00     0.114 A 
HETATM    6  S1  UNL     1      24.826  -1.203  55.461  1.00  0.00    -0.073 SA
HETATM    7  C6  UNL     1      25.613  -0.131  54.189  1.00  0.00    -0.008 A 
HETATM    8  C7  UNL     1      24.533   0.207  53.347  1.00  0.00    -0.028 A 
HETATM    9  C8  UNL     1      23.296  -0.282  53.634  1.00  0.00     0.053 A 
HETATM   10  C9  UNL     1      25.237   1.042  52.359  1.00  0.00     0.041 C 
HETATM   11  C10 UNL     1      26.581   0.415  51.969  1.00  0.00     0.005 C 
HETATM   12  C11 UNL     1      27.552   0.768  53.076  1.00  0.00     0.005 C 
HETATM   13  C12 UNL     1      27.001   0.108  54.316  1.00  0.00     0.047 C 
ENDROOT
BRANCH   1  14
HETATM   14  N1  UNL     1      21.989   0.743  51.781  1.00  0.00    -0.359 N 
HETATM   15  H3  UNL     1      22.009   0.619  50.764  1.00  0.00     0.162 HD
BRANCH  14  16
HETATM   16  C2  UNL     1      21.745   2.162  51.900  1.00  0.00     0.178 C 
BRANCH  16  17
HETATM   17  C1  UNL     1      20.299   2.489  51.767  1.00  0.00     0.261 C 
HETATM   18  O1  UNL     1      19.690   3.350  52.411  1.00  0.00    -0.304 OA
ENDBRANCH  16  17
BRANCH  16  19
HETATM   19  C13 UNL     1      22.637   2.987  51.094  1.00  0.00    -0.029 A 
HETATM   20  C14 UNL     1      22.869   2.527  49.813  1.00  0.00     0.009 A 
HETATM   21  C15 UNL     1      23.691   3.209  48.944  1.00  0.00     0.001 A 
HETATM   22  C16 UNL     1      24.301   4.373  49.345  1.00  0.00     0.000 A 
HETATM   23  C17 UNL     1      24.082   4.846  50.616  1.00  0.00     0.001 A 
HETATM   24  C18 UNL     1      23.258   4.158  51.479  1.00  0.00     0.009 A 
ENDBRANCH  16  19
ENDBRANCH  14  16
ENDBRANCH   1  14
TORSDOF 4
ENDMDL
MODEL 6
REMARK VINA RESULT:      -8.1      2.541      4.874
REMARK  4 active torsions:
REMARK  status: ('A' for Active; 'I' for Inactive)
REMARK    1  A    between atoms: C1_2  and  C2_3 
REMARK    2  A    between atoms: C2_3  and  N1_4 
REMARK    3  A    between atoms: C2_3  and  C13_18 
REMARK    4  A    between atoms: N1_4  and  C3_5 
ROOT
HETATM    1  C3  UNL     1      24.310  -0.314  53.453  1.00  0.00     0.139 A 
HETATM    2  N2  UNL     1      24.893  -0.800  54.542  1.00  0.00    -0.224 NA
HETATM    3  C4  UNL     1      24.348  -1.329  55.607  1.00  0.00     0.236 A 
HETATM    4  N3  UNL     1      23.031  -1.372  55.560  1.00  0.00    -0.234 NA
HETATM    5  C5  UNL     1      22.330  -0.908  54.506  1.00  0.00     0.114 A 
HETATM    6  S1  UNL     1      20.536  -0.799  54.074  1.00  0.00    -0.073 SA
HETATM    7  C6  UNL     1      20.771  -0.010  52.429  1.00  0.00    -0.008 A 
HETATM    8  C7  UNL     1      22.173   0.108  52.331  1.00  0.00    -0.028 A 
HETATM    9  C8  UNL     1      22.945  -0.338  53.360  1.00  0.00     0.053 A 
HETATM   10  C9  UNL     1      22.280   0.753  51.011  1.00  0.00     0.041 C 
HETATM   11  C10 UNL     1      21.224   1.854  50.853  1.00  0.00     0.005 C 
HETATM   12  C11 UNL     1      19.930   1.153  50.494  1.00  0.00     0.005 C 
HETATM   13  C12 UNL     1      19.607   0.279  51.679  1.00  0.00     0.047 C 
ENDROOT
BRANCH   1  14
HETATM   14  N1  UNL     1      25.204   0.176  52.454  1.00  0.00    -0.359 N 
HETATM   15  H3  UNL     1      25.574  -0.133  51.549  1.00  0.00     0.162 HD
BRANCH  14  16
HETATM   16  C2  UNL     1      25.857   1.455  52.617  1.00  0.00     0.178 C 
BRANCH  16  17
HETATM   17  C1  UNL     1      26.533   1.570  53.938  1.00  0.00     0.261 C 
HETATM   18  O1  UNL     1      27.430   2.368  54.224  1.00  0.00    -0.304 OA
ENDBRANCH  16  17
BRANCH  16  19
HETATM   19  C13 UNL     1      25.025   2.596  52.252  1.00  0.00    -0.029 A 
HETATM   20  C14 UNL     1      25.138   3.012  50.941  1.00  0.00     0.009 A 
HETATM   21  C15 UNL     1      24.410   4.078  50.461  1.00  0.00     0.001 A 
HETATM   22  C16 UNL     1      23.550   4.753  51.294  1.00  0.00     0.000 A 
HETATM   23  C17 UNL     1      23.425   4.354  52.602  1.00  0.00     0.001 A 
HETATM   24  C18 UNL     1      24.157   3.286  53.074  1.00  0.00     0.009 A 
ENDBRANCH  16  19
ENDBRANCH  14  16
ENDBRANCH   1  14
TORSDOF 4
ENDMDL
MODEL 7
REMARK VINA RESULT:      -8.1      2.692      5.620
REMARK  4 active torsions:
REMARK  status: ('A' for Active; 'I' for Inactive)
REMARK    1  A    between atoms: C1_2  and  C2_3 
REMARK    2  A    between atoms: C2_3  and  N1_4 
REMARK    3  A    between atoms: C2_3  and  C13_18 
REMARK    4  A    between atoms: N1_4  and  C3_5 
ROOT
HETATM    1  C3  UNL     1      22.694   2.925  51.965  1.00  0.00     0.139 A 
HETATM    2  N2  UNL     1      21.401   3.228  51.956  1.00  0.00    -0.224 NA
HETATM    3  C4  UNL     1      20.391   2.556  52.442  1.00  0.00     0.236 A 
HETATM    4  N3  UNL     1      20.738   1.423  53.019  1.00  0.00    -0.234 NA
HETATM    5  C5  UNL     1      22.020   1.010  53.089  1.00  0.00     0.114 A 
HETATM    6  S1  UNL     1      22.883  -0.464  53.794  1.00  0.00    -0.073 SA
HETATM    7  C6  UNL     1      24.583   0.047  53.312  1.00  0.00    -0.008 A 
HETATM    8  C7  UNL     1      24.372   1.280  52.661  1.00  0.00    -0.028 A 
HETATM    9  C8  UNL     1      23.101   1.758  52.552  1.00  0.00     0.053 A 
HETATM   10  C9  UNL     1      25.759   1.614  52.296  1.00  0.00     0.041 C 
HETATM   11  C10 UNL     1      26.496   0.378  51.765  1.00  0.00     0.005 C 
HETATM   12  C11 UNL     1      26.924  -0.417  52.981  1.00  0.00     0.005 C 
HETATM   13  C12 UNL     1      25.643  -0.821  53.664  1.00  0.00     0.047 C 
ENDROOT
BRANCH   1  14
HETATM   14  N1  UNL     1      23.548   3.895  51.360  1.00  0.00    -0.359 N 
HETATM   15  H3  UNL     1      24.197   4.629  51.662  1.00  0.00     0.162 HD
BRANCH  14  16
HETATM   16  C2  UNL     1      23.635   4.002  49.921  1.00  0.00     0.178 C 
BRANCH  16  17
HETATM   17  C1  UNL     1      23.285   2.721  49.247  1.00  0.00     0.261 C 
HETATM   18  O1  UNL     1      22.540   2.598  48.271  1.00  0.00    -0.304 OA
ENDBRANCH  16  17
BRANCH  16  19
HETATM   19  C13 UNL     1      24.862   4.630  49.445  1.00  0.00    -0.029 A 
HETATM   20  C14 UNL     1      25.981   3.823  49.460  1.00  0.00     0.009 A 
HETATM   21  C15 UNL     1      27.206   4.288  49.037  1.00  0.00     0.001 A 
HETATM   22  C16 UNL     1      27.333   5.581  48.588  1.00  0.00     0.000 A 
HETATM   23  C17 UNL     1      26.230   6.398  48.566  1.00  0.00     0.001 A 
HETATM   24  C18 UNL     1      25.008   5.925  48.991  1.00  0.00     0.009 A 
ENDBRANCH  16  19
ENDBRANCH  14  16
ENDBRANCH   1  14
TORSDOF 4
ENDMDL
MODEL 8
REMARK VINA RESULT:      -7.9      2.544      5.733
REMARK  4 active torsions:
REMARK  status: ('A' for Active; 'I' for Inactive)
REMARK    1  A    between atoms: C1_2  and  C2_3 
REMARK    2  A    between atoms: C2_3  and  N1_4 
REMARK    3  A    between atoms: C2_3  and  C13_18 
REMARK    4  A    between atoms: N1_4  and  C3_5 
ROOT
HETATM    1  C3  UNL     1      23.798   1.349  51.680  1.00  0.00     0.139 A 
HETATM    2  N2  UNL     1      22.533   1.010  51.464  1.00  0.00    -0.224 NA
HETATM    3  C4  UNL     1      21.778   0.167  52.119  1.00  0.00     0.236 A 
HETATM    4  N3  UNL     1      22.390  -0.411  53.135  1.00  0.00    -0.234 NA
HETATM    5  C5  UNL     1      23.674  -0.146  53.450  1.00  0.00     0.114 A 
HETATM    6  S1  UNL     1      24.845  -0.726  54.756  1.00  0.00    -0.073 SA
HETATM    7  C6  UNL     1      26.275   0.298  54.215  1.00  0.00    -0.008 A 
HETATM    8  C7  UNL     1      25.763   0.994  53.101  1.00  0.00    -0.028 A 
HETATM    9  C8  UNL     1      24.474   0.774  52.723  1.00  0.00     0.053 A 
HETATM   10  C9  UNL     1      26.955   1.771  52.719  1.00  0.00     0.041 C 
HETATM   11  C10 UNL     1      28.219   0.906  52.796  1.00  0.00     0.005 C 
HETATM   12  C11 UNL     1      28.617   0.863  54.256  1.00  0.00     0.005 C 
HETATM   13  C12 UNL     1      27.471   0.185  54.963  1.00  0.00     0.047 C 
ENDROOT
BRANCH   1  14
HETATM   14  N1  UNL     1      24.326   2.325  50.783  1.00  0.00    -0.359 N 
HETATM   15  H3  UNL     1      24.667   2.362  49.817  1.00  0.00     0.162 HD
BRANCH  14  16
HETATM   16  C2  UNL     1      24.488   3.698  51.204  1.00  0.00     0.178 C 
BRANCH  16  17
HETATM   17  C1  UNL     1      23.185   4.335  51.536  1.00  0.00     0.261 C 
HETATM   18  O1  UNL     1      22.883   4.841  52.621  1.00  0.00    -0.304 OA
ENDBRANCH  16  17
BRANCH  16  19
HETATM   19  C13 UNL     1      25.353   4.488  50.334  1.00  0.00    -0.029 A 
HETATM   20  C14 UNL     1      26.386   3.791  49.741  1.00  0.00     0.009 A 
HETATM   21  C15 UNL     1      27.278   4.413  48.896  1.00  0.00     0.001 A 
HETATM   22  C16 UNL     1      27.150   5.755  48.629  1.00  0.00     0.000 A 
HETATM   23  C17 UNL     1      26.128   6.464  49.210  1.00  0.00     0.001 A 
HETATM   24  C18 UNL     1      25.240   5.834  50.055  1.00  0.00     0.009 A 
ENDBRANCH  16  19
ENDBRANCH  14  16
ENDBRANCH   1  14
TORSDOF 4
ENDMDL
MODEL 9
REMARK VINA RESULT:      -7.8      2.775      6.324
REMARK  4 active torsions:
REMARK  status: ('A' for Active; 'I' for Inactive)
REMARK    1  A    between atoms: C1_2  and  C2_3 
REMARK    2  A    between atoms: C2_3  and  N1_4 
REMARK    3  A    between atoms: C2_3  and  C13_18 
REMARK    4  A    between atoms: N1_4  and  C3_5 
ROOT
HETATM    1  C3  UNL     1      23.011   0.765  51.887  1.00  0.00     0.139 A 
HETATM    2  N2  UNL     1      22.228   1.412  51.032  1.00  0.00    -0.224 NA
HETATM    3  C4  UNL     1      22.522   2.393  50.219  1.00  0.00     0.236 A 
HETATM    4  N3  UNL     1      23.785   2.769  50.280  1.00  0.00    -0.234 NA
HETATM    5  C5  UNL     1      24.673   2.186  51.109  1.00  0.00     0.114 A 
HETATM    6  S1  UNL     1      26.470   2.416  51.471  1.00  0.00    -0.073 SA
HETATM    7  C6  UNL     1      26.593   1.090  52.741  1.00  0.00    -0.008 A 
HETATM    8  C7  UNL     1      25.280   0.579  52.794  1.00  0.00    -0.028 A 
HETATM    9  C8  UNL     1      24.329   1.121  51.984  1.00  0.00     0.053 A 
HETATM   10  C9  UNL     1      25.453  -0.454  53.829  1.00  0.00     0.041 C 
HETATM   11  C10 UNL     1      26.311   0.070  54.987  1.00  0.00     0.005 C 
HETATM   12  C11 UNL     1      27.751  -0.035  54.529  1.00  0.00     0.005 C 
HETATM   13  C12 UNL     1      27.859   0.881  53.336  1.00  0.00     0.047 C 
ENDROOT
BRANCH   1  14
HETATM   14  N1  UNL     1      22.374  -0.281  52.620  1.00  0.00    -0.359 N 
HETATM   15  H3  UNL     1      22.412  -1.305  52.669  1.00  0.00     0.162 HD
BRANCH  14  16
HETATM   16  C2  UNL     1      21.368   0.023  53.611  1.00  0.00     0.178 C 
BRANCH  16  17
HETATM   17  C1  UNL     1      21.797  -0.378  54.979  1.00  0.00     0.261 C 
HETATM   18  O1  UNL     1      22.310  -1.457  55.289  1.00  0.00    -0.304 OA
ENDBRANCH  16  17
BRANCH  16  19
HETATM   19  C13 UNL     1      20.023  -0.401  53.241  1.00  0.00    -0.029 A 
HETATM   20  C14 UNL     1      19.416   0.355  52.258  1.00  0.00     0.009 A 
HETATM   21  C15 UNL     1      18.145   0.066  51.813  1.00  0.00     0.001 A 
HETATM   22  C16 UNL     1      17.454  -0.994  52.348  1.00  0.00     0.000 A 
HETATM   23  C17 UNL     1      18.041  -1.757  53.327  1.00  0.00     0.001 A 
HETATM   24  C18 UNL     1      19.313  -1.461  53.767  1.00  0.00     0.009 A 
ENDBRANCH  16  19
ENDBRANCH  14  16
ENDBRANCH   1  14
TORSDOF 4
ENDMDL
