MODEL 1
REMARK VINA RESULT:      -7.5      0.000      0.000
REMARK  4 active torsions:
REMARK  status: ('A' for Active; 'I' for Inactive)
REMARK    1  A    between atoms: N1_2  and  N2_3 
REMARK    2  A    between atoms: N2_3  and  C2_4 
REMARK    3  A    between atoms: N2_3  and  C9_12 
REMARK    4  A    between atoms: C2_4  and  C3_5 
ROOT
HETATM    1  C9  UNL     1      26.586   2.091  52.051  1.00  0.00     0.187 C 
HETATM    2  N3  UNL     1      27.587   2.716  52.583  1.00  0.00    -0.245 NA
HETATM    3  C10 UNL     1      28.507   2.387  53.655  1.00  0.00     0.273 C 
HETATM    4  N4  UNL     1      29.281   1.189  53.319  1.00  0.00    -0.371 N 
HETATM    5  C11 UNL     1      28.793  -0.151  53.183  1.00  0.00     0.046 A 
HETATM    6  C12 UNL     1      29.799  -1.095  53.391  1.00  0.00     0.030 A 
HETATM    7  C13 UNL     1      29.506  -2.452  53.299  1.00  0.00     0.002 A 
HETATM    8  C14 UNL     1      28.212  -2.829  53.001  1.00  0.00     0.002 A 
HETATM    9  C15 UNL     1      27.210  -1.877  52.795  1.00  0.00     0.021 A 
HETATM   10  C16 UNL     1      27.484  -0.526  52.883  1.00  0.00     0.035 A 
HETATM   11  S1  UNL     1      26.025   0.460  52.574  1.00  0.00    -0.049 SA
HETATM   12  H11 UNL     1      30.324   1.252  53.145  1.00  0.00     0.161 HD
ENDROOT
BRANCH   1  13
HETATM   13  N2  UNL     1      26.000   2.881  50.997  1.00  0.00    -0.243 N 
BRANCH  13  14
HETATM   14  N1  UNL     1      26.883   2.974  49.890  1.00  0.00    -0.194 NA
HETATM   15  C1  UNL     1      26.900   4.094  49.245  1.00  0.00     0.173 C 
ENDBRANCH  13  14
BRANCH  13  16
HETATM   16  C2  UNL     1      24.801   3.604  50.722  1.00  0.00     0.192 C 
BRANCH  16  17
HETATM   17  C3  UNL     1      23.552   2.872  51.036  1.00  0.00    -0.038 A 
HETATM   18  C4  UNL     1      22.927   2.827  52.265  1.00  0.00     0.010 A 
HETATM   19  C5  UNL     1      21.754   2.088  52.384  1.00  0.00     0.019 A 
HETATM   20  C6  UNL     1      21.230   1.414  51.290  1.00  0.00     0.011 A 
HETATM   21 BR1  UNL     1      19.612   0.418  51.535  1.00  0.00    -0.051 Br
HETATM   22  C7  UNL     1      21.848   1.451  50.045  1.00  0.00     0.019 A 
HETATM   23  C8  UNL     1      23.008   2.187  49.944  1.00  0.00     0.010 A 
ENDBRANCH  16  17
ENDBRANCH  13  16
ENDBRANCH   1  13
TORSDOF 4
ENDMDL
MODEL 2
REMARK VINA RESULT:      -7.5      2.746      4.065
REMARK  4 active torsions:
REMARK  status: ('A' for Active; 'I' for Inactive)
REMARK    1  A    between atoms: N1_2  and  N2_3 
REMARK    2  A    between atoms: N2_3  and  C2_4 
REMARK    3  A    between atoms: N2_3  and  C9_12 
REMARK    4  A    between atoms: C2_4  and  C3_5 
ROOT
HETATM    1  C9  UNL     1      24.967   1.506  52.554  1.00  0.00     0.187 C 
HETATM    2  N3  UNL     1      25.715   2.361  53.175  1.00  0.00    -0.245 NA
HETATM    3  C10 UNL     1      26.736   2.230  54.196  1.00  0.00     0.273 C 
HETATM    4  N4  UNL     1      27.859   1.428  53.703  1.00  0.00    -0.371 N 
HETATM    5  C11 UNL     1      27.853   0.033  53.378  1.00  0.00     0.046 A 
HETATM    6  C12 UNL     1      29.130  -0.525  53.459  1.00  0.00     0.030 A 
HETATM    7  C13 UNL     1      29.315  -1.874  53.177  1.00  0.00     0.002 A 
HETATM    8  C14 UNL     1      28.217  -2.631  52.820  1.00  0.00     0.002 A 
HETATM    9  C15 UNL     1      26.943  -2.065  52.742  1.00  0.00     0.021 A 
HETATM   10  C16 UNL     1      26.740  -0.727  53.019  1.00  0.00     0.035 A 
HETATM   11  S1  UNL     1      25.021  -0.273  52.841  1.00  0.00    -0.049 SA
HETATM   12  H11 UNL     1      28.809   1.870  53.547  1.00  0.00     0.161 HD
ENDROOT
BRANCH   1  13
HETATM   13  N2  UNL     1      24.103   2.179  51.616  1.00  0.00    -0.243 N 
BRANCH  13  14
HETATM   14  N1  UNL     1      22.976   2.729  52.279  1.00  0.00    -0.194 NA
HETATM   15  C1  UNL     1      21.898   2.014  52.296  1.00  0.00     0.173 C 
ENDBRANCH  13  14
BRANCH  13  16
HETATM   16  C2  UNL     1      24.030   2.464  50.220  1.00  0.00     0.192 C 
BRANCH  16  17
HETATM   17  C3  UNL     1      25.032   3.441  49.735  1.00  0.00    -0.038 A 
HETATM   18  C4  UNL     1      26.388   3.218  49.609  1.00  0.00     0.010 A 
HETATM   19  C5  UNL     1      27.187   4.253  49.133  1.00  0.00     0.019 A 
HETATM   20  C6  UNL     1      26.630   5.479  48.797  1.00  0.00     0.011 A 
HETATM   21 BR1  UNL     1      27.798   6.852  48.151  1.00  0.00    -0.051 Br
HETATM   22  C7  UNL     1      25.266   5.718  48.918  1.00  0.00     0.019 A 
HETATM   23  C8  UNL     1      24.488   4.684  49.389  1.00  0.00     0.010 A 
ENDBRANCH  16  17
ENDBRANCH  13  16
ENDBRANCH   1  13
TORSDOF 4
ENDMDL
MODEL 3
REMARK VINA RESULT:      -7.3      4.115      5.844
REMARK  4 active torsions:
REMARK  status: ('A' for Active; 'I' for Inactive)
REMARK    1  A    between atoms: N1_2  and  N2_3 
REMARK    2  A    between atoms: N2_3  and  C2_4 
REMARK    3  A    between atoms: N2_3  and  C9_12 
REMARK    4  A    between atoms: C2_4  and  C3_5 
ROOT
HETATM    1  C9  UNL     1      23.441   1.975  51.297  1.00  0.00     0.187 C 
HETATM    2  N3  UNL     1      22.246   1.548  51.039  1.00  0.00    -0.245 NA
HETATM    3  C10 UNL     1      21.583   0.272  51.236  1.00  0.00     0.273 C 
HETATM    4  N4  UNL     1      21.525  -0.064  52.661  1.00  0.00    -0.371 N 
HETATM    5  C11 UNL     1      22.623  -0.380  53.525  1.00  0.00     0.046 A 
HETATM    6  C12 UNL     1      22.220  -1.147  54.619  1.00  0.00     0.030 A 
HETATM    7  C13 UNL     1      23.157  -1.549  55.565  1.00  0.00     0.002 A 
HETATM    8  C14 UNL     1      24.474  -1.173  55.392  1.00  0.00     0.002 A 
HETATM    9  C15 UNL     1      24.869  -0.406  54.293  1.00  0.00     0.021 A 
HETATM   10  C16 UNL     1      23.952   0.002  53.344  1.00  0.00     0.035 A 
HETATM   11  S1  UNL     1      24.728   0.966  52.055  1.00  0.00    -0.049 SA
HETATM   12  H11 UNL     1      20.596  -0.093  53.170  1.00  0.00     0.161 HD
ENDROOT
BRANCH   1  13
HETATM   13  N2  UNL     1      23.582   3.351  50.892  1.00  0.00    -0.243 N 
BRANCH  13  14
HETATM   14  N1  UNL     1      23.710   4.196  52.025  1.00  0.00    -0.194 NA
HETATM   15  C1  UNL     1      22.695   4.941  52.319  1.00  0.00     0.173 C 
ENDBRANCH  13  14
BRANCH  13  16
HETATM   16  C2  UNL     1      23.633   4.131  49.699  1.00  0.00     0.192 C 
BRANCH  16  17
HETATM   17  C3  UNL     1      24.989   4.586  49.314  1.00  0.00    -0.038 A 
HETATM   18  C4  UNL     1      26.141   3.828  49.360  1.00  0.00     0.010 A 
HETATM   19  C5  UNL     1      27.337   4.416  48.958  1.00  0.00     0.019 A 
HETATM   20  C6  UNL     1      27.365   5.734  48.525  1.00  0.00     0.011 A 
HETATM   21 BR1  UNL     1      29.049   6.471  47.990  1.00  0.00    -0.051 Br
HETATM   22  C7  UNL     1      26.212   6.509  48.472  1.00  0.00     0.019 A 
HETATM   23  C8  UNL     1      25.037   5.913  48.872  1.00  0.00     0.010 A 
ENDBRANCH  16  17
ENDBRANCH  13  16
ENDBRANCH   1  13
TORSDOF 4
ENDMDL
MODEL 4
REMARK VINA RESULT:      -7.2      3.495      7.055
REMARK  4 active torsions:
REMARK  status: ('A' for Active; 'I' for Inactive)
REMARK    1  A    between atoms: N1_2  and  N2_3 
REMARK    2  A    between atoms: N2_3  and  C2_4 
REMARK    3  A    between atoms: N2_3  and  C9_12 
REMARK    4  A    between atoms: C2_4  and  C3_5 
ROOT
HETATM    1  C9  UNL     1      24.057   2.994  50.829  1.00  0.00     0.187 C 
HETATM    2  N3  UNL     1      25.302   2.891  50.493  1.00  0.00    -0.245 NA
HETATM    3  C10 UNL     1      26.162   3.661  49.615  1.00  0.00     0.273 C 
HETATM    4  N4  UNL     1      26.282   5.042  50.091  1.00  0.00    -0.371 N 
HETATM    5  C11 UNL     1      25.254   6.038  50.136  1.00  0.00     0.046 A 
HETATM    6  C12 UNL     1      25.780   7.331  50.122  1.00  0.00     0.030 A 
HETATM    7  C13 UNL     1      24.926   8.427  50.160  1.00  0.00     0.002 A 
HETATM    8  C14 UNL     1      23.565   8.203  50.209  1.00  0.00     0.002 A 
HETATM    9  C15 UNL     1      23.046   6.906  50.221  1.00  0.00     0.021 A 
HETATM   10  C16 UNL     1      23.880   5.805  50.185  1.00  0.00     0.035 A 
HETATM   11  S1  UNL     1      22.951   4.278  50.211  1.00  0.00    -0.049 SA
HETATM   12  H11 UNL     1      27.206   5.406  50.459  1.00  0.00     0.161 HD
ENDROOT
BRANCH   1  13
HETATM   13  N2  UNL     1      23.694   1.948  51.752  1.00  0.00    -0.243 N 
BRANCH  13  14
HETATM   14  N1  UNL     1      22.713   1.096  51.184  1.00  0.00    -0.194 NA
HETATM   15  C1  UNL     1      21.900   0.510  52.002  1.00  0.00     0.173 C 
ENDBRANCH  13  14
BRANCH  13  16
HETATM   16  C2  UNL     1      24.020   1.503  53.068  1.00  0.00     0.192 C 
BRANCH  16  17
HETATM   17  C3  UNL     1      25.419   1.049  53.239  1.00  0.00    -0.038 A 
HETATM   18  C4  UNL     1      26.450   1.787  53.783  1.00  0.00     0.010 A 
HETATM   19  C5  UNL     1      27.710   1.201  53.869  1.00  0.00     0.019 A 
HETATM   20  C6  UNL     1      27.919  -0.094  53.417  1.00  0.00     0.011 A 
HETATM   21 BR1  UNL     1      29.681  -0.828  53.570  1.00  0.00    -0.051 Br
HETATM   22  C7  UNL     1      26.889  -0.850  52.868  1.00  0.00     0.019 A 
HETATM   23  C8  UNL     1      25.649  -0.257  52.790  1.00  0.00     0.010 A 
ENDBRANCH  16  17
ENDBRANCH  13  16
ENDBRANCH   1  13
TORSDOF 4
ENDMDL
MODEL 5
REMARK VINA RESULT:      -7.2      2.725      6.120
REMARK  4 active torsions:
REMARK  status: ('A' for Active; 'I' for Inactive)
REMARK    1  A    between atoms: N1_2  and  N2_3 
REMARK    2  A    between atoms: N2_3  and  C2_4 
REMARK    3  A    between atoms: N2_3  and  C9_12 
REMARK    4  A    between atoms: C2_4  and  C3_5 
ROOT
HETATM    1  C9  UNL     1      26.254   3.114  50.663  1.00  0.00     0.187 C 
HETATM    2  N3  UNL     1      27.207   3.534  49.895  1.00  0.00    -0.245 NA
HETATM    3  C10 UNL     1      27.276   4.548  48.860  1.00  0.00     0.273 C 
HETATM    4  N4  UNL     1      26.979   5.871  49.414  1.00  0.00    -0.371 N 
HETATM    5  C11 UNL     1      25.727   6.334  49.935  1.00  0.00     0.046 A 
HETATM    6  C12 UNL     1      25.624   7.725  49.880  1.00  0.00     0.030 A 
HETATM    7  C13 UNL     1      24.472   8.353  50.344  1.00  0.00     0.002 A 
HETATM    8  C14 UNL     1      23.453   7.572  50.851  1.00  0.00     0.002 A 
HETATM    9  C15 UNL     1      23.565   6.180  50.901  1.00  0.00     0.021 A 
HETATM   10  C16 UNL     1      24.701   5.540  50.445  1.00  0.00     0.035 A 
HETATM   11  S1  UNL     1      24.574   3.767  50.630  1.00  0.00    -0.049 SA
HETATM   12  H11 UNL     1      27.732   6.615  49.466  1.00  0.00     0.161 HD
ENDROOT
BRANCH   1  13
HETATM   13  N2  UNL     1      26.729   2.066  51.531  1.00  0.00    -0.243 N 
BRANCH  13  14
HETATM   14  N1  UNL     1      27.645   2.581  52.484  1.00  0.00    -0.194 NA
HETATM   15  C1  UNL     1      28.344   1.722  53.151  1.00  0.00     0.173 C 
ENDBRANCH  13  14
BRANCH  13  16
HETATM   16  C2  UNL     1      26.563   0.662  51.728  1.00  0.00     0.192 C 
BRANCH  16  17
HETATM   17  C3  UNL     1      25.378   0.286  52.532  1.00  0.00    -0.038 A 
HETATM   18  C4  UNL     1      25.386  -0.478  53.681  1.00  0.00     0.010 A 
HETATM   19  C5  UNL     1      24.174  -0.735  54.313  1.00  0.00     0.019 A 
HETATM   20  C6  UNL     1      22.988  -0.235  53.797  1.00  0.00     0.011 A 
HETATM   21 BR1  UNL     1      21.361  -0.634  54.725  1.00  0.00    -0.051 Br
HETATM   22  C7  UNL     1      22.963   0.537  52.641  1.00  0.00     0.019 A 
HETATM   23  C8  UNL     1      24.171   0.784  52.027  1.00  0.00     0.010 A 
ENDBRANCH  16  17
ENDBRANCH  13  16
ENDBRANCH   1  13
TORSDOF 4
ENDMDL
MODEL 6
REMARK VINA RESULT:      -7.1      3.470      7.427
REMARK  4 active torsions:
REMARK  status: ('A' for Active; 'I' for Inactive)
REMARK    1  A    between atoms: N1_2  and  N2_3 
REMARK    2  A    between atoms: N2_3  and  C2_4 
REMARK    3  A    between atoms: N2_3  and  C9_12 
REMARK    4  A    between atoms: C2_4  and  C3_5 
ROOT
HETATM    1  C9  UNL     1      22.717   1.434  51.088  1.00  0.00     0.187 C 
HETATM    2  N3  UNL     1      22.489   1.649  49.832  1.00  0.00    -0.245 NA
HETATM    3  C10 UNL     1      21.583   1.050  48.871  1.00  0.00     0.273 C 
HETATM    4  N4  UNL     1      20.190   1.250  49.280  1.00  0.00    -0.371 N 
HETATM    5  C11 UNL     1      19.529   0.683  50.417  1.00  0.00     0.046 A 
HETATM    6  C12 UNL     1      18.146   0.623  50.239  1.00  0.00     0.030 A 
HETATM    7  C13 UNL     1      17.340   0.098  51.244  1.00  0.00     0.002 A 
HETATM    8  C14 UNL     1      17.939  -0.353  52.402  1.00  0.00     0.002 A 
HETATM    9  C15 UNL     1      19.325  -0.291  52.572  1.00  0.00     0.021 A 
HETATM   10  C16 UNL     1      20.140   0.227  51.585  1.00  0.00     0.035 A 
HETATM   11  S1  UNL     1      21.861   0.186  52.068  1.00  0.00    -0.049 SA
HETATM   12  H11 UNL     1      19.547   1.874  48.715  1.00  0.00     0.161 HD
ENDROOT
BRANCH   1  13
HETATM   13  N2  UNL     1      23.740   2.326  51.575  1.00  0.00    -0.243 N 
BRANCH  13  14
HETATM   14  N1  UNL     1      23.244   3.128  52.634  1.00  0.00    -0.194 NA
HETATM   15  C1  UNL     1      23.355   4.410  52.502  1.00  0.00     0.173 C 
ENDBRANCH  13  14
BRANCH  13  16
HETATM   16  C2  UNL     1      25.105   2.653  51.318  1.00  0.00     0.192 C 
BRANCH  16  17
HETATM   17  C3  UNL     1      26.088   1.717  51.911  1.00  0.00    -0.038 A 
HETATM   18  C4  UNL     1      25.983   0.341  51.937  1.00  0.00     0.010 A 
HETATM   19  C5  UNL     1      27.004  -0.389  52.537  1.00  0.00     0.019 A 
HETATM   20  C6  UNL     1      28.098   0.255  53.096  1.00  0.00     0.011 A 
HETATM   21 BR1  UNL     1      29.461  -0.821  53.904  1.00  0.00    -0.051 Br
HETATM   22  C7  UNL     1      28.218   1.640  53.077  1.00  0.00     0.019 A 
HETATM   23  C8  UNL     1      27.200   2.348  52.479  1.00  0.00     0.010 A 
ENDBRANCH  16  17
ENDBRANCH  13  16
ENDBRANCH   1  13
TORSDOF 4
ENDMDL
MODEL 7
REMARK VINA RESULT:      -7.0      6.676      8.457
REMARK  4 active torsions:
REMARK  status: ('A' for Active; 'I' for Inactive)
REMARK    1  A    between atoms: N1_2  and  N2_3 
REMARK    2  A    between atoms: N2_3  and  C2_4 
REMARK    3  A    between atoms: N2_3  and  C9_12 
REMARK    4  A    between atoms: C2_4  and  C3_5 
ROOT
HETATM    1  C9  UNL     1      31.790   7.352  48.275  1.00  0.00     0.187 C 
HETATM    2  N3  UNL     1      32.682   8.112  47.726  1.00  0.00    -0.245 NA
HETATM    3  C10 UNL     1      34.096   7.944  47.449  1.00  0.00     0.273 C 
HETATM    4  N4  UNL     1      34.311   6.824  46.527  1.00  0.00    -0.371 N 
HETATM    5  C11 UNL     1      34.085   5.433  46.783  1.00  0.00     0.046 A 
HETATM    6  C12 UNL     1      34.858   4.620  45.953  1.00  0.00     0.030 A 
HETATM    7  C13 UNL     1      34.770   3.236  46.061  1.00  0.00     0.002 A 
HETATM    8  C14 UNL     1      33.909   2.701  46.999  1.00  0.00     0.002 A 
HETATM    9  C15 UNL     1      33.140   3.523  47.827  1.00  0.00     0.021 A 
HETATM   10  C16 UNL     1      33.215   4.898  47.732  1.00  0.00     0.035 A 
HETATM   11  S1  UNL     1      32.127   5.697  48.905  1.00  0.00    -0.049 SA
HETATM   12  H11 UNL     1      34.671   6.996  45.546  1.00  0.00     0.161 HD
ENDROOT
BRANCH   1  13
HETATM   13  N2  UNL     1      30.511   8.017  48.307  1.00  0.00    -0.243 N 
BRANCH  13  14
HETATM   14  N1  UNL     1      30.445   8.925  49.394  1.00  0.00    -0.194 NA
HETATM   15  C1  UNL     1      30.091  10.139  49.125  1.00  0.00     0.173 C 
ENDBRANCH  13  14
BRANCH  13  16
HETATM   16  C2  UNL     1      29.285   8.044  47.578  1.00  0.00     0.192 C 
BRANCH  16  17
HETATM   17  C3  UNL     1      28.231   7.148  48.107  1.00  0.00    -0.038 A 
HETATM   18  C4  UNL     1      26.978   7.534  48.536  1.00  0.00     0.010 A 
HETATM   19  C5  UNL     1      26.108   6.555  49.005  1.00  0.00     0.019 A 
HETATM   20  C6  UNL     1      26.495   5.224  49.040  1.00  0.00     0.011 A 
HETATM   21 BR1  UNL     1      25.240   3.937  49.701  1.00  0.00    -0.051 Br
HETATM   22  C7  UNL     1      27.754   4.819  48.611  1.00  0.00     0.019 A 
HETATM   23  C8  UNL     1      28.604   5.799  48.149  1.00  0.00     0.010 A 
ENDBRANCH  16  17
ENDBRANCH  13  16
ENDBRANCH   1  13
TORSDOF 4
ENDMDL
MODEL 8
REMARK VINA RESULT:      -6.9      3.346      6.929
REMARK  4 active torsions:
REMARK  status: ('A' for Active; 'I' for Inactive)
REMARK    1  A    between atoms: N1_2  and  N2_3 
REMARK    2  A    between atoms: N2_3  and  C2_4 
REMARK    3  A    between atoms: N2_3  and  C9_12 
REMARK    4  A    between atoms: C2_4  and  C3_5 
ROOT
HETATM    1  C9  UNL     1      24.237   2.124  51.261  1.00  0.00     0.187 C 
HETATM    2  N3  UNL     1      25.480   2.407  51.487  1.00  0.00    -0.245 NA
HETATM    3  C10 UNL     1      26.514   3.044  50.694  1.00  0.00     0.273 C 
HETATM    4  N4  UNL     1      26.137   4.422  50.367  1.00  0.00    -0.371 N 
HETATM    5  C11 UNL     1      25.068   4.852  49.515  1.00  0.00     0.046 A 
HETATM    6  C12 UNL     1      25.297   6.128  48.997  1.00  0.00     0.030 A 
HETATM    7  C13 UNL     1      24.362   6.707  48.147  1.00  0.00     0.002 A 
HETATM    8  C14 UNL     1      23.221   5.995  47.835  1.00  0.00     0.002 A 
HETATM    9  C15 UNL     1      23.001   4.718  48.357  1.00  0.00     0.021 A 
HETATM   10  C16 UNL     1      23.918   4.127  49.204  1.00  0.00     0.035 A 
HETATM   11  S1  UNL     1      23.383   2.501  49.719  1.00  0.00    -0.049 SA
HETATM   12  H11 UNL     1      26.674   5.238  50.775  1.00  0.00     0.161 HD
ENDROOT
BRANCH   1  13
HETATM   13  N2  UNL     1      23.651   1.476  52.407  1.00  0.00    -0.243 N 
BRANCH  13  14
HETATM   14  N1  UNL     1      22.342   1.967  52.647  1.00  0.00    -0.194 NA
HETATM   15  C1  UNL     1      21.434   1.098  52.951  1.00  0.00     0.173 C 
ENDBRANCH  13  14
BRANCH  13  16
HETATM   16  C2  UNL     1      23.982   0.487  53.382  1.00  0.00     0.192 C 
BRANCH  16  17
HETATM   17  C3  UNL     1      25.401   0.064  53.375  1.00  0.00    -0.038 A 
HETATM   18  C4  UNL     1      25.949  -0.924  52.583  1.00  0.00     0.010 A 
HETATM   19  C5  UNL     1      27.309  -1.193  52.707  1.00  0.00     0.019 A 
HETATM   20  C6  UNL     1      28.091  -0.483  53.607  1.00  0.00     0.011 A 
HETATM   21 BR1  UNL     1      29.953  -0.913  53.718  1.00  0.00    -0.051 Br
HETATM   22  C7  UNL     1      27.553   0.516  54.411  1.00  0.00     0.019 A 
HETATM   23  C8  UNL     1      26.206   0.771  54.276  1.00  0.00     0.010 A 
ENDBRANCH  16  17
ENDBRANCH  13  16
ENDBRANCH   1  13
TORSDOF 4
ENDMDL
MODEL 9
REMARK VINA RESULT:      -6.9      3.751      7.567
REMARK  4 active torsions:
REMARK  status: ('A' for Active; 'I' for Inactive)
REMARK    1  A    between atoms: N1_2  and  N2_3 
REMARK    2  A    between atoms: N2_3  and  C2_4 
REMARK    3  A    between atoms: N2_3  and  C9_12 
REMARK    4  A    between atoms: C2_4  and  C3_5 
ROOT
HETATM    1  C9  UNL     1      23.196   1.268  52.420  1.00  0.00     0.187 C 
HETATM    2  N3  UNL     1      23.775   2.239  53.051  1.00  0.00    -0.245 NA
HETATM    3  C10 UNL     1      24.065   3.617  52.702  1.00  0.00     0.273 C 
HETATM    4  N4  UNL     1      22.826   4.358  52.455  1.00  0.00    -0.371 N 
HETATM    5  C11 UNL     1      21.899   4.168  51.379  1.00  0.00     0.046 A 
HETATM    6  C12 UNL     1      21.154   5.321  51.125  1.00  0.00     0.030 A 
HETATM    7  C13 UNL     1      20.203   5.320  50.110  1.00  0.00     0.002 A 
HETATM    8  C14 UNL     1      20.022   4.166  49.375  1.00  0.00     0.002 A 
HETATM    9  C15 UNL     1      20.773   3.017  49.636  1.00  0.00     0.021 A 
HETATM   10  C16 UNL     1      21.721   3.000  50.639  1.00  0.00     0.035 A 
HETATM   11  S1  UNL     1      22.527   1.408  50.752  1.00  0.00    -0.049 SA
HETATM   12  H11 UNL     1      22.523   5.134  53.109  1.00  0.00     0.161 HD
ENDROOT
BRANCH   1  13
HETATM   13  N2  UNL     1      23.169   0.081  53.238  1.00  0.00    -0.243 N 
BRANCH  13  14
HETATM   14  N1  UNL     1      21.997  -0.676  52.983  1.00  0.00    -0.194 NA
HETATM   15  C1  UNL     1      21.522  -1.372  53.964  1.00  0.00     0.173 C 
ENDBRANCH  13  14
BRANCH  13  16
HETATM   16  C2  UNL     1      23.960  -0.570  54.231  1.00  0.00     0.192 C 
BRANCH  16  17
HETATM   17  C3  UNL     1      25.415  -0.582  53.953  1.00  0.00    -0.038 A 
HETATM   18  C4  UNL     1      26.027  -1.164  52.863  1.00  0.00     0.010 A 
HETATM   19  C5  UNL     1      27.412  -1.080  52.758  1.00  0.00     0.019 A 
HETATM   20  C6  UNL     1      28.155  -0.425  53.730  1.00  0.00     0.011 A 
HETATM   21 BR1  UNL     1      30.057  -0.353  53.514  1.00  0.00    -0.051 Br
HETATM   22  C7  UNL     1      27.552   0.167  54.834  1.00  0.00     0.019 A 
HETATM   23  C8  UNL     1      26.181   0.075  54.923  1.00  0.00     0.010 A 
ENDBRANCH  16  17
ENDBRANCH  13  16
ENDBRANCH   1  13
TORSDOF 4
ENDMDL
