MODEL 1
REMARK VINA RESULT:      -9.1      0.000      0.000
REMARK  4 active torsions:
REMARK  status: ('A' for Active; 'I' for Inactive)
REMARK    1  A    between atoms: C2_2  and  C4_5 
REMARK    2  A    between atoms: C3_3  and  O1_4 
REMARK    3  A    between atoms: C5_6  and  C7_8 
REMARK    4  A    between atoms: C7_8  and  N1_9 
ROOT
HETATM    1  N1  UNL     1      24.268   0.445  52.798  1.00  0.00    -0.388 N 
HETATM    2  C8  UNL     1      25.102   1.502  52.336  1.00  0.00     0.132 C 
HETATM    3  C9  UNL     1      24.934   2.676  51.748  1.00  0.00     0.042 C 
HETATM    4  C10 UNL     1      24.417   3.905  51.112  1.00  0.00     0.114 C 
HETATM    5  F1  UNL     1      25.353   4.767  50.683  1.00  0.00    -0.206 F 
HETATM    6  C11 UNL     1      23.138   4.297  50.904  1.00  0.00     0.042 C 
HETATM    7  C12 UNL     1      21.840   3.754  51.210  1.00  0.00    -0.001 C 
HETATM    8  C13 UNL     1      20.971   2.922  51.688  1.00  0.00    -0.022 C 
HETATM    9  C14 UNL     1      20.070   1.915  52.268  1.00  0.00     0.065 C 
HETATM   10  C15 UNL     1      20.742   0.837  53.018  1.00  0.00    -0.056 C 
HETATM   11  C16 UNL     1      22.050   1.019  53.348  1.00  0.00     0.009 C 
HETATM   12  C17 UNL     1      22.981  -0.092  53.172  1.00  0.00     0.127 C 
HETATM   13  C18 UNL     1      22.900  -0.922  54.351  1.00  0.00     0.002 C 
HETATM   14  C19 UNL     1      21.722  -1.507  54.651  1.00  0.00    -0.002 C 
HETATM   15  C20 UNL     1      20.367  -1.344  54.102  1.00  0.00     0.000 C 
HETATM   16  C21 UNL     1      19.923  -0.317  53.346  1.00  0.00     0.007 C 
ENDROOT
BRANCH   1  17
HETATM   17  C7  UNL     1      25.140  -0.727  52.926  1.00  0.00     0.152 C 
BRANCH  17  18
HETATM   18  C5  UNL     1      26.418  -0.304  53.614  1.00  0.00    -0.066 C 
HETATM   19  C4  UNL     1      27.628  -0.270  53.030  1.00  0.00     0.012 C 
HETATM   20  C6  UNL     1      26.227   0.002  55.081  1.00  0.00     0.045 C 
BRANCH  19  21
HETATM   21  C2  UNL     1      28.941   0.024  53.541  1.00  0.00    -0.040 C 
HETATM   22  C1  UNL     1      30.088  -0.900  53.726  1.00  0.00     0.050 C 
HETATM   23  C3  UNL     1      29.152   1.290  53.977  1.00  0.00     0.138 C 
BRANCH  23  24
HETATM   24  O1  UNL     1      28.767   2.616  54.200  1.00  0.00    -0.372 OA
HETATM   25  H5  UNL     1      28.755   2.973  55.152  1.00  0.00     0.216 HD
ENDBRANCH  23  24
ENDBRANCH  19  21
ENDBRANCH  17  18
ENDBRANCH   1  17
TORSDOF 4
ENDMDL
MODEL 2
REMARK VINA RESULT:      -9.0      1.937      2.269
REMARK  4 active torsions:
REMARK  status: ('A' for Active; 'I' for Inactive)
REMARK    1  A    between atoms: C2_2  and  C4_5 
REMARK    2  A    between atoms: C3_3  and  O1_4 
REMARK    3  A    between atoms: C5_6  and  C7_8 
REMARK    4  A    between atoms: C7_8  and  N1_9 
ROOT
HETATM    1  N1  UNL     1      24.635   0.916  52.946  1.00  0.00    -0.388 N 
HETATM    2  C8  UNL     1      25.733   1.731  52.549  1.00  0.00     0.132 C 
HETATM    3  C9  UNL     1      26.028   2.521  51.529  1.00  0.00     0.042 C 
HETATM    4  C10 UNL     1      26.048   3.314  50.282  1.00  0.00     0.114 C 
HETATM    5  F1  UNL     1      27.190   3.975  50.041  1.00  0.00    -0.206 F 
HETATM    6  C11 UNL     1      25.080   3.480  49.350  1.00  0.00     0.042 C 
HETATM    7  C12 UNL     1      23.724   3.025  49.192  1.00  0.00    -0.001 C 
HETATM    8  C13 UNL     1      22.621   2.417  49.492  1.00  0.00    -0.022 C 
HETATM    9  C14 UNL     1      21.417   1.693  49.927  1.00  0.00     0.065 C 
HETATM   10  C15 UNL     1      21.503   1.096  51.274  1.00  0.00    -0.056 C 
HETATM   11  C16 UNL     1      22.523   1.501  52.079  1.00  0.00     0.009 C 
HETATM   12  C17 UNL     1      23.256   0.497  52.844  1.00  0.00     0.127 C 
HETATM   13  C18 UNL     1      22.522   0.252  54.063  1.00  0.00     0.002 C 
HETATM   14  C19 UNL     1      21.267  -0.235  53.975  1.00  0.00    -0.002 C 
HETATM   15  C20 UNL     1      20.356  -0.427  52.835  1.00  0.00     0.000 C 
HETATM   16  C21 UNL     1      20.465   0.137  51.614  1.00  0.00     0.007 C 
ENDROOT
BRANCH   1  17
HETATM   17  C7  UNL     1      25.168  -0.017  53.943  1.00  0.00     0.152 C 
BRANCH  17  18
HETATM   18  C5  UNL     1      26.452  -0.611  53.410  1.00  0.00    -0.066 C 
HETATM   19  C4  UNL     1      27.654  -0.495  54.000  1.00  0.00     0.012 C 
HETATM   20  C6  UNL     1      26.277  -1.293  52.073  1.00  0.00     0.045 C 
BRANCH  19  21
HETATM   21  C2  UNL     1      28.971  -0.918  53.603  1.00  0.00    -0.040 C 
HETATM   22  C1  UNL     1      30.165  -0.082  53.328  1.00  0.00     0.050 C 
HETATM   23  C3  UNL     1      29.140  -2.246  53.385  1.00  0.00     0.138 C 
BRANCH  23  24
HETATM   24  O1  UNL     1      28.703  -3.574  53.358  1.00  0.00    -0.372 OA
HETATM   25  H5  UNL     1      29.016  -4.181  52.605  1.00  0.00     0.216 HD
ENDBRANCH  23  24
ENDBRANCH  19  21
ENDBRANCH  17  18
ENDBRANCH   1  17
TORSDOF 4
ENDMDL
MODEL 3
REMARK VINA RESULT:      -8.8      2.551      4.704
REMARK  4 active torsions:
REMARK  status: ('A' for Active; 'I' for Inactive)
REMARK    1  A    between atoms: C2_2  and  C4_5 
REMARK    2  A    between atoms: C3_3  and  O1_4 
REMARK    3  A    between atoms: C5_6  and  C7_8 
REMARK    4  A    between atoms: C7_8  and  N1_9 
ROOT
HETATM    1  N1  UNL     1      24.990   1.566  52.668  1.00  0.00    -0.388 N 
HETATM    2  C8  UNL     1      24.338   0.489  53.332  1.00  0.00     0.132 C 
HETATM    3  C9  UNL     1      23.163  -0.117  53.263  1.00  0.00     0.042 C 
HETATM    4  C10 UNL     1      21.794  -0.568  52.937  1.00  0.00     0.114 C 
HETATM    5  F1  UNL     1      21.317  -1.558  53.707  1.00  0.00    -0.206 F 
HETATM    6  C11 UNL     1      20.950  -0.136  51.970  1.00  0.00     0.042 C 
HETATM    7  C12 UNL     1      21.019   0.839  50.914  1.00  0.00    -0.001 C 
HETATM    8  C13 UNL     1      21.538   1.755  50.160  1.00  0.00    -0.022 C 
HETATM    9  C14 UNL     1      22.222   2.784  49.363  1.00  0.00     0.065 C 
HETATM   10  C15 UNL     1      23.641   2.997  49.707  1.00  0.00    -0.056 C 
HETATM   11  C16 UNL     1      24.247   2.061  50.487  1.00  0.00     0.009 C 
HETATM   12  C17 UNL     1      25.109   2.507  51.579  1.00  0.00     0.127 C 
HETATM   13  C18 UNL     1      26.420   2.756  51.028  1.00  0.00     0.002 C 
HETATM   14  C19 UNL     1      26.553   3.706  50.079  1.00  0.00    -0.002 C 
HETATM   15  C20 UNL     1      25.568   4.480  49.306  1.00  0.00     0.000 C 
HETATM   16  C21 UNL     1      24.258   4.191  49.156  1.00  0.00     0.007 C 
ENDROOT
BRANCH   1  17
HETATM   17  C7  UNL     1      26.085   1.977  53.552  1.00  0.00     0.152 C 
BRANCH  17  18
HETATM   18  C5  UNL     1      26.904   0.757  53.905  1.00  0.00    -0.066 C 
HETATM   19  C4  UNL     1      27.804   0.176  53.094  1.00  0.00     0.012 C 
HETATM   20  C6  UNL     1      26.550   0.177  55.255  1.00  0.00     0.045 C 
BRANCH  19  21
HETATM   21  C2  UNL     1      28.603  -1.014  53.229  1.00  0.00    -0.040 C 
HETATM   22  C1  UNL     1      29.994  -1.139  53.728  1.00  0.00     0.050 C 
HETATM   23  C3  UNL     1      28.049  -2.168  52.783  1.00  0.00     0.138 C 
BRANCH  23  24
HETATM   24  O1  UNL     1      27.009  -2.926  52.235  1.00  0.00    -0.372 OA
HETATM   25  H5  UNL     1      26.998  -3.931  52.385  1.00  0.00     0.216 HD
ENDBRANCH  23  24
ENDBRANCH  19  21
ENDBRANCH  17  18
ENDBRANCH   1  17
TORSDOF 4
ENDMDL
MODEL 4
REMARK VINA RESULT:      -8.5      2.145      5.221
REMARK  4 active torsions:
REMARK  status: ('A' for Active; 'I' for Inactive)
REMARK    1  A    between atoms: C2_2  and  C4_5 
REMARK    2  A    between atoms: C3_3  and  O1_4 
REMARK    3  A    between atoms: C5_6  and  C7_8 
REMARK    4  A    between atoms: C7_8  and  N1_9 
ROOT
HETATM    1  N1  UNL     1      23.674   2.174  52.231  1.00  0.00    -0.388 N 
HETATM    2  C8  UNL     1      25.052   2.508  52.112  1.00  0.00     0.132 C 
HETATM    3  C9  UNL     1      26.188   2.133  52.679  1.00  0.00     0.042 C 
HETATM    4  C10 UNL     1      27.253   1.506  53.489  1.00  0.00     0.114 C 
HETATM    5  F1  UNL     1      28.488   1.989  53.286  1.00  0.00    -0.206 F 
HETATM    6  C11 UNL     1      27.170   0.508  54.400  1.00  0.00     0.042 C 
HETATM    7  C12 UNL     1      26.112  -0.323  54.912  1.00  0.00    -0.001 C 
HETATM    8  C13 UNL     1      24.914  -0.798  55.037  1.00  0.00    -0.022 C 
HETATM    9  C14 UNL     1      23.521  -1.265  55.098  1.00  0.00     0.065 C 
HETATM   10  C15 UNL     1      22.616  -0.656  54.105  1.00  0.00    -0.056 C 
HETATM   11  C16 UNL     1      23.182   0.029  53.073  1.00  0.00     0.009 C 
HETATM   12  C17 UNL     1      22.606   1.311  52.681  1.00  0.00     0.127 C 
HETATM   13  C18 UNL     1      21.513   1.044  51.776  1.00  0.00     0.002 C 
HETATM   14  C19 UNL     1      20.465   0.322  52.224  1.00  0.00    -0.002 C 
HETATM   15  C20 UNL     1      20.247  -0.448  53.459  1.00  0.00     0.000 C 
HETATM   16  C21 UNL     1      21.195  -0.866  54.324  1.00  0.00     0.007 C 
ENDROOT
BRANCH   1  17
HETATM   17  C7  UNL     1      22.937   3.288  51.627  1.00  0.00     0.152 C 
BRANCH  17  18
HETATM   18  C5  UNL     1      23.689   3.756  50.402  1.00  0.00    -0.066 C 
HETATM   19  C4  UNL     1      24.434   4.873  50.340  1.00  0.00     0.012 C 
HETATM   20  C6  UNL     1      23.454   2.880  49.193  1.00  0.00     0.045 C 
BRANCH  19  21
HETATM   21  C2  UNL     1      25.142   5.504  49.257  1.00  0.00    -0.040 C 
HETATM   22  C1  UNL     1      24.626   6.467  48.254  1.00  0.00     0.050 C 
HETATM   23  C3  UNL     1      26.433   5.130  49.078  1.00  0.00     0.138 C 
BRANCH  23  24
HETATM   24  O1  UNL     1      27.586   4.416  49.418  1.00  0.00    -0.372 OA
HETATM   25  H5  UNL     1      27.537   3.404  49.494  1.00  0.00     0.216 HD
ENDBRANCH  23  24
ENDBRANCH  19  21
ENDBRANCH  17  18
ENDBRANCH   1  17
TORSDOF 4
ENDMDL
MODEL 5
REMARK VINA RESULT:      -8.5      3.165      5.711
REMARK  4 active torsions:
REMARK  status: ('A' for Active; 'I' for Inactive)
REMARK    1  A    between atoms: C2_2  and  C4_5 
REMARK    2  A    between atoms: C3_3  and  O1_4 
REMARK    3  A    between atoms: C5_6  and  C7_8 
REMARK    4  A    between atoms: C7_8  and  N1_9 
ROOT
HETATM    1  N1  UNL     1      23.458   1.293  51.452  1.00  0.00    -0.388 N 
HETATM    2  C8  UNL     1      24.332   0.695  52.404  1.00  0.00     0.132 C 
HETATM    3  C9  UNL     1      24.208  -0.040  53.498  1.00  0.00     0.042 C 
HETATM    4  C10 UNL     1      23.738  -0.834  54.652  1.00  0.00     0.114 C 
HETATM    5  F1  UNL     1      24.701  -1.269  55.480  1.00  0.00    -0.206 F 
HETATM    6  C11 UNL     1      22.480  -1.196  54.996  1.00  0.00     0.042 C 
HETATM    7  C12 UNL     1      21.171  -1.010  54.425  1.00  0.00    -0.001 C 
HETATM    8  C13 UNL     1      20.280  -0.617  53.572  1.00  0.00    -0.022 C 
HETATM    9  C14 UNL     1      19.352  -0.129  52.541  1.00  0.00     0.065 C 
HETATM   10  C15 UNL     1      19.995   0.494  51.369  1.00  0.00    -0.056 C 
HETATM   11  C16 UNL     1      21.333   0.303  51.209  1.00  0.00     0.009 C 
HETATM   12  C17 UNL     1      22.165   1.440  50.826  1.00  0.00     0.127 C 
HETATM   13  C18 UNL     1      22.109   1.560  49.388  1.00  0.00     0.002 C 
HETATM   14  C19 UNL     1      20.916   1.797  48.805  1.00  0.00    -0.002 C 
HETATM   15  C20 UNL     1      19.540   1.796  49.326  1.00  0.00     0.000 C 
HETATM   16  C21 UNL     1      19.119   1.243  50.484  1.00  0.00     0.007 C 
ENDROOT
BRANCH   1  17
HETATM   17  C7  UNL     1      24.249   2.325  50.776  1.00  0.00     0.152 C 
BRANCH  17  18
HETATM   18  C5  UNL     1      23.838   3.677  51.314  1.00  0.00    -0.066 C 
HETATM   19  C4  UNL     1      23.549   4.748  50.557  1.00  0.00     0.012 C 
HETATM   20  C6  UNL     1      23.867   3.746  52.823  1.00  0.00     0.045 C 
BRANCH  19  21
HETATM   21  C2  UNL     1      23.224   6.110  50.891  1.00  0.00    -0.040 C 
HETATM   22  C1  UNL     1      21.883   6.734  51.017  1.00  0.00     0.050 C 
HETATM   23  C3  UNL     1      24.267   6.961  51.048  1.00  0.00     0.138 C 
BRANCH  23  24
HETATM   24  O1  UNL     1      25.630   7.272  51.100  1.00  0.00    -0.372 OA
HETATM   25  H5  UNL     1      25.917   8.245  51.033  1.00  0.00     0.216 HD
ENDBRANCH  23  24
ENDBRANCH  19  21
ENDBRANCH  17  18
ENDBRANCH   1  17
TORSDOF 4
ENDMDL
MODEL 6
REMARK VINA RESULT:      -8.4      2.665      5.977
REMARK  4 active torsions:
REMARK  status: ('A' for Active; 'I' for Inactive)
REMARK    1  A    between atoms: C2_2  and  C4_5 
REMARK    2  A    between atoms: C3_3  and  O1_4 
REMARK    3  A    between atoms: C5_6  and  C7_8 
REMARK    4  A    between atoms: C7_8  and  N1_9 
ROOT
HETATM    1  N1  UNL     1      23.819   2.697  50.786  1.00  0.00    -0.388 N 
HETATM    2  C8  UNL     1      22.565   3.372  50.781  1.00  0.00     0.132 C 
HETATM    3  C9  UNL     1      21.384   3.215  51.356  1.00  0.00     0.042 C 
HETATM    4  C10 UNL     1      20.214   2.770  52.141  1.00  0.00     0.114 C 
HETATM    5  F1  UNL     1      19.096   3.493  51.967  1.00  0.00    -0.206 F 
HETATM    6  C11 UNL     1      20.102   1.745  53.018  1.00  0.00     0.042 C 
HETATM    7  C12 UNL     1      20.998   0.749  53.546  1.00  0.00    -0.001 C 
HETATM    8  C13 UNL     1      22.111   0.113  53.727  1.00  0.00    -0.022 C 
HETATM    9  C14 UNL     1      23.424  -0.536  53.861  1.00  0.00     0.065 C 
HETATM   10  C15 UNL     1      24.526   0.134  53.145  1.00  0.00    -0.056 C 
HETATM   11  C16 UNL     1      24.306   1.398  52.690  1.00  0.00     0.009 C 
HETATM   12  C17 UNL     1      24.754   1.749  51.346  1.00  0.00     0.127 C 
HETATM   13  C18 UNL     1      26.145   2.128  51.432  1.00  0.00     0.002 C 
HETATM   14  C19 UNL     1      27.038   1.212  51.861  1.00  0.00    -0.002 C 
HETATM   15  C20 UNL     1      26.880  -0.123  52.460  1.00  0.00     0.000 C 
HETATM   16  C21 UNL     1      25.756  -0.629  53.011  1.00  0.00     0.007 C 
ENDROOT
BRANCH   1  17
HETATM   17  C7  UNL     1      24.525   3.156  49.586  1.00  0.00     0.152 C 
BRANCH  17  18
HETATM   18  C5  UNL     1      24.409   4.661  49.503  1.00  0.00    -0.066 C 
HETATM   19  C4  UNL     1      24.961   5.521  50.374  1.00  0.00     0.012 C 
HETATM   20  C6  UNL     1      23.521   5.123  48.371  1.00  0.00     0.045 C 
BRANCH  19  21
HETATM   21  C2  UNL     1      24.891   6.954  50.495  1.00  0.00    -0.040 C 
HETATM   22  C1  UNL     1      23.718   7.795  50.842  1.00  0.00     0.050 C 
HETATM   23  C3  UNL     1      26.018   7.643  50.190  1.00  0.00     0.138 C 
BRANCH  23  24
HETATM   24  O1  UNL     1      27.360   7.740  49.812  1.00  0.00    -0.372 OA
HETATM   25  H5  UNL     1      28.083   7.551  50.501  1.00  0.00     0.216 HD
ENDBRANCH  23  24
ENDBRANCH  19  21
ENDBRANCH  17  18
ENDBRANCH   1  17
TORSDOF 4
ENDMDL
MODEL 7
REMARK VINA RESULT:      -8.3      3.359      7.505
REMARK  4 active torsions:
REMARK  status: ('A' for Active; 'I' for Inactive)
REMARK    1  A    between atoms: C2_2  and  C4_5 
REMARK    2  A    between atoms: C3_3  and  O1_4 
REMARK    3  A    between atoms: C5_6  and  C7_8 
REMARK    4  A    between atoms: C7_8  and  N1_9 
ROOT
HETATM    1  N1  UNL     1      22.623   0.986  51.639  1.00  0.00    -0.388 N 
HETATM    2  C8  UNL     1      22.214   0.168  52.730  1.00  0.00     0.132 C 
HETATM    3  C9  UNL     1      22.800  -0.455  53.740  1.00  0.00     0.042 C 
HETATM    4  C10 UNL     1      23.737  -1.016  54.735  1.00  0.00     0.114 C 
HETATM    5  F1  UNL     1      23.182  -1.816  55.660  1.00  0.00    -0.206 F 
HETATM    6  C11 UNL     1      25.073  -0.837  54.860  1.00  0.00     0.042 C 
HETATM    7  C12 UNL     1      26.071  -0.069  54.161  1.00  0.00    -0.001 C 
HETATM    8  C13 UNL     1      26.557   0.751  53.286  1.00  0.00    -0.022 C 
HETATM    9  C14 UNL     1      27.003   1.697  52.252  1.00  0.00     0.065 C 
HETATM   10  C15 UNL     1      25.921   2.298  51.449  1.00  0.00    -0.056 C 
HETATM   11  C16 UNL     1      24.646   2.163  51.907  1.00  0.00     0.009 C 
HETATM   12  C17 UNL     1      23.592   1.814  50.960  1.00  0.00     0.127 C 
HETATM   13  C18 UNL     1      23.136   3.037  50.341  1.00  0.00     0.002 C 
HETATM   14  C19 UNL     1      24.015   3.764  49.621  1.00  0.00    -0.002 C 
HETATM   15  C20 UNL     1      25.474   3.672  49.452  1.00  0.00     0.000 C 
HETATM   16  C21 UNL     1      26.334   2.997  50.244  1.00  0.00     0.007 C 
ENDROOT
BRANCH   1  17
HETATM   17  C7  UNL     1      21.520   0.947  50.674  1.00  0.00     0.152 C 
BRANCH  17  18
HETATM   18  C5  UNL     1      20.213   0.985  51.434  1.00  0.00    -0.066 C 
HETATM   19  C4  UNL     1      19.297   0.001  51.433  1.00  0.00     0.012 C 
HETATM   20  C6  UNL     1      19.980   2.297  52.145  1.00  0.00     0.045 C 
BRANCH  19  21
HETATM   21  C2  UNL     1      17.987  -0.102  52.022  1.00  0.00    -0.040 C 
HETATM   22  C1  UNL     1      16.756   0.647  51.669  1.00  0.00     0.050 C 
HETATM   23  C3  UNL     1      17.864  -0.939  53.081  1.00  0.00     0.138 C 
BRANCH  23  24
HETATM   24  O1  UNL     1      18.350  -1.879  53.995  1.00  0.00    -0.372 OA
HETATM   25  H5  UNL     1      17.924  -2.801  54.029  1.00  0.00     0.216 HD
ENDBRANCH  23  24
ENDBRANCH  19  21
ENDBRANCH  17  18
ENDBRANCH   1  17
TORSDOF 4
ENDMDL
MODEL 8
REMARK VINA RESULT:      -7.9      3.294      5.696
REMARK  4 active torsions:
REMARK  status: ('A' for Active; 'I' for Inactive)
REMARK    1  A    between atoms: C2_2  and  C4_5 
REMARK    2  A    between atoms: C3_3  and  O1_4 
REMARK    3  A    between atoms: C5_6  and  C7_8 
REMARK    4  A    between atoms: C7_8  and  N1_9 
ROOT
HETATM    1  N1  UNL     1      25.066   4.134  50.205  1.00  0.00    -0.388 N 
HETATM    2  C8  UNL     1      26.416   3.869  49.839  1.00  0.00     0.132 C 
HETATM    3  C9  UNL     1      27.364   4.476  49.144  1.00  0.00     0.042 C 
HETATM    4  C10 UNL     1      28.185   5.395  48.328  1.00  0.00     0.114 C 
HETATM    5  F1  UNL     1      29.416   4.952  48.029  1.00  0.00    -0.206 F 
HETATM    6  C11 UNL     1      27.883   6.622  47.843  1.00  0.00     0.042 C 
HETATM    7  C12 UNL     1      26.748   7.503  47.926  1.00  0.00    -0.001 C 
HETATM    8  C13 UNL     1      25.574   7.915  48.284  1.00  0.00    -0.022 C 
HETATM    9  C14 UNL     1      24.229   8.287  48.748  1.00  0.00     0.065 C 
HETATM   10  C15 UNL     1      23.612   7.338  49.694  1.00  0.00    -0.056 C 
HETATM   11  C16 UNL     1      24.419   6.399  50.261  1.00  0.00     0.009 C 
HETATM   12  C17 UNL     1      23.938   5.024  50.357  1.00  0.00     0.127 C 
HETATM   13  C18 UNL     1      23.140   4.921  51.555  1.00  0.00     0.002 C 
HETATM   14  C19 UNL     1      22.028   5.678  51.659  1.00  0.00    -0.002 C 
HETATM   15  C20 UNL     1      21.503   6.784  50.842  1.00  0.00     0.000 C 
HETATM   16  C21 UNL     1      22.191   7.515  49.940  1.00  0.00     0.007 C 
ENDROOT
BRANCH   1  17
HETATM   17  C7  UNL     1      24.493   2.841  50.589  1.00  0.00     0.152 C 
BRANCH  17  18
HETATM   18  C5  UNL     1      25.319   2.263  51.716  1.00  0.00    -0.066 C 
HETATM   19  C4  UNL     1      26.369   1.440  51.553  1.00  0.00     0.012 C 
HETATM   20  C6  UNL     1      24.793   2.631  53.083  1.00  0.00     0.045 C 
BRANCH  19  21
HETATM   21  C2  UNL     1      27.207   0.744  52.493  1.00  0.00    -0.040 C 
HETATM   22  C1  UNL     1      27.071  -0.645  52.998  1.00  0.00     0.050 C 
HETATM   23  C3  UNL     1      28.217   1.457  53.048  1.00  0.00     0.138 C 
BRANCH  23  24
HETATM   24  O1  UNL     1      28.995   2.609  53.206  1.00  0.00    -0.372 OA
HETATM   25  H5  UNL     1      29.280   3.129  52.381  1.00  0.00     0.216 HD
ENDBRANCH  23  24
ENDBRANCH  19  21
ENDBRANCH  17  18
ENDBRANCH   1  17
TORSDOF 4
ENDMDL
MODEL 9
REMARK VINA RESULT:      -7.9      2.709      6.215
REMARK  4 active torsions:
REMARK  status: ('A' for Active; 'I' for Inactive)
REMARK    1  A    between atoms: C2_2  and  C4_5 
REMARK    2  A    between atoms: C3_3  and  O1_4 
REMARK    3  A    between atoms: C5_6  and  C7_8 
REMARK    4  A    between atoms: C7_8  and  N1_9 
ROOT
HETATM    1  N1  UNL     1      22.419   2.504  52.039  1.00  0.00    -0.388 N 
HETATM    2  C8  UNL     1      23.242   3.210  51.118  1.00  0.00     0.132 C 
HETATM    3  C9  UNL     1      24.516   3.200  50.759  1.00  0.00     0.042 C 
HETATM    4  C10 UNL     1      25.960   2.939  50.588  1.00  0.00     0.114 C 
HETATM    5  F1  UNL     1      26.590   3.743  49.718  1.00  0.00    -0.206 F 
HETATM    6  C11 UNL     1      26.744   2.003  51.174  1.00  0.00     0.042 C 
HETATM    7  C12 UNL     1      26.529   0.931  52.110  1.00  0.00    -0.001 C 
HETATM    8  C13 UNL     1      25.872   0.142  52.899  1.00  0.00    -0.022 C 
HETATM    9  C14 UNL     1      25.033  -0.698  53.767  1.00  0.00     0.065 C 
HETATM   10  C15 UNL     1      23.586  -0.418  53.694  1.00  0.00    -0.056 C 
HETATM   11  C16 UNL     1      23.144   0.349  52.660  1.00  0.00     0.009 C 
HETATM   12  C17 UNL     1      22.163   1.396  52.931  1.00  0.00     0.127 C 
HETATM   13  C18 UNL     1      20.854   0.787  52.910  1.00  0.00     0.002 C 
HETATM   14  C19 UNL     1      20.577  -0.181  53.808  1.00  0.00    -0.002 C 
HETATM   15  C20 UNL     1      21.421  -0.922  54.759  1.00  0.00     0.000 C 
HETATM   16  C21 UNL     1      22.768  -1.013  54.737  1.00  0.00     0.007 C 
ENDROOT
BRANCH   1  17
HETATM   17  C7  UNL     1      21.225   3.334  52.228  1.00  0.00     0.152 C 
BRANCH  17  18
HETATM   18  C5  UNL     1      20.656   3.676  50.871  1.00  0.00    -0.066 C 
HETATM   19  C4  UNL     1      20.314   2.776  49.933  1.00  0.00     0.012 C 
HETATM   20  C6  UNL     1      20.582   5.164  50.618  1.00  0.00     0.045 C 
BRANCH  19  21
HETATM   21  C2  UNL     1      19.841   2.919  48.581  1.00  0.00    -0.040 C 
HETATM   22  C1  UNL     1      18.443   3.051  48.103  1.00  0.00     0.050 C 
HETATM   23  C3  UNL     1      20.777   2.860  47.602  1.00  0.00     0.138 C 
BRANCH  23  24
HETATM   24  O1  UNL     1      22.090   2.756  47.133  1.00  0.00    -0.372 OA
HETATM   25  H5  UNL     1      22.397   3.371  46.385  1.00  0.00     0.216 HD
ENDBRANCH  23  24
ENDBRANCH  19  21
ENDBRANCH  17  18
ENDBRANCH   1  17
TORSDOF 4
ENDMDL
