MODEL 1
REMARK VINA RESULT:      -9.1      0.000      0.000
REMARK  1 active torsions:
REMARK  status: ('A' for Active; 'I' for Inactive)
REMARK       I    between atoms: C2_2  and  N1_4 
REMARK    1  A    between atoms: N1_4  and  C3_5 
ROOT
HETATM    1  C3  UNL     1      26.006   1.185  51.431  1.00  0.00     0.006 A 
HETATM    2  C4  UNL     1      25.986   2.384  50.891  1.00  0.00     0.066 A 
HETATM    3  C5  UNL     1      26.206   3.654  50.166  1.00  0.00    -0.019 C 
HETATM    4  C6  UNL     1      27.149   4.097  49.363  1.00  0.00    -0.030 C 
HETATM    5  C7  UNL     1      27.364   5.325  48.658  1.00  0.00     0.030 C 
HETATM    6  C8  UNL     1      26.242   6.335  48.907  1.00  0.00     0.031 C 
HETATM    7  C9  UNL     1      26.554   7.549  48.126  1.00  0.00    -0.023 C 
HETATM    8  C10 UNL     1      25.762   8.036  47.178  1.00  0.00     0.038 C 
HETATM    9  C11 UNL     1      24.599   8.175  46.260  1.00  0.00     0.112 C 
HETATM   10  F1  UNL     1      24.234   7.039  46.951  1.00  0.00    -0.206 F 
HETATM   11  C12 UNL     1      23.639   8.469  45.353  1.00  0.00     0.017 C 
HETATM   12  C13 UNL     1      22.439   7.535  45.294  1.00  0.00     0.056 C 
HETATM   13  C14 UNL     1      22.280   6.893  43.959  1.00  0.00     0.172 C 
HETATM   14  O2  UNL     1      21.249   5.988  43.955  1.00  0.00    -0.386 OA
HETATM   15  C15 UNL     1      21.514   4.930  44.782  1.00  0.00     0.218 C 
HETATM   16  C16 UNL     1      20.382   3.942  44.742  1.00  0.00     0.033 C 
HETATM   17 CL1  UNL     1      19.771   3.068  43.362  1.00  0.00    -0.087 Cl
HETATM   18  C17 UNL     1      19.805   3.750  45.940  1.00  0.00     0.014 C 
HETATM   19  C18 UNL     1      19.980   4.250  47.304  1.00  0.00     0.150 C 
HETATM   20  N2  UNL     1      20.320   3.126  48.192  1.00  0.00    -0.371 N 
HETATM   21  C19 UNL     1      20.637   3.339  49.558  1.00  0.00     0.129 A 
HETATM   22  C20 UNL     1      21.848   3.150  50.200  1.00  0.00     0.108 A 
HETATM   23  C21 UNL     1      21.886   3.440  51.550  1.00  0.00     0.169 A 
HETATM   24  N3  UNL     1      20.808   3.886  52.234  1.00  0.00    -0.218 NA
HETATM   25  C22 UNL     1      19.642   4.054  51.554  1.00  0.00     0.238 A 
HETATM   26  N4  UNL     1      19.557   3.784  50.222  1.00  0.00    -0.225 NA
HETATM   27  O3  UNL     1      23.072   3.275  52.273  1.00  0.00    -0.325 OA
HETATM   28  C23 UNL     1      23.663   2.033  52.489  1.00  0.00     0.171 C 
HETATM   29  C24 UNL     1      24.799   1.840  51.874  1.00  0.00     0.077 A 
HETATM   30  H24 UNL     1      20.443   2.101  48.266  1.00  0.00     0.161 HD
ENDROOT
BRANCH   1  31
HETATM   31  N1  UNL     1      26.595  -0.101  51.648  1.00  0.00    -0.334 N 
HETATM   32  C2  UNL     1      27.134  -0.570  52.843  1.00  0.00     0.217 C 
HETATM   33  C1  UNL     1      27.685  -1.943  52.817  1.00  0.00     0.117 C 
HETATM   34  O1  UNL     1      27.045   0.288  53.746  1.00  0.00    -0.274 OA
HETATM   35  H4  UNL     1      26.570  -0.666  50.788  1.00  0.00     0.168 HD
ENDBRANCH   1  31
TORSDOF 1
ENDMDL
MODEL 2
REMARK VINA RESULT:      -8.4      8.574     11.861
REMARK  1 active torsions:
REMARK  status: ('A' for Active; 'I' for Inactive)
REMARK       I    between atoms: C2_2  and  N1_4 
REMARK    1  A    between atoms: N1_4  and  C3_5 
ROOT
HETATM    1  C3  UNL     1      33.605   5.561  41.098  1.00  0.00     0.006 A 
HETATM    2  C4  UNL     1      33.609   6.562  41.950  1.00  0.00     0.066 A 
HETATM    3  C5  UNL     1      33.501   7.834  42.697  1.00  0.00    -0.019 C 
HETATM    4  C6  UNL     1      33.063   9.036  42.396  1.00  0.00    -0.030 C 
HETATM    5  C7  UNL     1      32.955  10.270  43.117  1.00  0.00     0.030 C 
HETATM    6  C8  UNL     1      33.472  10.143  44.552  1.00  0.00     0.031 C 
HETATM    7  C9  UNL     1      33.301  11.457  45.204  1.00  0.00    -0.023 C 
HETATM    8  C10 UNL     1      32.557  11.648  46.287  1.00  0.00     0.038 C 
HETATM    9  C11 UNL     1      31.655  11.359  47.434  1.00  0.00     0.112 C 
HETATM   10  F1  UNL     1      31.771  10.099  46.887  1.00  0.00    -0.206 F 
HETATM   11  C12 UNL     1      30.849  11.298  48.520  1.00  0.00     0.017 C 
HETATM   12  C13 UNL     1      30.278   9.934  48.877  1.00  0.00     0.056 C 
HETATM   13  C14 UNL     1      28.788   9.914  48.852  1.00  0.00     0.172 C 
HETATM   14  O2  UNL     1      28.297   8.654  49.087  1.00  0.00    -0.386 OA
HETATM   15  C15 UNL     1      28.638   7.792  48.080  1.00  0.00     0.218 C 
HETATM   16  C16 UNL     1      28.069   6.428  48.348  1.00  0.00     0.033 C 
HETATM   17 CL1  UNL     1      26.394   5.984  48.536  1.00  0.00    -0.087 Cl
HETATM   18  C17 UNL     1      29.009   5.474  48.449  1.00  0.00     0.014 C 
HETATM   19  C18 UNL     1      30.469   5.397  48.368  1.00  0.00     0.150 C 
HETATM   20  N2  UNL     1      30.846   4.515  47.252  1.00  0.00    -0.371 N 
HETATM   21  C19 UNL     1      32.204   4.333  46.886  1.00  0.00     0.129 A 
HETATM   22  C20 UNL     1      32.842   4.725  45.722  1.00  0.00     0.108 A 
HETATM   23  C21 UNL     1      34.185   4.425  45.620  1.00  0.00     0.169 A 
HETATM   24  N3  UNL     1      34.869   3.781  46.593  1.00  0.00    -0.218 NA
HETATM   25  C22 UNL     1      34.193   3.418  47.717  1.00  0.00     0.238 A 
HETATM   26  N4  UNL     1      32.868   3.694  47.863  1.00  0.00    -0.225 NA
HETATM   27  O3  UNL     1      34.903   4.787  44.475  1.00  0.00    -0.325 OA
HETATM   28  C23 UNL     1      34.652   4.243  43.218  1.00  0.00     0.171 C 
HETATM   29  C24 UNL     1      34.143   5.067  42.343  1.00  0.00     0.077 A 
HETATM   30  H24 UNL     1      30.504   3.874  46.514  1.00  0.00     0.161 HD
ENDROOT
BRANCH   1  31
HETATM   31  N1  UNL     1      33.337   4.984  39.815  1.00  0.00    -0.334 N 
HETATM   32  C2  UNL     1      34.266   4.381  38.972  1.00  0.00     0.217 C 
HETATM   33  C1  UNL     1      33.741   3.856  37.692  1.00  0.00     0.117 C 
HETATM   34  O1  UNL     1      35.409   4.396  39.474  1.00  0.00    -0.274 OA
HETATM   35  H4  UNL     1      32.339   5.065  39.579  1.00  0.00     0.168 HD
ENDBRANCH   1  31
TORSDOF 1
ENDMDL
MODEL 3
REMARK VINA RESULT:      -8.4      2.556      2.971
REMARK  1 active torsions:
REMARK  status: ('A' for Active; 'I' for Inactive)
REMARK       I    between atoms: C2_2  and  N1_4 
REMARK    1  A    between atoms: N1_4  and  C3_5 
ROOT
HETATM    1  C3  UNL     1      24.595   2.798  51.235  1.00  0.00     0.006 A 
HETATM    2  C4  UNL     1      25.194   3.772  50.585  1.00  0.00     0.066 A 
HETATM    3  C5  UNL     1      26.051   4.669  49.780  1.00  0.00    -0.019 C 
HETATM    4  C6  UNL     1      27.153   4.499  49.083  1.00  0.00    -0.030 C 
HETATM    5  C7  UNL     1      27.985   5.365  48.302  1.00  0.00     0.030 C 
HETATM    6  C8  UNL     1      27.463   6.804  48.288  1.00  0.00     0.031 C 
HETATM    7  C9  UNL     1      28.379   7.600  47.447  1.00  0.00    -0.023 C 
HETATM    8  C10 UNL     1      27.995   8.246  46.352  1.00  0.00     0.038 C 
HETATM    9  C11 UNL     1      27.119   8.764  45.266  1.00  0.00     0.112 C 
HETATM   10  F1  UNL     1      26.202   8.045  46.003  1.00  0.00    -0.206 F 
HETATM   11  C12 UNL     1      26.493   9.325  44.206  1.00  0.00     0.017 C 
HETATM   12  C13 UNL     1      25.003   9.053  44.064  1.00  0.00     0.056 C 
HETATM   13  C14 UNL     1      24.667   8.361  42.788  1.00  0.00     0.172 C 
HETATM   14  O2  UNL     1      23.333   8.045  42.723  1.00  0.00    -0.386 OA
HETATM   15  C15 UNL     1      22.993   7.125  43.677  1.00  0.00     0.218 C 
HETATM   16  C16 UNL     1      21.535   6.778  43.569  1.00  0.00     0.033 C 
HETATM   17 CL1  UNL     1      20.697   6.085  42.206  1.00  0.00    -0.087 Cl
HETATM   18  C17 UNL     1      20.840   7.060  44.683  1.00  0.00     0.014 C 
HETATM   19  C18 UNL     1      21.120   7.625  46.004  1.00  0.00     0.150 C 
HETATM   20  N2  UNL     1      20.809   6.622  47.036  1.00  0.00    -0.371 N 
HETATM   21  C19 UNL     1      21.076   6.871  48.406  1.00  0.00     0.129 A 
HETATM   22  C20 UNL     1      21.993   6.246  49.233  1.00  0.00     0.108 A 
HETATM   23  C21 UNL     1      22.054   6.688  50.539  1.00  0.00     0.169 A 
HETATM   24  N3  UNL     1      21.267   7.680  51.014  1.00  0.00    -0.218 NA
HETATM   25  C22 UNL     1      20.382   8.261  50.159  1.00  0.00     0.238 A 
HETATM   26  N4  UNL     1      20.288   7.860  48.862  1.00  0.00    -0.225 NA
HETATM   27  O3  UNL     1      22.954   6.107  51.439  1.00  0.00    -0.325 OA
HETATM   28  C23 UNL     1      22.862   4.782  51.856  1.00  0.00     0.171 C 
HETATM   29  C24 UNL     1      23.814   3.995  51.434  1.00  0.00     0.077 A 
HETATM   30  H24 UNL     1      20.422   5.681  47.226  1.00  0.00     0.161 HD
ENDROOT
BRANCH   1  31
HETATM   31  N1  UNL     1      24.480   1.436  51.658  1.00  0.00    -0.334 N 
HETATM   32  C2  UNL     1      24.876   0.918  52.887  1.00  0.00     0.217 C 
HETATM   33  C1  UNL     1      24.650  -0.530  53.090  1.00  0.00     0.117 C 
HETATM   34  O1  UNL     1      25.366   1.806  53.616  1.00  0.00    -0.274 OA
HETATM   35  H4  UNL     1      24.049   0.859  50.922  1.00  0.00     0.168 HD
ENDBRANCH   1  31
TORSDOF 1
ENDMDL
MODEL 4
REMARK VINA RESULT:      -8.3      1.162      1.316
REMARK  1 active torsions:
REMARK  status: ('A' for Active; 'I' for Inactive)
REMARK       I    between atoms: C2_2  and  N1_4 
REMARK    1  A    between atoms: N1_4  and  C3_5 
ROOT
HETATM    1  C3  UNL     1      24.604   1.430  51.730  1.00  0.00     0.006 A 
HETATM    2  C4  UNL     1      24.581   2.597  51.123  1.00  0.00     0.066 A 
HETATM    3  C5  UNL     1      24.811   3.838  50.353  1.00  0.00    -0.019 C 
HETATM    4  C6  UNL     1      25.810   4.292  49.627  1.00  0.00    -0.030 C 
HETATM    5  C7  UNL     1      26.036   5.492  48.879  1.00  0.00     0.030 C 
HETATM    6  C8  UNL     1      24.844   6.449  48.954  1.00  0.00     0.031 C 
HETATM    7  C9  UNL     1      25.175   7.636  48.142  1.00  0.00    -0.023 C 
HETATM    8  C10 UNL     1      24.463   8.029  47.091  1.00  0.00     0.038 C 
HETATM    9  C11 UNL     1      23.398   8.055  46.052  1.00  0.00     0.112 C 
HETATM   10  F1  UNL     1      23.021   6.937  46.766  1.00  0.00    -0.206 F 
HETATM   11  C12 UNL     1      22.525   8.248  45.036  1.00  0.00     0.017 C 
HETATM   12  C13 UNL     1      21.387   7.246  44.908  1.00  0.00     0.056 C 
HETATM   13  C14 UNL     1      21.402   6.528  43.603  1.00  0.00     0.172 C 
HETATM   14  O2  UNL     1      20.425   5.567  43.545  1.00  0.00    -0.386 OA
HETATM   15  C15 UNL     1      20.654   4.569  44.454  1.00  0.00     0.218 C 
HETATM   16  C16 UNL     1      19.584   3.519  44.354  1.00  0.00     0.033 C 
HETATM   17 CL1  UNL     1      19.167   2.543  42.971  1.00  0.00    -0.087 Cl
HETATM   18  C17 UNL     1      18.894   3.357  45.496  1.00  0.00     0.014 C 
HETATM   19  C18 UNL     1      18.900   3.936  46.840  1.00  0.00     0.150 C 
HETATM   20  N2  UNL     1      19.200   2.880  47.821  1.00  0.00    -0.371 N 
HETATM   21  C19 UNL     1      19.360   3.180  49.197  1.00  0.00     0.129 A 
HETATM   22  C20 UNL     1      20.505   3.093  49.970  1.00  0.00     0.108 A 
HETATM   23  C21 UNL     1      20.386   3.453  51.298  1.00  0.00     0.169 A 
HETATM   24  N3  UNL     1      19.220   3.873  51.842  1.00  0.00    -0.218 NA
HETATM   25  C22 UNL     1      18.126   3.940  51.037  1.00  0.00     0.238 A 
HETATM   26  N4  UNL     1      18.195   3.597  49.721  1.00  0.00    -0.225 NA
HETATM   27  O3  UNL     1      21.496   3.392  52.147  1.00  0.00    -0.325 OA
HETATM   28  C23 UNL     1      22.123   2.198  52.492  1.00  0.00     0.171 C 
HETATM   29  C24 UNL     1      23.325   2.038  52.010  1.00  0.00     0.077 A 
HETATM   30  H24 UNL     1      19.367   1.868  47.965  1.00  0.00     0.161 HD
ENDROOT
BRANCH   1  31
HETATM   31  N1  UNL     1      25.231   0.192  52.080  1.00  0.00    -0.334 N 
HETATM   32  C2  UNL     1      26.576   0.005  52.382  1.00  0.00     0.217 C 
HETATM   33  C1  UNL     1      26.985  -1.377  52.716  1.00  0.00     0.117 C 
HETATM   34  O1  UNL     1      27.208   1.080  52.314  1.00  0.00    -0.274 OA
HETATM   35  H4  UNL     1      24.546  -0.576  52.086  1.00  0.00     0.168 HD
ENDBRANCH   1  31
TORSDOF 1
ENDMDL
MODEL 5
REMARK VINA RESULT:      -7.8      7.507     10.533
REMARK  1 active torsions:
REMARK  status: ('A' for Active; 'I' for Inactive)
REMARK       I    between atoms: C2_2  and  N1_4 
REMARK    1  A    between atoms: N1_4  and  C3_5 
ROOT
HETATM    1  C3  UNL     1      25.325   7.464  47.724  1.00  0.00     0.006 A 
HETATM    2  C4  UNL     1      26.601   7.403  48.034  1.00  0.00     0.066 A 
HETATM    3  C5  UNL     1      28.018   7.069  48.294  1.00  0.00    -0.019 C 
HETATM    4  C6  UNL     1      28.746   5.985  48.138  1.00  0.00    -0.030 C 
HETATM    5  C7  UNL     1      30.118   5.658  48.388  1.00  0.00     0.030 C 
HETATM    6  C8  UNL     1      30.895   6.843  48.966  1.00  0.00     0.031 C 
HETATM    7  C9  UNL     1      32.290   6.405  49.167  1.00  0.00    -0.023 C 
HETATM    8  C10 UNL     1      33.333   6.976  48.575  1.00  0.00     0.038 C 
HETATM    9  C11 UNL     1      34.122   7.902  47.720  1.00  0.00     0.112 C 
HETATM   10  F1  UNL     1      32.848   8.374  47.485  1.00  0.00    -0.206 F 
HETATM   11  C12 UNL     1      35.006   8.640  47.007  1.00  0.00     0.017 C 
HETATM   12  C13 UNL     1      34.433   9.760  46.151  1.00  0.00     0.056 C 
HETATM   13  C14 UNL     1      34.741   9.587  44.704  1.00  0.00     0.172 C 
HETATM   14  O2  UNL     1      34.140  10.557  43.941  1.00  0.00    -0.386 OA
HETATM   15  C15 UNL     1      32.776  10.450  43.987  1.00  0.00     0.218 C 
HETATM   16  C16 UNL     1      32.143  11.507  43.126  1.00  0.00     0.033 C 
HETATM   17 CL1  UNL     1      32.345  11.754  41.412  1.00  0.00    -0.087 Cl
HETATM   18  C17 UNL     1      31.338  12.335  43.812  1.00  0.00     0.014 C 
HETATM   19  C18 UNL     1      30.898  12.494  45.199  1.00  0.00     0.150 C 
HETATM   20  N2  UNL     1      29.437  12.326  45.266  1.00  0.00    -0.371 N 
HETATM   21  C19 UNL     1      28.753  12.338  46.508  1.00  0.00     0.129 A 
HETATM   22  C20 UNL     1      28.083  11.300  47.132  1.00  0.00     0.108 A 
HETATM   23  C21 UNL     1      27.501  11.581  48.351  1.00  0.00     0.169 A 
HETATM   24  N3  UNL     1      27.565  12.802  48.930  1.00  0.00    -0.218 NA
HETATM   25  C22 UNL     1      28.236  13.787  48.273  1.00  0.00     0.238 A 
HETATM   26  N4  UNL     1      28.828  13.556  47.069  1.00  0.00    -0.225 NA
HETATM   27  O3  UNL     1      26.805  10.587  49.047  1.00  0.00    -0.325 OA
HETATM   28  C23 UNL     1      25.625  10.016  48.577  1.00  0.00     0.171 C 
HETATM   29  C24 UNL     1      25.713   8.764  48.218  1.00  0.00     0.077 A 
HETATM   30  H24 UNL     1      28.566  12.186  44.725  1.00  0.00     0.161 HD
ENDROOT
BRANCH   1  31
HETATM   31  N1  UNL     1      24.109   6.895  47.228  1.00  0.00    -0.334 N 
HETATM   32  C2  UNL     1      23.266   6.026  47.914  1.00  0.00     0.217 C 
HETATM   33  C1  UNL     1      22.060   5.574  47.184  1.00  0.00     0.117 C 
HETATM   34  O1  UNL     1      23.701   5.784  49.059  1.00  0.00    -0.274 OA
HETATM   35  H4  UNL     1      23.918   7.218  46.269  1.00  0.00     0.168 HD
ENDBRANCH   1  31
TORSDOF 1
ENDMDL
MODEL 6
REMARK VINA RESULT:      -7.7      6.894      9.259
REMARK  1 active torsions:
REMARK  status: ('A' for Active; 'I' for Inactive)
REMARK       I    between atoms: C2_2  and  N1_4 
REMARK    1  A    between atoms: N1_4  and  C3_5 
ROOT
HETATM    1  C3  UNL     1      26.385   5.912  48.914  1.00  0.00     0.006 A 
HETATM    2  C4  UNL     1      27.656   6.142  48.670  1.00  0.00     0.066 A 
HETATM    3  C5  UNL     1      29.092   6.131  48.317  1.00  0.00    -0.019 C 
HETATM    4  C6  UNL     1      29.914   5.212  47.860  1.00  0.00    -0.030 C 
HETATM    5  C7  UNL     1      31.305   5.198  47.516  1.00  0.00     0.030 C 
HETATM    6  C8  UNL     1      31.966   6.561  47.739  1.00  0.00     0.031 C 
HETATM    7  C9  UNL     1      33.382   6.439  47.341  1.00  0.00    -0.023 C 
HETATM    8  C10 UNL     1      33.940   7.166  46.379  1.00  0.00     0.038 C 
HETATM    9  C11 UNL     1      34.088   8.166  45.288  1.00  0.00     0.112 C 
HETATM   10  F1  UNL     1      32.758   8.343  45.606  1.00  0.00    -0.206 F 
HETATM   11  C12 UNL     1      34.420   9.012  44.285  1.00  0.00     0.017 C 
HETATM   12  C13 UNL     1      33.317   9.919  43.757  1.00  0.00     0.056 C 
HETATM   13  C14 UNL     1      33.042   9.700  42.310  1.00  0.00     0.172 C 
HETATM   14  O2  UNL     1      31.985  10.461  41.877  1.00  0.00    -0.386 OA
HETATM   15  C15 UNL     1      30.817  10.077  42.480  1.00  0.00     0.218 C 
HETATM   16  C16 UNL     1      29.673  10.908  41.972  1.00  0.00     0.033 C 
HETATM   17 CL1  UNL     1      29.102  11.057  40.331  1.00  0.00    -0.087 Cl
HETATM   18  C17 UNL     1      29.053  11.602  42.941  1.00  0.00     0.014 C 
HETATM   19  C18 UNL     1      29.190  11.775  44.388  1.00  0.00     0.150 C 
HETATM   20  N2  UNL     1      27.959  11.313  45.050  1.00  0.00    -0.371 N 
HETATM   21  C19 UNL     1      27.853  11.280  46.463  1.00  0.00     0.129 A 
HETATM   22  C20 UNL     1      27.741  10.178  47.293  1.00  0.00     0.108 A 
HETATM   23  C21 UNL     1      27.656  10.427  48.648  1.00  0.00     0.169 A 
HETATM   24  N3  UNL     1      27.677  11.676  49.166  1.00  0.00    -0.218 NA
HETATM   25  C22 UNL     1      27.788  12.724  48.305  1.00  0.00     0.238 A 
HETATM   26  N4  UNL     1      27.876  12.527  46.961  1.00  0.00    -0.225 NA
HETATM   27  O3  UNL     1      27.541   9.367  49.554  1.00  0.00    -0.325 OA
HETATM   28  C23 UNL     1      26.431   8.529  49.604  1.00  0.00     0.171 C 
HETATM   29  C24 UNL     1      26.641   7.298  49.223  1.00  0.00     0.077 A 
HETATM   30  H24 UNL     1      26.997  10.953  44.914  1.00  0.00     0.161 HD
ENDROOT
BRANCH   1  31
HETATM   31  N1  UNL     1      25.231   5.065  48.956  1.00  0.00    -0.334 N 
HETATM   32  C2  UNL     1      25.144   3.821  49.572  1.00  0.00     0.217 C 
HETATM   33  C1  UNL     1      23.836   3.136  49.479  1.00  0.00     0.117 C 
HETATM   34  O1  UNL     1      26.226   3.505  50.110  1.00  0.00    -0.274 OA
HETATM   35  H4  UNL     1      24.440   5.501  48.463  1.00  0.00     0.168 HD
ENDBRANCH   1  31
TORSDOF 1
ENDMDL
MODEL 7
REMARK VINA RESULT:      -7.5      8.884     10.345
REMARK  1 active torsions:
REMARK  status: ('A' for Active; 'I' for Inactive)
REMARK       I    between atoms: C2_2  and  N1_4 
REMARK    1  A    between atoms: N1_4  and  C3_5 
ROOT
HETATM    1  C3  UNL     1      32.411   3.987  46.242  1.00  0.00     0.006 A 
HETATM    2  C4  UNL     1      32.970   5.074  45.755  1.00  0.00     0.066 A 
HETATM    3  C5  UNL     1      33.653   6.135  44.985  1.00  0.00    -0.019 C 
HETATM    4  C6  UNL     1      34.217   6.185  43.798  1.00  0.00    -0.030 C 
HETATM    5  C7  UNL     1      34.878   7.211  43.048  1.00  0.00     0.030 C 
HETATM    6  C8  UNL     1      34.933   8.536  43.812  1.00  0.00     0.031 C 
HETATM    7  C9  UNL     1      35.615   9.520  42.948  1.00  0.00    -0.023 C 
HETATM    8  C10 UNL     1      35.050  10.648  42.532  1.00  0.00     0.038 C 
HETATM    9  C11 UNL     1      34.033  11.717  42.343  1.00  0.00     0.112 C 
HETATM   10  F1  UNL     1      33.333  10.851  43.156  1.00  0.00    -0.206 F 
HETATM   11  C12 UNL     1      33.251  12.784  42.055  1.00  0.00     0.017 C 
HETATM   12  C13 UNL     1      31.851  12.791  42.652  1.00  0.00     0.056 C 
HETATM   13  C14 UNL     1      30.787  12.831  41.611  1.00  0.00     0.172 C 
HETATM   14  O2  UNL     1      29.535  12.745  42.166  1.00  0.00    -0.386 OA
HETATM   15  C15 UNL     1      29.340  11.531  42.768  1.00  0.00     0.218 C 
HETATM   16  C16 UNL     1      27.956  11.454  43.347  1.00  0.00     0.033 C 
HETATM   17 CL1  UNL     1      26.434  11.593  42.507  1.00  0.00    -0.087 Cl
HETATM   18  C17 UNL     1      27.949  11.255  44.675  1.00  0.00     0.014 C 
HETATM   19  C18 UNL     1      28.943  11.090  45.738  1.00  0.00     0.150 C 
HETATM   20  N2  UNL     1      28.777   9.764  46.354  1.00  0.00    -0.371 N 
HETATM   21  C19 UNL     1      29.671   9.301  47.353  1.00  0.00     0.129 A 
HETATM   22  C20 UNL     1      30.574   8.255  47.282  1.00  0.00     0.108 A 
HETATM   23  C21 UNL     1      31.335   8.015  48.408  1.00  0.00     0.169 A 
HETATM   24  N3  UNL     1      31.224   8.751  49.538  1.00  0.00    -0.218 NA
HETATM   25  C22 UNL     1      30.321   9.767  49.554  1.00  0.00     0.238 A 
HETATM   26  N4  UNL     1      29.549  10.042  48.467  1.00  0.00    -0.225 NA
HETATM   27  O3  UNL     1      32.271   6.975  48.419  1.00  0.00    -0.325 OA
HETATM   28  C23 UNL     1      31.915   5.632  48.333  1.00  0.00     0.171 C 
HETATM   29  C24 UNL     1      32.258   5.031  47.227  1.00  0.00     0.077 A 
HETATM   30  H24 UNL     1      28.209   8.898  46.384  1.00  0.00     0.161 HD
ENDROOT
BRANCH   1  31
HETATM   31  N1  UNL     1      32.024   2.612  46.161  1.00  0.00    -0.334 N 
HETATM   32  C2  UNL     1      32.467   1.581  46.984  1.00  0.00     0.217 C 
HETATM   33  C1  UNL     1      31.918   0.237  46.701  1.00  0.00     0.117 C 
HETATM   34  O1  UNL     1      33.274   2.001  47.840  1.00  0.00    -0.274 OA
HETATM   35  H4  UNL     1      31.351   2.465  45.396  1.00  0.00     0.168 HD
ENDBRANCH   1  31
TORSDOF 1
ENDMDL
MODEL 8
REMARK VINA RESULT:      -7.4     20.359     23.160
REMARK  1 active torsions:
REMARK  status: ('A' for Active; 'I' for Inactive)
REMARK       I    between atoms: C2_2  and  N1_4 
REMARK    1  A    between atoms: N1_4  and  C3_5 
ROOT
HETATM    1  C3  UNL     1      29.685 -13.250  64.014  1.00  0.00     0.006 A 
HETATM    2  C4  UNL     1      29.148 -12.054  63.908  1.00  0.00     0.066 A 
HETATM    3  C5  UNL     1      28.309 -10.837  63.871  1.00  0.00    -0.019 C 
HETATM    4  C6  UNL     1      27.044 -10.590  64.130  1.00  0.00    -0.030 C 
HETATM    5  C7  UNL     1      26.228  -9.413  64.097  1.00  0.00     0.030 C 
HETATM    6  C8  UNL     1      27.020  -8.179  63.657  1.00  0.00     0.031 C 
HETATM    7  C9  UNL     1      26.094  -7.028  63.673  1.00  0.00    -0.023 C 
HETATM    8  C10 UNL     1      26.277  -5.949  64.426  1.00  0.00     0.038 C 
HETATM    9  C11 UNL     1      26.895  -5.012  65.402  1.00  0.00     0.112 C 
HETATM   10  F1  UNL     1      27.809  -6.044  65.438  1.00  0.00    -0.206 F 
HETATM   11  C12 UNL     1      27.296  -4.036  66.250  1.00  0.00     0.017 C 
HETATM   12  C13 UNL     1      28.589  -4.278  67.015  1.00  0.00     0.056 C 
HETATM   13  C14 UNL     1      28.389  -4.274  68.491  1.00  0.00     0.172 C 
HETATM   14  O2  UNL     1      29.548  -4.583  69.157  1.00  0.00    -0.386 OA
HETATM   15  C15 UNL     1      29.943  -5.868  68.897  1.00  0.00     0.218 C 
HETATM   16  C16 UNL     1      31.199  -6.190  69.656  1.00  0.00     0.033 C 
HETATM   17 CL1  UNL     1      31.443  -6.169  71.382  1.00  0.00    -0.087 Cl
HETATM   18  C17 UNL     1      32.227  -6.524  68.859  1.00  0.00     0.014 C 
HETATM   19  C18 UNL     1      32.465  -6.663  67.421  1.00  0.00     0.150 C 
HETATM   20  N2  UNL     1      32.837  -8.056  67.124  1.00  0.00    -0.371 N 
HETATM   21  C19 UNL     1      33.033  -8.495  65.791  1.00  0.00     0.129 A 
HETATM   22  C20 UNL     1      32.279  -9.398  65.062  1.00  0.00     0.108 A 
HETATM   23  C21 UNL     1      32.691  -9.649  63.768  1.00  0.00     0.169 A 
HETATM   24  N3  UNL     1      33.775  -9.055  63.216  1.00  0.00    -0.218 NA
HETATM   25  C22 UNL     1      34.480  -8.176  63.977  1.00  0.00     0.238 A 
HETATM   26  N4  UNL     1      34.111  -7.896  65.257  1.00  0.00    -0.225 NA
HETATM   27  O3  UNL     1      31.984 -10.549  62.964  1.00  0.00    -0.325 OA
HETATM   28  C23 UNL     1      31.906 -11.912  63.239  1.00  0.00     0.171 C 
HETATM   29  C24 UNL     1      30.728 -12.344  63.597  1.00  0.00     0.077 A 
HETATM   30  H24 UNL     1      33.051  -8.988  67.521  1.00  0.00     0.161 HD
ENDROOT
BRANCH   1  31
HETATM   31  N1  UNL     1      29.622 -14.650  64.309  1.00  0.00    -0.334 N 
HETATM   32  C2  UNL     1      28.520 -15.340  64.802  1.00  0.00     0.217 C 
HETATM   33  C1  UNL     1      28.703 -16.791  65.025  1.00  0.00     0.117 C 
HETATM   34  O1  UNL     1      27.545 -14.577  64.968  1.00  0.00    -0.274 OA
HETATM   35  H4  UNL     1      30.521 -15.108  64.102  1.00  0.00     0.168 HD
ENDBRANCH   1  31
TORSDOF 1
ENDMDL
MODEL 9
REMARK VINA RESULT:      -7.2      5.194      9.196
REMARK  1 active torsions:
REMARK  status: ('A' for Active; 'I' for Inactive)
REMARK       I    between atoms: C2_2  and  N1_4 
REMARK    1  A    between atoms: N1_4  and  C3_5 
ROOT
HETATM    1  C3  UNL     1      28.589  11.735  45.640  1.00  0.00     0.006 A 
HETATM    2  C4  UNL     1      28.479  10.492  46.054  1.00  0.00     0.066 A 
HETATM    3  C5  UNL     1      28.505   9.182  46.740  1.00  0.00    -0.019 C 
HETATM    4  C6  UNL     1      29.027   8.751  47.867  1.00  0.00    -0.030 C 
HETATM    5  C7  UNL     1      29.053   7.484  48.536  1.00  0.00     0.030 C 
HETATM    6  C8  UNL     1      28.308   6.403  47.748  1.00  0.00     0.031 C 
HETATM    7  C9  UNL     1      28.383   5.153  48.529  1.00  0.00    -0.023 C 
HETATM    8  C10 UNL     1      27.315   4.502  48.978  1.00  0.00     0.038 C 
HETATM    9  C11 UNL     1      25.891   4.165  49.244  1.00  0.00     0.112 C 
HETATM   10  F1  UNL     1      25.738   5.325  48.515  1.00  0.00    -0.206 F 
HETATM   11  C12 UNL     1      24.669   3.694  49.588  1.00  0.00     0.017 C 
HETATM   12  C13 UNL     1      23.466   4.502  49.125  1.00  0.00     0.056 C 
HETATM   13  C14 UNL     1      22.635   4.990  50.261  1.00  0.00     0.172 C 
HETATM   14  O2  UNL     1      21.609   5.791  49.827  1.00  0.00    -0.386 OA
HETATM   15  C15 UNL     1      22.083   6.946  49.266  1.00  0.00     0.218 C 
HETATM   16  C16 UNL     1      20.941   7.815  48.822  1.00  0.00     0.033 C 
HETATM   17 CL1  UNL     1      19.662   8.487  49.799  1.00  0.00    -0.087 Cl
HETATM   18  C17 UNL     1      20.954   8.071  47.503  1.00  0.00     0.014 C 
HETATM   19  C18 UNL     1      21.794   7.728  46.355  1.00  0.00     0.150 C 
HETATM   20  N2  UNL     1      22.354   8.961  45.778  1.00  0.00    -0.371 N 
HETATM   21  C19 UNL     1      23.282   8.916  44.707  1.00  0.00     0.129 A 
HETATM   22  C20 UNL     1      24.617   9.279  44.709  1.00  0.00     0.108 A 
HETATM   23  C21 UNL     1      25.303   9.131  43.520  1.00  0.00     0.169 A 
HETATM   24  N3  UNL     1      24.722   8.656  42.394  1.00  0.00    -0.218 NA
HETATM   25  C22 UNL     1      23.407   8.314  42.448  1.00  0.00     0.238 A 
HETATM   26  N4  UNL     1      22.691   8.441  43.598  1.00  0.00    -0.225 NA
HETATM   27  O3  UNL     1      26.656   9.476  43.438  1.00  0.00    -0.325 OA
HETATM   28  C23 UNL     1      27.116  10.783  43.578  1.00  0.00     0.171 C 
HETATM   29  C24 UNL     1      27.811  11.019  44.657  1.00  0.00     0.077 A 
HETATM   30  H24 UNL     1      22.364   9.996  45.816  1.00  0.00     0.161 HD
ENDROOT
BRANCH   1  31
HETATM   31  N1  UNL     1      29.041  13.086  45.779  1.00  0.00    -0.334 N 
HETATM   32  C2  UNL     1      28.544  14.035  46.667  1.00  0.00     0.217 C 
HETATM   33  C1  UNL     1      29.181  15.369  46.622  1.00  0.00     0.117 C 
HETATM   34  O1  UNL     1      27.620  13.563  47.363  1.00  0.00    -0.274 OA
HETATM   35  H4  UNL     1      29.810  13.284  45.123  1.00  0.00     0.168 HD
ENDBRANCH   1  31
TORSDOF 1
ENDMDL
