MODEL 1
REMARK VINA RESULT:      -6.9      0.000      0.000
REMARK  5 active torsions:
REMARK  status: ('A' for Active; 'I' for Inactive)
REMARK    1  A    between atoms: O1_2  and  C2_3 
REMARK    2  A    between atoms: C4_5  and  O2_6 
REMARK    3  A    between atoms: C6_8  and  C7_9 
REMARK    4  A    between atoms: C8_10  and  S1_11 
REMARK    5  A    between atoms: C15_20  and  O3_21 
ROOT
HETATM    1  C2  UNL     1      23.277   1.289  51.591  1.00  0.00     0.080 C 
HETATM    2  C3  UNL     1      23.293   2.276  50.665  1.00  0.00     0.076 C 
HETATM    3  C4  UNL     1      24.291   3.192  50.061  1.00  0.00     0.097 C 
HETATM    4  C6  UNL     1      25.546   3.562  50.442  1.00  0.00     0.066 C 
HETATM    5  N1  UNL     1      26.523   3.160  51.470  1.00  0.00    -0.357 N 
HETATM    6  C10 UNL     1      26.239   2.019  52.268  1.00  0.00     0.015 C 
HETATM    7  C11 UNL     1      26.478   2.251  53.549  1.00  0.00     0.037 C 
HETATM    8  C12 UNL     1      26.127   1.075  54.301  1.00  0.00     0.063 C 
HETATM    9  N2  UNL     1      25.628  -0.177  53.996  1.00  0.00    -0.272 NA
HETATM   10  C13 UNL     1      25.439  -0.969  55.143  1.00  0.00     0.108 A 
HETATM   11  C14 UNL     1      24.228  -0.644  54.631  1.00  0.00     0.140 A 
HETATM   12  C15 UNL     1      23.729   0.082  53.484  1.00  0.00     0.075 C 
HETATM   13  C17 UNL     1      24.327   0.644  52.427  1.00  0.00     0.012 C 
HETATM   14  C18 UNL     1      25.756   0.631  51.933  1.00  0.00     0.101 C 
HETATM   15  H13 UNL     1      27.387   3.589  51.763  1.00  0.00     0.166 HD
ENDROOT
BRANCH   4  16
HETATM   16  C7  UNL     1      26.150   4.647  49.713  1.00  0.00     0.039 C 
HETATM   17  C8  UNL     1      27.265   4.658  49.064  1.00  0.00     0.047 C 
BRANCH  17  18
HETATM   18  S1  UNL     1      27.891   6.063  48.209  1.00  0.00    -0.146 SA
HETATM   19  C9  UNL     1      29.697   6.053  48.073  1.00  0.00     0.095 C 
ENDBRANCH  17  18
ENDBRANCH   4  16
BRANCH   3  20
HETATM   20  O2  UNL     1      23.938   3.815  48.894  1.00  0.00    -0.354 OA
HETATM   21  C5  UNL     1      22.691   3.619  48.252  1.00  0.00     0.210 C 
ENDBRANCH   3  20
BRANCH   1  22
HETATM   22  O1  UNL     1      22.067   0.695  51.895  1.00  0.00    -0.355 OA
HETATM   23  C1  UNL     1      21.077   0.562  50.906  1.00  0.00     0.210 C 
ENDBRANCH   1  22
BRANCH  12  24
HETATM   24  O3  UNL     1      22.364   0.260  53.423  1.00  0.00    -0.358 OA
HETATM   25  C16 UNL     1      21.509  -0.056  54.493  1.00  0.00     0.209 C 
ENDBRANCH  12  24
TORSDOF 5
ENDMDL
MODEL 2
REMARK VINA RESULT:      -6.9      2.040      3.869
REMARK  5 active torsions:
REMARK  status: ('A' for Active; 'I' for Inactive)
REMARK    1  A    between atoms: O1_2  and  C2_3 
REMARK    2  A    between atoms: C4_5  and  O2_6 
REMARK    3  A    between atoms: C6_8  and  C7_9 
REMARK    4  A    between atoms: C8_10  and  S1_11 
REMARK    5  A    between atoms: C15_20  and  O3_21 
ROOT
HETATM    1  C2  UNL     1      24.225   0.719  53.122  1.00  0.00     0.080 C 
HETATM    2  C3  UNL     1      25.487   1.059  52.770  1.00  0.00     0.076 C 
HETATM    3  C4  UNL     1      26.143   2.011  51.840  1.00  0.00     0.097 C 
HETATM    4  C6  UNL     1      25.679   2.715  50.770  1.00  0.00     0.066 C 
HETATM    5  N1  UNL     1      24.374   2.986  50.141  1.00  0.00    -0.357 N 
HETATM    6  C10 UNL     1      23.197   2.537  50.798  1.00  0.00     0.015 C 
HETATM    7  C11 UNL     1      22.364   1.947  49.955  1.00  0.00     0.037 C 
HETATM    8  C12 UNL     1      21.221   1.479  50.692  1.00  0.00     0.063 C 
HETATM    9  N2  UNL     1      20.818   1.512  52.014  1.00  0.00    -0.272 NA
HETATM   10  C13 UNL     1      19.584   0.867  52.212  1.00  0.00     0.108 A 
HETATM   11  C14 UNL     1      20.561   0.132  52.794  1.00  0.00     0.140 A 
HETATM   12  C15 UNL     1      21.989   0.242  52.990  1.00  0.00     0.075 C 
HETATM   13  C17 UNL     1      22.876   1.207  52.722  1.00  0.00     0.012 C 
HETATM   14  C18 UNL     1      22.725   2.628  52.227  1.00  0.00     0.101 C 
HETATM   15  H13 UNL     1      24.142   3.418  49.260  1.00  0.00     0.166 HD
ENDROOT
BRANCH   4  16
HETATM   16  C7  UNL     1      26.663   3.391  49.964  1.00  0.00     0.039 C 
HETATM   17  C8  UNL     1      26.605   4.570  49.444  1.00  0.00     0.047 C 
BRANCH  17  18
HETATM   18  S1  UNL     1      27.889   5.281  48.473  1.00  0.00    -0.146 SA
HETATM   19  C9  UNL     1      27.595   7.026  48.090  1.00  0.00     0.095 C 
ENDBRANCH  17  18
ENDBRANCH   4  16
BRANCH   3  20
HETATM   20  O2  UNL     1      27.471   2.271  52.049  1.00  0.00    -0.354 OA
HETATM   21  C5  UNL     1      28.069   2.286  53.333  1.00  0.00     0.210 C 
ENDBRANCH   3  20
BRANCH   1  22
HETATM   22  O1  UNL     1      24.054  -0.295  54.045  1.00  0.00    -0.355 OA
HETATM   23  C1  UNL     1      25.129  -0.707  54.851  1.00  0.00     0.210 C 
ENDBRANCH   1  22
BRANCH  12  24
HETATM   24  O3  UNL     1      22.610  -0.844  53.568  1.00  0.00    -0.358 OA
HETATM   25  C16 UNL     1      21.896  -1.934  54.096  1.00  0.00     0.209 C 
ENDBRANCH  12  24
TORSDOF 5
ENDMDL
MODEL 3
REMARK VINA RESULT:      -6.7      3.139      3.782
REMARK  5 active torsions:
REMARK  status: ('A' for Active; 'I' for Inactive)
REMARK    1  A    between atoms: O1_2  and  C2_3 
REMARK    2  A    between atoms: C4_5  and  O2_6 
REMARK    3  A    between atoms: C6_8  and  C7_9 
REMARK    4  A    between atoms: C8_10  and  S1_11 
REMARK    5  A    between atoms: C15_20  and  O3_21 
ROOT
HETATM    1  C2  UNL     1      21.629   0.897  52.977  1.00  0.00     0.080 C 
HETATM    2  C3  UNL     1      20.742   1.900  52.776  1.00  0.00     0.076 C 
HETATM    3  C4  UNL     1      20.747   3.261  52.187  1.00  0.00     0.097 C 
HETATM    4  C6  UNL     1      21.755   4.122  51.875  1.00  0.00     0.066 C 
HETATM    5  N1  UNL     1      23.228   4.084  51.822  1.00  0.00    -0.357 N 
HETATM    6  C10 UNL     1      23.883   2.840  52.025  1.00  0.00     0.015 C 
HETATM    7  C11 UNL     1      24.905   2.959  52.857  1.00  0.00     0.037 C 
HETATM    8  C12 UNL     1      25.491   1.660  53.052  1.00  0.00     0.063 C 
HETATM    9  N2  UNL     1      25.240   0.384  52.583  1.00  0.00    -0.272 NA
HETATM   10  C13 UNL     1      26.126  -0.566  53.121  1.00  0.00     0.108 A 
HETATM   11  C14 UNL     1      24.889  -0.785  53.627  1.00  0.00     0.140 A 
HETATM   12  C15 UNL     1      23.568  -0.220  53.462  1.00  0.00     0.075 C 
HETATM   13  C17 UNL     1      23.068   0.713  52.644  1.00  0.00     0.012 C 
HETATM   14  C18 UNL     1      23.652   1.459  51.465  1.00  0.00     0.101 C 
HETATM   15  H13 UNL     1      23.903   4.823  51.705  1.00  0.00     0.166 HD
ENDROOT
BRANCH   4  16
HETATM   16  C7  UNL     1      21.372   5.461  51.506  1.00  0.00     0.039 C 
HETATM   17  C8  UNL     1      21.742   6.149  50.480  1.00  0.00     0.047 C 
BRANCH  17  18
HETATM   18  S1  UNL     1      21.193   7.788  50.146  1.00  0.00    -0.146 SA
HETATM   19  C9  UNL     1      22.433   8.779  49.276  1.00  0.00     0.095 C 
ENDBRANCH  17  18
ENDBRANCH   4  16
BRANCH   3  20
HETATM   20  O2  UNL     1      19.531   3.810  51.878  1.00  0.00    -0.354 OA
HETATM   21  C5  UNL     1      18.386   3.039  51.562  1.00  0.00     0.210 C 
ENDBRANCH   3  20
BRANCH   1  22
HETATM   22  O1  UNL     1      21.194  -0.242  53.628  1.00  0.00    -0.355 OA
HETATM   23  C1  UNL     1      19.849  -0.638  53.537  1.00  0.00     0.210 C 
ENDBRANCH   1  22
BRANCH  12  24
HETATM   24  O3  UNL     1      22.588  -0.709  54.299  1.00  0.00    -0.358 OA
HETATM   25  C16 UNL     1      22.880  -1.461  55.451  1.00  0.00     0.209 C 
ENDBRANCH  12  24
TORSDOF 5
ENDMDL
MODEL 4
REMARK VINA RESULT:      -6.7      2.422      4.136
REMARK  5 active torsions:
REMARK  status: ('A' for Active; 'I' for Inactive)
REMARK    1  A    between atoms: O1_2  and  C2_3 
REMARK    2  A    between atoms: C4_5  and  O2_6 
REMARK    3  A    between atoms: C6_8  and  C7_9 
REMARK    4  A    between atoms: C8_10  and  S1_11 
REMARK    5  A    between atoms: C15_20  and  O3_21 
ROOT
HETATM    1  C2  UNL     1      25.879   2.039  51.864  1.00  0.00     0.080 C 
HETATM    2  C3  UNL     1      26.155   2.944  50.895  1.00  0.00     0.076 C 
HETATM    3  C4  UNL     1      25.397   3.864  50.011  1.00  0.00     0.097 C 
HETATM    4  C6  UNL     1      24.083   3.925  49.661  1.00  0.00     0.066 C 
HETATM    5  N1  UNL     1      22.828   3.264  50.063  1.00  0.00    -0.357 N 
HETATM    6  C10 UNL     1      22.850   2.389  51.183  1.00  0.00     0.015 C 
HETATM    7  C11 UNL     1      22.201   1.263  50.932  1.00  0.00     0.037 C 
HETATM    8  C12 UNL     1      22.301   0.410  52.086  1.00  0.00     0.063 C 
HETATM    9  N2  UNL     1      22.889   0.502  53.333  1.00  0.00    -0.272 NA
HETATM   10  C13 UNL     1      22.703  -0.662  54.099  1.00  0.00     0.108 A 
HETATM   11  C14 UNL     1      24.010  -0.567  53.758  1.00  0.00     0.140 A 
HETATM   12  C15 UNL     1      24.847   0.370  53.043  1.00  0.00     0.075 C 
HETATM   13  C17 UNL     1      24.622   1.578  52.514  1.00  0.00     0.012 C 
HETATM   14  C18 UNL     1      23.434   2.513  52.567  1.00  0.00     0.101 C 
HETATM   15  H13 UNL     1      21.910   3.281  49.647  1.00  0.00     0.166 HD
ENDROOT
BRANCH   4  16
HETATM   16  C7  UNL     1      23.736   4.838  48.602  1.00  0.00     0.039 C 
HETATM   17  C8  UNL     1      22.604   4.980  48.001  1.00  0.00     0.047 C 
BRANCH  17  18
HETATM   18  S1  UNL     1      22.314   6.145  46.714  1.00  0.00    -0.146 SA
HETATM   19  C9  UNL     1      21.978   5.358  45.118  1.00  0.00     0.095 C 
ENDBRANCH  17  18
ENDBRANCH   4  16
BRANCH   3  20
HETATM   20  O2  UNL     1      26.106   4.866  49.403  1.00  0.00    -0.354 OA
HETATM   21  C5  UNL     1      27.386   4.678  48.828  1.00  0.00     0.210 C 
ENDBRANCH   3  20
BRANCH   1  22
HETATM   22  O1  UNL     1      26.931   1.341  52.426  1.00  0.00    -0.355 OA
HETATM   23  C1  UNL     1      28.051   2.029  52.922  1.00  0.00     0.210 C 
ENDBRANCH   1  22
BRANCH  12  24
HETATM   24  O3  UNL     1      26.155  -0.015  52.839  1.00  0.00    -0.358 OA
HETATM   25  C16 UNL     1      26.568  -1.358  52.895  1.00  0.00     0.209 C 
ENDBRANCH  12  24
TORSDOF 5
ENDMDL
MODEL 5
REMARK VINA RESULT:      -6.5      2.975      5.074
REMARK  5 active torsions:
REMARK  status: ('A' for Active; 'I' for Inactive)
REMARK    1  A    between atoms: O1_2  and  C2_3 
REMARK    2  A    between atoms: C4_5  and  O2_6 
REMARK    3  A    between atoms: C6_8  and  C7_9 
REMARK    4  A    between atoms: C8_10  and  S1_11 
REMARK    5  A    between atoms: C15_20  and  O3_21 
ROOT
HETATM    1  C2  UNL     1      22.201   2.320  51.232  1.00  0.00     0.080 C 
HETATM    2  C3  UNL     1      23.491   2.688  51.406  1.00  0.00     0.076 C 
HETATM    3  C4  UNL     1      24.696   2.160  52.094  1.00  0.00     0.097 C 
HETATM    4  C6  UNL     1      24.859   1.215  53.061  1.00  0.00     0.066 C 
HETATM    5  N1  UNL     1      24.019   0.216  53.745  1.00  0.00    -0.357 N 
HETATM    6  C10 UNL     1      22.691   0.014  53.283  1.00  0.00     0.015 C 
HETATM    7  C11 UNL     1      21.829  -0.032  54.287  1.00  0.00     0.037 C 
HETATM    8  C12 UNL     1      20.505  -0.191  53.747  1.00  0.00     0.063 C 
HETATM    9  N2  UNL     1      19.964  -0.306  52.481  1.00  0.00    -0.272 NA
HETATM   10  C13 UNL     1      18.562  -0.422  52.509  1.00  0.00     0.108 A 
HETATM   11  C14 UNL     1      18.892   0.780  51.980  1.00  0.00     0.140 A 
HETATM   12  C15 UNL     1      20.108   1.486  51.642  1.00  0.00     0.075 C 
HETATM   13  C17 UNL     1      21.400   1.139  51.658  1.00  0.00     0.012 C 
HETATM   14  C18 UNL     1      22.104  -0.176  51.908  1.00  0.00     0.101 C 
HETATM   15  H13 UNL     1      24.202  -0.358  54.554  1.00  0.00     0.166 HD
ENDROOT
BRANCH   4  16
HETATM   16  C7  UNL     1      26.171   1.108  53.645  1.00  0.00     0.039 C 
HETATM   17  C8  UNL     1      26.841   0.043  53.928  1.00  0.00     0.047 C 
BRANCH  17  18
HETATM   18  S1  UNL     1      28.449   0.054  54.645  1.00  0.00    -0.146 SA
HETATM   19  C9  UNL     1      29.674  -0.815  53.634  1.00  0.00     0.095 C 
ENDBRANCH  17  18
ENDBRANCH   4  16
BRANCH   3  20
HETATM   20  O2  UNL     1      25.904   2.689  51.725  1.00  0.00    -0.354 OA
HETATM   21  C5  UNL     1      26.214   3.076  50.399  1.00  0.00     0.210 C 
ENDBRANCH   3  20
BRANCH   1  22
HETATM   22  O1  UNL     1      21.369   3.163  50.520  1.00  0.00    -0.355 OA
HETATM   23  C1  UNL     1      21.903   4.030  49.551  1.00  0.00     0.210 C 
ENDBRANCH   1  22
BRANCH  12  24
HETATM   24  O3  UNL     1      19.958   2.786  51.211  1.00  0.00    -0.358 OA
HETATM   25  C16 UNL     1      18.762   3.507  51.376  1.00  0.00     0.209 C 
ENDBRANCH  12  24
TORSDOF 5
ENDMDL
MODEL 6
REMARK VINA RESULT:      -6.4      2.529      5.743
REMARK  5 active torsions:
REMARK  status: ('A' for Active; 'I' for Inactive)
REMARK    1  A    between atoms: O1_2  and  C2_3 
REMARK    2  A    between atoms: C4_5  and  O2_6 
REMARK    3  A    between atoms: C6_8  and  C7_9 
REMARK    4  A    between atoms: C8_10  and  S1_11 
REMARK    5  A    between atoms: C15_20  and  O3_21 
ROOT
HETATM    1  C2  UNL     1      22.889   2.421  50.401  1.00  0.00     0.080 C 
HETATM    2  C3  UNL     1      23.266   1.385  51.188  1.00  0.00     0.076 C 
HETATM    3  C4  UNL     1      24.414   1.037  52.060  1.00  0.00     0.097 C 
HETATM    4  C6  UNL     1      25.674   1.543  52.163  1.00  0.00     0.066 C 
HETATM    5  N1  UNL     1      26.423   2.692  51.622  1.00  0.00    -0.357 N 
HETATM    6  C10 UNL     1      25.718   3.664  50.862  1.00  0.00     0.015 C 
HETATM    7  C11 UNL     1      26.373   3.985  49.757  1.00  0.00     0.037 C 
HETATM    8  C12 UNL     1      25.585   4.935  49.017  1.00  0.00     0.063 C 
HETATM    9  N2  UNL     1      24.364   5.557  49.198  1.00  0.00    -0.272 NA
HETATM   10  C13 UNL     1      24.036   6.408  48.128  1.00  0.00     0.108 A 
HETATM   11  C14 UNL     1      23.202   5.342  48.111  1.00  0.00     0.140 A 
HETATM   12  C15 UNL     1      22.978   4.166  48.921  1.00  0.00     0.075 C 
HETATM   13  C17 UNL     1      23.492   3.744  50.082  1.00  0.00     0.012 C 
HETATM   14  C18 UNL     1      24.417   4.393  51.087  1.00  0.00     0.101 C 
HETATM   15  H13 UNL     1      27.406   2.913  51.652  1.00  0.00     0.166 HD
ENDROOT
BRANCH   4  16
HETATM   16  C7  UNL     1      26.601   0.810  52.987  1.00  0.00     0.039 C 
HETATM   17  C8  UNL     1      27.618   1.254  53.644  1.00  0.00     0.047 C 
BRANCH  17  18
HETATM   18  S1  UNL     1      28.675   0.241  54.620  1.00  0.00    -0.146 SA
HETATM   19  C9  UNL     1      29.797  -0.769  53.620  1.00  0.00     0.095 C 
ENDBRANCH  17  18
ENDBRANCH   4  16
BRANCH   3  20
HETATM   20  O2  UNL     1      24.229   0.015  52.953  1.00  0.00    -0.354 OA
HETATM   21  C5  UNL     1      22.984  -0.627  53.156  1.00  0.00     0.210 C 
ENDBRANCH   3  20
BRANCH   1  22
HETATM   22  O1  UNL     1      21.702   2.314  49.701  1.00  0.00    -0.355 OA
HETATM   23  C1  UNL     1      20.672   1.486  50.178  1.00  0.00     0.210 C 
ENDBRANCH   1  22
BRANCH  12  24
HETATM   24  O3  UNL     1      22.055   3.262  48.441  1.00  0.00    -0.358 OA
HETATM   25  C16 UNL     1      21.609   3.269  47.107  1.00  0.00     0.209 C 
ENDBRANCH  12  24
TORSDOF 5
ENDMDL
MODEL 7
REMARK VINA RESULT:      -6.1      3.256      5.815
REMARK  5 active torsions:
REMARK  status: ('A' for Active; 'I' for Inactive)
REMARK    1  A    between atoms: O1_2  and  C2_3 
REMARK    2  A    between atoms: C4_5  and  O2_6 
REMARK    3  A    between atoms: C6_8  and  C7_9 
REMARK    4  A    between atoms: C8_10  and  S1_11 
REMARK    5  A    between atoms: C15_20  and  O3_21 
ROOT
HETATM    1  C2  UNL     1      21.234   2.836  51.985  1.00  0.00     0.080 C 
HETATM    2  C3  UNL     1      21.780   1.698  52.475  1.00  0.00     0.076 C 
HETATM    3  C4  UNL     1      23.088   1.260  53.021  1.00  0.00     0.097 C 
HETATM    4  C6  UNL     1      24.335   1.806  52.964  1.00  0.00     0.066 C 
HETATM    5  N1  UNL     1      24.938   3.070  52.506  1.00  0.00    -0.357 N 
HETATM    6  C10 UNL     1      24.078   4.124  52.095  1.00  0.00     0.015 C 
HETATM    7  C11 UNL     1      24.487   4.671  50.961  1.00  0.00     0.037 C 
HETATM    8  C12 UNL     1      23.550   5.694  50.582  1.00  0.00     0.063 C 
HETATM    9  N2  UNL     1      22.383   6.209  51.114  1.00  0.00    -0.272 NA
HETATM   10  C13 UNL     1      21.829   7.219  50.307  1.00  0.00     0.108 A 
HETATM   11  C14 UNL     1      21.025   6.131  50.260  1.00  0.00     0.140 A 
HETATM   12  C15 UNL     1      20.990   4.819  50.866  1.00  0.00     0.075 C 
HETATM   13  C17 UNL     1      21.738   4.225  51.803  1.00  0.00     0.012 C 
HETATM   14  C18 UNL     1      22.841   4.732  52.706  1.00  0.00     0.101 C 
HETATM   15  H13 UNL     1      25.903   3.334  52.381  1.00  0.00     0.166 HD
ENDROOT
BRANCH   4  16
HETATM   16  C7  UNL     1      25.422   0.987  53.436  1.00  0.00     0.039 C 
HETATM   17  C8  UNL     1      26.503   1.354  54.036  1.00  0.00     0.047 C 
BRANCH  17  18
HETATM   18  S1  UNL     1      27.760   0.241  54.565  1.00  0.00    -0.146 SA
HETATM   19  C9  UNL     1      29.378   0.619  53.845  1.00  0.00     0.095 C 
ENDBRANCH  17  18
ENDBRANCH   4  16
BRANCH   3  20
HETATM   20  O2  UNL     1      23.106   0.087  53.728  1.00  0.00    -0.354 OA
HETATM   21  C5  UNL     1      22.340  -1.049  53.373  1.00  0.00     0.210 C 
ENDBRANCH   3  20
BRANCH   1  22
HETATM   22  O1  UNL     1      19.930   2.793  51.528  1.00  0.00    -0.355 OA
HETATM   23  C1  UNL     1      19.065   1.771  51.954  1.00  0.00     0.210 C 
ENDBRANCH   1  22
BRANCH  12  24
HETATM   24  O3  UNL     1      20.002   3.968  50.420  1.00  0.00    -0.358 OA
HETATM   25  C16 UNL     1      19.269   4.206  49.244  1.00  0.00     0.209 C 
ENDBRANCH  12  24
TORSDOF 5
ENDMDL
MODEL 8
REMARK VINA RESULT:      -6.1      2.949      4.723
REMARK  5 active torsions:
REMARK  status: ('A' for Active; 'I' for Inactive)
REMARK    1  A    between atoms: O1_2  and  C2_3 
REMARK    2  A    between atoms: C4_5  and  O2_6 
REMARK    3  A    between atoms: C6_8  and  C7_9 
REMARK    4  A    between atoms: C8_10  and  S1_11 
REMARK    5  A    between atoms: C15_20  and  O3_21 
ROOT
HETATM    1  C2  UNL     1      24.354   2.073  51.470  1.00  0.00     0.080 C 
HETATM    2  C3  UNL     1      24.311   2.827  50.347  1.00  0.00     0.076 C 
HETATM    3  C4  UNL     1      23.274   3.402  49.455  1.00  0.00     0.097 C 
HETATM    4  C6  UNL     1      21.949   3.129  49.294  1.00  0.00     0.066 C 
HETATM    5  N1  UNL     1      20.927   2.309  49.969  1.00  0.00    -0.357 N 
HETATM    6  C10 UNL     1      21.268   1.671  51.192  1.00  0.00     0.015 C 
HETATM    7  C11 UNL     1      20.866   0.410  51.210  1.00  0.00     0.037 C 
HETATM    8  C12 UNL     1      21.282  -0.186  52.452  1.00  0.00     0.063 C 
HETATM    9  N2  UNL     1      21.966   0.246  53.573  1.00  0.00    -0.272 NA
HETATM   10  C13 UNL     1      22.132  -0.777  54.523  1.00  0.00     0.108 A 
HETATM   11  C14 UNL     1      23.339  -0.480  53.986  1.00  0.00     0.140 A 
HETATM   12  C15 UNL     1      23.860   0.466  53.025  1.00  0.00     0.075 C 
HETATM   13  C17 UNL     1      23.312   1.488  52.358  1.00  0.00     0.012 C 
HETATM   14  C18 UNL     1      21.957   2.156  52.442  1.00  0.00     0.101 C 
HETATM   15  H13 UNL     1      19.989   2.064  49.694  1.00  0.00     0.166 HD
ENDROOT
BRANCH   4  16
HETATM   16  C7  UNL     1      21.292   3.749  48.172  1.00  0.00     0.039 C 
HETATM   17  C8  UNL     1      20.444   3.231  47.350  1.00  0.00     0.047 C 
BRANCH  17  18
HETATM   18  S1  UNL     1      19.711   4.108  46.012  1.00  0.00    -0.146 SA
HETATM   19  C9  UNL     1      20.646   3.944  44.470  1.00  0.00     0.095 C 
ENDBRANCH  17  18
ENDBRANCH   4  16
BRANCH   3  20
HETATM   20  O2  UNL     1      23.667   4.402  48.607  1.00  0.00    -0.354 OA
HETATM   21  C5  UNL     1      24.579   5.422  48.974  1.00  0.00     0.210 C 
ENDBRANCH   3  20
BRANCH   1  22
HETATM   22  O1  UNL     1      25.591   1.716  51.972  1.00  0.00    -0.355 OA
HETATM   23  C1  UNL     1      26.731   2.470  51.646  1.00  0.00     0.210 C 
ENDBRANCH   1  22
BRANCH  12  24
HETATM   24  O3  UNL     1      25.190   0.326  52.692  1.00  0.00    -0.358 OA
HETATM   25  C16 UNL     1      25.941  -0.815  53.030  1.00  0.00     0.209 C 
ENDBRANCH  12  24
TORSDOF 5
ENDMDL
MODEL 9
REMARK VINA RESULT:      -6.0      2.802      6.495
REMARK  5 active torsions:
REMARK  status: ('A' for Active; 'I' for Inactive)
REMARK    1  A    between atoms: O1_2  and  C2_3 
REMARK    2  A    between atoms: C4_5  and  O2_6 
REMARK    3  A    between atoms: C6_8  and  C7_9 
REMARK    4  A    between atoms: C8_10  and  S1_11 
REMARK    5  A    between atoms: C15_20  and  O3_21 
ROOT
HETATM    1  C2  UNL     1      23.042   4.362  49.225  1.00  0.00     0.080 C 
HETATM    2  C3  UNL     1      23.104   3.177  49.878  1.00  0.00     0.076 C 
HETATM    3  C4  UNL     1      24.068   2.456  50.744  1.00  0.00     0.097 C 
HETATM    4  C6  UNL     1      25.401   2.624  50.972  1.00  0.00     0.066 C 
HETATM    5  N1  UNL     1      26.437   3.614  50.627  1.00  0.00    -0.357 N 
HETATM    6  C10 UNL     1      26.041   4.814  49.977  1.00  0.00     0.015 C 
HETATM    7  C11 UNL     1      26.835   5.099  48.957  1.00  0.00     0.037 C 
HETATM    8  C12 UNL     1      26.351   6.295  48.320  1.00  0.00     0.063 C 
HETATM    9  N2  UNL     1      25.300   7.168  48.530  1.00  0.00    -0.272 NA
HETATM   10  C13 UNL     1      25.264   8.198  47.573  1.00  0.00     0.108 A 
HETATM   11  C14 UNL     1      24.206   7.377  47.373  1.00  0.00     0.140 A 
HETATM   12  C15 UNL     1      23.651   6.201  48.004  1.00  0.00     0.075 C 
HETATM   13  C17 UNL     1      23.961   5.528  49.118  1.00  0.00     0.012 C 
HETATM   14  C18 UNL     1      24.935   5.804  50.242  1.00  0.00     0.101 C 
HETATM   15  H13 UNL     1      27.439   3.584  50.731  1.00  0.00     0.166 HD
ENDROOT
BRANCH   4  16
HETATM   16  C7  UNL     1      26.064   1.593  51.727  1.00  0.00     0.039 C 
HETATM   17  C8  UNL     1      27.132   1.682  52.444  1.00  0.00     0.047 C 
BRANCH  17  18
HETATM   18  S1  UNL     1      27.841   0.332  53.324  1.00  0.00    -0.146 SA
HETATM   19  C9  UNL     1      29.042   0.861  54.571  1.00  0.00     0.095 C 
ENDBRANCH  17  18
ENDBRANCH   4  16
BRANCH   3  20
HETATM   20  O2  UNL     1      23.581   1.408  51.479  1.00  0.00    -0.354 OA
HETATM   21  C5  UNL     1      22.351   1.452  52.179  1.00  0.00     0.210 C 
ENDBRANCH   3  20
BRANCH   1  22
HETATM   22  O1  UNL     1      21.920   4.633  48.465  1.00  0.00    -0.355 OA
HETATM   23  C1  UNL     1      20.685   4.048  48.793  1.00  0.00     0.210 C 
ENDBRANCH   1  22
BRANCH  12  24
HETATM   24  O3  UNL     1      22.580   5.614  47.363  1.00  0.00    -0.358 OA
HETATM   25  C16 UNL     1      22.240   5.907  46.031  1.00  0.00     0.209 C 
ENDBRANCH  12  24
TORSDOF 5
ENDMDL
