MODEL 1
REMARK VINA RESULT:      -8.7      0.000      0.000
REMARK  5 active torsions:
REMARK  status: ('A' for Active; 'I' for Inactive)
REMARK    1  A    between atoms: C7_7  and  N1_8 
REMARK    2  A    between atoms: N1_8  and  C8_9 
REMARK    3  A    between atoms: C12_15  and  C13_16 
REMARK    4  A    between atoms: C13_16  and  N4_17 
REMARK    5  A    between atoms: C16_20  and  N5_21 
ROOT
HETATM    1  C8  UNL     1      24.616  -0.431  54.033  1.00  0.00     0.152 A 
HETATM    2  N2  UNL     1      24.913  -1.091  55.110  1.00  0.00    -0.251 NA
HETATM    3  C9  UNL     1      23.698  -1.556  55.749  1.00  0.00     0.280 A 
HETATM    4  N3  UNL     1      22.631  -1.102  54.868  1.00  0.00    -0.335 N 
HETATM    5  C10 UNL     1      21.313  -1.091  54.653  1.00  0.00     0.094 A 
HETATM    6  C11 UNL     1      21.078  -0.387  53.490  1.00  0.00     0.028 A 
HETATM    7  C12 UNL     1      22.295   0.064  52.955  1.00  0.00     0.002 A 
HETATM    8  C19 UNL     1      23.191  -0.415  53.849  1.00  0.00     0.090 A 
ENDROOT
BRANCH   7   9
HETATM    9  C13 UNL     1      22.249   0.884  51.755  1.00  0.00     0.313 C 
BRANCH   9  10
HETATM   10  N4  UNL     1      22.719   2.225  51.917  1.00  0.00     0.092 N 
HETATM   11  C14 UNL     1      23.662   2.568  50.900  1.00  0.00     0.275 C 
HETATM   12  C15 UNL     1      24.176   3.988  51.049  1.00  0.00     0.065 C 
HETATM   13  C16 UNL     1      23.496   4.571  52.287  1.00  0.00     0.221 C 
HETATM   14  C17 UNL     1      22.002   4.567  51.992  1.00  0.00     0.065 C 
HETATM   15  C18 UNL     1      21.580   3.119  51.856  1.00  0.00     0.275 C 
BRANCH  13  16
HETATM   16  N5  UNL     1      23.997   5.897  52.497  1.00  0.00     0.083 N 
HETATM   17  H20 UNL     1      23.813   6.544  51.690  1.00  0.00     0.313 HD
HETATM   18  H21 UNL     1      24.991   5.890  52.786  1.00  0.00     0.313 HD
ENDBRANCH  13  16
ENDBRANCH   9  10
ENDBRANCH   7   9
BRANCH   1  19
HETATM   19  N1  UNL     1      25.677   0.102  53.274  1.00  0.00    -0.339 N 
HETATM   20  H8  UNL     1      25.367   0.740  52.521  1.00  0.00     0.167 HD
BRANCH  19  21
HETATM   21  C7  UNL     1      27.070  -0.125  53.379  1.00  0.00     0.039 A 
HETATM   22  C2  UNL     1      27.824  -1.222  53.062  1.00  0.00    -0.035 A 
HETATM   23  C1  UNL     1      27.150  -2.378  52.429  1.00  0.00     0.050 C 
HETATM   24  C3  UNL     1      29.180  -1.340  53.249  1.00  0.00     0.009 A 
HETATM   25  C4  UNL     1      29.882  -0.293  53.796  1.00  0.00     0.001 A 
HETATM   26  C5  UNL     1      29.203   0.849  54.142  1.00  0.00     0.002 A 
HETATM   27  C6  UNL     1      27.847   0.900  53.929  1.00  0.00     0.030 A 
ENDBRANCH  19  21
ENDBRANCH   1  19
TORSDOF 5
ENDMDL
MODEL 2
REMARK VINA RESULT:      -8.7      1.051      1.757
REMARK  5 active torsions:
REMARK  status: ('A' for Active; 'I' for Inactive)
REMARK    1  A    between atoms: C7_7  and  N1_8 
REMARK    2  A    between atoms: N1_8  and  C8_9 
REMARK    3  A    between atoms: C12_15  and  C13_16 
REMARK    4  A    between atoms: C13_16  and  N4_17 
REMARK    5  A    between atoms: C16_20  and  N5_21 
ROOT
HETATM    1  C8  UNL     1      24.648  -0.549  53.842  1.00  0.00     0.152 A 
HETATM    2  N2  UNL     1      24.973  -1.071  54.985  1.00  0.00    -0.251 NA
HETATM    3  C9  UNL     1      23.775  -1.404  55.728  1.00  0.00     0.280 A 
HETATM    4  N3  UNL     1      22.683  -1.034  54.839  1.00  0.00    -0.335 N 
HETATM    5  C10 UNL     1      21.358  -1.006  54.677  1.00  0.00     0.094 A 
HETATM    6  C11 UNL     1      21.092  -0.453  53.442  1.00  0.00     0.028 A 
HETATM    7  C12 UNL     1      22.296  -0.120  52.802  1.00  0.00     0.002 A 
HETATM    8  C19 UNL     1      23.218  -0.507  53.715  1.00  0.00     0.090 A 
ENDROOT
BRANCH   7   9
HETATM    9  C13 UNL     1      22.221   0.536  51.507  1.00  0.00     0.313 C 
BRANCH   9  10
HETATM   10  N4  UNL     1      23.217   1.535  51.272  1.00  0.00     0.092 N 
HETATM   11  C14 UNL     1      23.063   2.124  49.980  1.00  0.00     0.275 C 
HETATM   12  C15 UNL     1      24.108   3.190  49.707  1.00  0.00     0.065 C 
HETATM   13  C16 UNL     1      25.003   3.252  50.944  1.00  0.00     0.221 C 
HETATM   14  C17 UNL     1      24.101   3.665  52.099  1.00  0.00     0.065 C 
HETATM   15  C18 UNL     1      23.093   2.552  52.297  1.00  0.00     0.275 C 
BRANCH  13  16
HETATM   16  N5  UNL     1      26.040   4.210  50.706  1.00  0.00     0.083 N 
HETATM   17  H20 UNL     1      26.736   4.274  51.490  1.00  0.00     0.313 HD
HETATM   18  H21 UNL     1      25.655   5.133  50.436  1.00  0.00     0.313 HD
ENDBRANCH  13  16
ENDBRANCH   9  10
ENDBRANCH   7   9
BRANCH   1  19
HETATM   19  N1  UNL     1      25.689  -0.159  52.977  1.00  0.00    -0.339 N 
HETATM   20  H8  UNL     1      25.357   0.183  52.058  1.00  0.00     0.167 HD
BRANCH  19  21
HETATM   21  C7  UNL     1      27.091  -0.189  53.174  1.00  0.00     0.039 A 
HETATM   22  C2  UNL     1      27.980   0.819  53.427  1.00  0.00    -0.035 A 
HETATM   23  C1  UNL     1      27.453   2.190  53.613  1.00  0.00     0.050 C 
HETATM   24  C3  UNL     1      29.339   0.670  53.561  1.00  0.00     0.009 A 
HETATM   25  C4  UNL     1      29.899  -0.580  53.439  1.00  0.00     0.001 A 
HETATM   26  C5  UNL     1      29.077  -1.650  53.187  1.00  0.00     0.002 A 
HETATM   27  C6  UNL     1      27.727  -1.430  53.064  1.00  0.00     0.030 A 
ENDBRANCH  19  21
ENDBRANCH   1  19
TORSDOF 5
ENDMDL
MODEL 3
REMARK VINA RESULT:      -7.9      1.707      4.865
REMARK  5 active torsions:
REMARK  status: ('A' for Active; 'I' for Inactive)
REMARK    1  A    between atoms: C7_7  and  N1_8 
REMARK    2  A    between atoms: N1_8  and  C8_9 
REMARK    3  A    between atoms: C12_15  and  C13_16 
REMARK    4  A    between atoms: C13_16  and  N4_17 
REMARK    5  A    between atoms: C16_20  and  N5_21 
ROOT
HETATM    1  C8  UNL     1      25.866  -0.227  53.561  1.00  0.00     0.152 A 
HETATM    2  N2  UNL     1      26.484  -0.765  54.568  1.00  0.00    -0.251 NA
HETATM    3  C9  UNL     1      27.717  -0.048  54.823  1.00  0.00     0.280 A 
HETATM    4  N3  UNL     1      27.724   1.023  53.837  1.00  0.00    -0.335 N 
HETATM    5  C10 UNL     1      28.382   2.089  53.376  1.00  0.00     0.094 A 
HETATM    6  C11 UNL     1      27.662   2.611  52.322  1.00  0.00     0.028 A 
HETATM    7  C12 UNL     1      26.507   1.842  52.110  1.00  0.00     0.002 A 
HETATM    8  C19 UNL     1      26.616   0.898  53.074  1.00  0.00     0.090 A 
ENDROOT
BRANCH   7   9
HETATM    9  C13 UNL     1      25.645   2.201  50.995  1.00  0.00     0.313 C 
BRANCH   9  10
HETATM   10  N4  UNL     1      25.036   3.492  51.088  1.00  0.00     0.092 N 
HETATM   11  C14 UNL     1      24.332   3.817  49.889  1.00  0.00     0.275 C 
HETATM   12  C15 UNL     1      23.675   5.183  49.962  1.00  0.00     0.065 C 
HETATM   13  C16 UNL     1      24.022   5.762  51.332  1.00  0.00     0.221 C 
HETATM   14  C17 UNL     1      23.413   4.815  52.359  1.00  0.00     0.065 C 
HETATM   15  C18 UNL     1      24.122   3.485  52.211  1.00  0.00     0.275 C 
BRANCH  13  16
HETATM   16  N5  UNL     1      23.465   7.079  51.423  1.00  0.00     0.083 N 
HETATM   17  H20 UNL     1      22.427   7.083  51.579  1.00  0.00     0.313 HD
HETATM   18  H21 UNL     1      23.752   7.672  50.623  1.00  0.00     0.313 HD
ENDBRANCH  13  16
ENDBRANCH   9  10
ENDBRANCH   7   9
BRANCH   1  19
HETATM   19  N1  UNL     1      24.639  -0.794  53.163  1.00  0.00    -0.339 N 
HETATM   20  H8  UNL     1      24.745  -1.612  52.539  1.00  0.00     0.167 HD
BRANCH  19  21
HETATM   21  C7  UNL     1      23.316  -0.398  53.471  1.00  0.00     0.039 A 
HETATM   22  C2  UNL     1      22.511  -0.714  54.531  1.00  0.00    -0.035 A 
HETATM   23  C1  UNL     1      23.076  -1.546  55.617  1.00  0.00     0.050 C 
HETATM   24  C3  UNL     1      21.214  -0.295  54.702  1.00  0.00     0.009 A 
HETATM   25  C4  UNL     1      20.632   0.513  53.754  1.00  0.00     0.001 A 
HETATM   26  C5  UNL     1      21.371   0.881  52.656  1.00  0.00     0.002 A 
HETATM   27  C6  UNL     1      22.662   0.426  52.547  1.00  0.00     0.030 A 
ENDBRANCH  19  21
ENDBRANCH   1  19
TORSDOF 5
ENDMDL
MODEL 4
REMARK VINA RESULT:      -7.7      2.024      5.565
REMARK  5 active torsions:
REMARK  status: ('A' for Active; 'I' for Inactive)
REMARK    1  A    between atoms: C7_7  and  N1_8 
REMARK    2  A    between atoms: N1_8  and  C8_9 
REMARK    3  A    between atoms: C12_15  and  C13_16 
REMARK    4  A    between atoms: C13_16  and  N4_17 
REMARK    5  A    between atoms: C16_20  and  N5_21 
ROOT
HETATM    1  C8  UNL     1      22.080   1.610  51.700  1.00  0.00     0.152 A 
HETATM    2  N2  UNL     1      20.970   2.268  51.560  1.00  0.00    -0.251 NA
HETATM    3  C9  UNL     1      20.058   1.920  52.630  1.00  0.00     0.280 A 
HETATM    4  N3  UNL     1      20.806   0.979  53.451  1.00  0.00    -0.335 N 
HETATM    5  C10 UNL     1      20.787   0.224  54.552  1.00  0.00     0.094 A 
HETATM    6  C11 UNL     1      21.998  -0.431  54.639  1.00  0.00     0.028 A 
HETATM    7  C12 UNL     1      22.809  -0.076  53.550  1.00  0.00     0.002 A 
HETATM    8  C19 UNL     1      22.014   0.788  52.876  1.00  0.00     0.090 A 
ENDROOT
BRANCH   7   9
HETATM    9  C13 UNL     1      24.110  -0.715  53.431  1.00  0.00     0.313 C 
BRANCH   9  10
HETATM   10  N4  UNL     1      25.232   0.164  53.552  1.00  0.00     0.092 N 
HETATM   11  C14 UNL     1      26.216  -0.375  54.436  1.00  0.00     0.275 C 
HETATM   12  C15 UNL     1      27.420   0.538  54.580  1.00  0.00     0.065 C 
HETATM   13  C16 UNL     1      27.143   1.766  53.714  1.00  0.00     0.221 C 
HETATM   14  C17 UNL     1      27.020   1.257  52.283  1.00  0.00     0.065 C 
HETATM   15  C18 UNL     1      25.804   0.356  52.235  1.00  0.00     0.275 C 
BRANCH  13  16
HETATM   16  N5  UNL     1      28.233   2.683  53.864  1.00  0.00     0.083 N 
HETATM   17  H20 UNL     1      29.053   2.274  54.376  1.00  0.00     0.313 HD
HETATM   18  H21 UNL     1      27.921   3.586  54.264  1.00  0.00     0.313 HD
ENDBRANCH  13  16
ENDBRANCH   9  10
ENDBRANCH   7   9
BRANCH   1  19
HETATM   19  N1  UNL     1      23.094   1.821  50.745  1.00  0.00    -0.339 N 
HETATM   20  H8  UNL     1      23.601   0.957  50.483  1.00  0.00     0.167 HD
BRANCH  19  21
HETATM   21  C7  UNL     1      23.522   3.020  50.126  1.00  0.00     0.039 A 
HETATM   22  C2  UNL     1      23.125   3.615  48.961  1.00  0.00    -0.035 A 
HETATM   23  C1  UNL     1      22.012   3.001  48.202  1.00  0.00     0.050 C 
HETATM   24  C3  UNL     1      23.649   4.772  48.437  1.00  0.00     0.009 A 
HETATM   25  C4  UNL     1      24.659   5.423  49.105  1.00  0.00     0.001 A 
HETATM   26  C5  UNL     1      25.117   4.894  50.286  1.00  0.00     0.002 A 
HETATM   27  C6  UNL     1      24.550   3.733  50.753  1.00  0.00     0.030 A 
ENDBRANCH  19  21
ENDBRANCH   1  19
TORSDOF 5
ENDMDL
MODEL 5
REMARK VINA RESULT:      -7.7      1.947      4.665
REMARK  5 active torsions:
REMARK  status: ('A' for Active; 'I' for Inactive)
REMARK    1  A    between atoms: C7_7  and  N1_8 
REMARK    2  A    between atoms: N1_8  and  C8_9 
REMARK    3  A    between atoms: C12_15  and  C13_16 
REMARK    4  A    between atoms: C13_16  and  N4_17 
REMARK    5  A    between atoms: C16_20  and  N5_21 
ROOT
HETATM    1  C8  UNL     1      26.022   2.903  50.896  1.00  0.00     0.152 A 
HETATM    2  N2  UNL     1      26.527   3.761  50.063  1.00  0.00    -0.251 NA
HETATM    3  C9  UNL     1      25.639   4.898  49.935  1.00  0.00     0.280 A 
HETATM    4  N3  UNL     1      24.542   4.604  50.847  1.00  0.00    -0.335 N 
HETATM    5  C10 UNL     1      23.392   5.047  51.363  1.00  0.00     0.094 A 
HETATM    6  C11 UNL     1      22.927   4.092  52.243  1.00  0.00     0.028 A 
HETATM    7  C12 UNL     1      23.816   3.008  52.282  1.00  0.00     0.002 A 
HETATM    8  C19 UNL     1      24.774   3.397  51.408  1.00  0.00     0.090 A 
ENDROOT
BRANCH   7   9
HETATM    9  C13 UNL     1      23.464   1.866  53.111  1.00  0.00     0.313 C 
BRANCH   9  10
HETATM   10  N4  UNL     1      22.174   1.303  52.855  1.00  0.00     0.092 N 
HETATM   11  C14 UNL     1      22.079   0.822  51.514  1.00  0.00     0.275 C 
HETATM   12  C15 UNL     1      20.719   0.218  51.216  1.00  0.00     0.065 C 
HETATM   13  C16 UNL     1      19.891   0.355  52.493  1.00  0.00     0.221 C 
HETATM   14  C17 UNL     1      20.619  -0.453  53.559  1.00  0.00     0.065 C 
HETATM   15  C18 UNL     1      21.959   0.216  53.787  1.00  0.00     0.275 C 
BRANCH  13  16
HETATM   16  N5  UNL     1      18.577  -0.155  52.239  1.00  0.00     0.083 N 
HETATM   17  H20 UNL     1      18.148  -0.633  53.070  1.00  0.00     0.313 HD
HETATM   18  H21 UNL     1      18.551  -0.738  51.384  1.00  0.00     0.313 HD
ENDBRANCH  13  16
ENDBRANCH   9  10
ENDBRANCH   7   9
BRANCH   1  19
HETATM   19  N1  UNL     1      26.751   1.724  51.149  1.00  0.00    -0.339 N 
HETATM   20  H8  UNL     1      26.784   1.077  50.341  1.00  0.00     0.167 HD
BRANCH  19  21
HETATM   21  C7  UNL     1      27.410   1.300  52.328  1.00  0.00     0.039 A 
HETATM   22  C2  UNL     1      27.375   0.103  52.989  1.00  0.00    -0.035 A 
HETATM   23  C1  UNL     1      26.600  -1.007  52.392  1.00  0.00     0.050 C 
HETATM   24  C3  UNL     1      28.035  -0.181  54.161  1.00  0.00     0.009 A 
HETATM   25  C4  UNL     1      28.807   0.789  54.756  1.00  0.00     0.001 A 
HETATM   26  C5  UNL     1      28.899   2.020  54.156  1.00  0.00     0.002 A 
HETATM   27  C6  UNL     1      28.213   2.237  52.986  1.00  0.00     0.030 A 
ENDBRANCH  19  21
ENDBRANCH   1  19
TORSDOF 5
ENDMDL
MODEL 6
REMARK VINA RESULT:      -7.6      2.329      5.908
REMARK  5 active torsions:
REMARK  status: ('A' for Active; 'I' for Inactive)
REMARK    1  A    between atoms: C7_7  and  N1_8 
REMARK    2  A    between atoms: N1_8  and  C8_9 
REMARK    3  A    between atoms: C12_15  and  C13_16 
REMARK    4  A    between atoms: C13_16  and  N4_17 
REMARK    5  A    between atoms: C16_20  and  N5_21 
ROOT
HETATM    1  C8  UNL     1      21.442   0.156  53.851  1.00  0.00     0.152 A 
HETATM    2  N2  UNL     1      21.443  -0.631  54.883  1.00  0.00    -0.251 NA
HETATM    3  C9  UNL     1      22.770  -1.179  55.077  1.00  0.00     0.280 A 
HETATM    4  N3  UNL     1      23.570  -0.572  54.024  1.00  0.00    -0.335 N 
HETATM    5  C10 UNL     1      24.789  -0.472  53.488  1.00  0.00     0.094 A 
HETATM    6  C11 UNL     1      24.710   0.385  52.410  1.00  0.00     0.028 A 
HETATM    7  C12 UNL     1      23.392   0.841  52.262  1.00  0.00     0.002 A 
HETATM    8  C19 UNL     1      22.760   0.217  53.283  1.00  0.00     0.090 A 
ENDROOT
BRANCH   7   9
HETATM    9  C13 UNL     1      23.094   1.712  51.135  1.00  0.00     0.313 C 
BRANCH   9  10
HETATM   10  N4  UNL     1      23.403   3.094  51.337  1.00  0.00     0.092 N 
HETATM   11  C14 UNL     1      24.000   3.665  50.173  1.00  0.00     0.275 C 
HETATM   12  C15 UNL     1      24.336   5.133  50.361  1.00  0.00     0.065 C 
HETATM   13  C16 UNL     1      23.919   5.497  51.785  1.00  0.00     0.221 C 
HETATM   14  C17 UNL     1      22.414   5.275  51.856  1.00  0.00     0.065 C 
HETATM   15  C18 UNL     1      22.174   3.793  51.655  1.00  0.00     0.275 C 
BRANCH  13  16
HETATM   16  N5  UNL     1      24.270   6.866  52.024  1.00  0.00     0.083 N 
HETATM   17  H20 UNL     1      24.036   7.502  51.223  1.00  0.00     0.313 HD
HETATM   18  H21 UNL     1      25.253   6.960  52.337  1.00  0.00     0.313 HD
ENDBRANCH  13  16
ENDBRANCH   9  10
ENDBRANCH   7   9
BRANCH   1  19
HETATM   19  N1  UNL     1      20.230   0.785  53.504  1.00  0.00    -0.339 N 
HETATM   20  H8  UNL     1      19.951   1.534  54.161  1.00  0.00     0.167 HD
BRANCH  19  21
HETATM   21  C7  UNL     1      19.351   0.528  52.425  1.00  0.00     0.039 A 
HETATM   22  C2  UNL     1      18.360  -0.405  52.282  1.00  0.00    -0.035 A 
HETATM   23  C1  UNL     1      18.047  -1.279  53.434  1.00  0.00     0.050 C 
HETATM   24  C3  UNL     1      17.591  -0.585  51.158  1.00  0.00     0.009 A 
HETATM   25  C4  UNL     1      17.796   0.215  50.060  1.00  0.00     0.001 A 
HETATM   26  C5  UNL     1      18.771   1.181  50.119  1.00  0.00     0.002 A 
HETATM   27  C6  UNL     1      19.504   1.307  51.273  1.00  0.00     0.030 A 
ENDBRANCH  19  21
ENDBRANCH   1  19
TORSDOF 5
ENDMDL
MODEL 7
REMARK VINA RESULT:      -7.5      2.254      5.024
REMARK  5 active torsions:
REMARK  status: ('A' for Active; 'I' for Inactive)
REMARK    1  A    between atoms: C7_7  and  N1_8 
REMARK    2  A    between atoms: N1_8  and  C8_9 
REMARK    3  A    between atoms: C12_15  and  C13_16 
REMARK    4  A    between atoms: C13_16  and  N4_17 
REMARK    5  A    between atoms: C16_20  and  N5_21 
ROOT
HETATM    1  C8  UNL     1      26.211   2.941  50.712  1.00  0.00     0.152 A 
HETATM    2  N2  UNL     1      26.887   3.621  49.838  1.00  0.00    -0.251 NA
HETATM    3  C9  UNL     1      26.173   4.838  49.508  1.00  0.00     0.280 A 
HETATM    4  N3  UNL     1      24.984   4.798  50.347  1.00  0.00    -0.335 N 
HETATM    5  C10 UNL     1      23.870   5.440  50.707  1.00  0.00     0.094 A 
HETATM    6  C11 UNL     1      23.216   4.665  51.643  1.00  0.00     0.028 A 
HETATM    7  C12 UNL     1      23.945   3.490  51.878  1.00  0.00     0.002 A 
HETATM    8  C19 UNL     1      25.008   3.647  51.055  1.00  0.00     0.090 A 
ENDROOT
BRANCH   7   9
HETATM    9  C13 UNL     1      23.382   2.511  52.794  1.00  0.00     0.313 C 
BRANCH   9  10
HETATM   10  N4  UNL     1      22.207   1.843  52.323  1.00  0.00     0.092 N 
HETATM   11  C14 UNL     1      22.445   1.203  51.069  1.00  0.00     0.275 C 
HETATM   12  C15 UNL     1      21.214   0.485  50.548  1.00  0.00     0.065 C 
HETATM   13  C16 UNL     1      20.105   0.721  51.572  1.00  0.00     0.221 C 
HETATM   14  C17 UNL     1      20.587   0.089  52.872  1.00  0.00     0.065 C 
HETATM   15  C18 UNL     1      21.814   0.861  53.312  1.00  0.00     0.275 C 
BRANCH  13  16
HETATM   16  N5  UNL     1      18.904   0.104  51.091  1.00  0.00     0.083 N 
HETATM   17  H20 UNL     1      19.017  -0.917  50.878  1.00  0.00     0.313 HD
HETATM   18  H21 UNL     1      18.491   0.635  50.304  1.00  0.00     0.313 HD
ENDBRANCH  13  16
ENDBRANCH   9  10
ENDBRANCH   7   9
BRANCH   1  19
HETATM   19  N1  UNL     1      26.753   1.718  51.156  1.00  0.00    -0.339 N 
HETATM   20  H8  UNL     1      27.290   1.216  50.428  1.00  0.00     0.167 HD
BRANCH  19  21
HETATM   21  C7  UNL     1      26.649   1.085  52.417  1.00  0.00     0.039 A 
HETATM   22  C2  UNL     1      27.370   1.259  53.567  1.00  0.00    -0.035 A 
HETATM   23  C1  UNL     1      28.398   2.323  53.596  1.00  0.00     0.050 C 
HETATM   24  C3  UNL     1      27.200   0.548  54.731  1.00  0.00     0.009 A 
HETATM   25  C4  UNL     1      26.237  -0.431  54.793  1.00  0.00     0.001 A 
HETATM   26  C5  UNL     1      25.466  -0.670  53.683  1.00  0.00     0.002 A 
HETATM   27  C6  UNL     1      25.688   0.077  52.552  1.00  0.00     0.030 A 
ENDBRANCH  19  21
ENDBRANCH   1  19
TORSDOF 5
ENDMDL
MODEL 8
REMARK VINA RESULT:      -7.5      1.949      5.873
REMARK  5 active torsions:
REMARK  status: ('A' for Active; 'I' for Inactive)
REMARK    1  A    between atoms: C7_7  and  N1_8 
REMARK    2  A    between atoms: N1_8  and  C8_9 
REMARK    3  A    between atoms: C12_15  and  C13_16 
REMARK    4  A    between atoms: C13_16  and  N4_17 
REMARK    5  A    between atoms: C16_20  and  N5_21 
ROOT
HETATM    1  C8  UNL     1      20.531   0.590  51.895  1.00  0.00     0.152 A 
HETATM    2  N2  UNL     1      19.363   0.137  52.235  1.00  0.00    -0.251 NA
HETATM    3  C9  UNL     1      19.490  -0.713  53.401  1.00  0.00     0.280 A 
HETATM    4  N3  UNL     1      20.908  -0.670  53.727  1.00  0.00    -0.335 N 
HETATM    5  C10 UNL     1      21.855  -1.084  54.573  1.00  0.00     0.094 A 
HETATM    6  C11 UNL     1      23.058  -0.554  54.156  1.00  0.00     0.028 A 
HETATM    7  C12 UNL     1      22.862   0.220  53.003  1.00  0.00     0.002 A 
HETATM    8  C19 UNL     1      21.527   0.102  52.807  1.00  0.00     0.090 A 
ENDROOT
BRANCH   7   9
HETATM    9  C13 UNL     1      24.030   0.815  52.373  1.00  0.00     0.313 C 
BRANCH   9  10
HETATM   10  N4  UNL     1      25.274   0.548  53.027  1.00  0.00     0.092 N 
HETATM   11  C14 UNL     1      26.133  -0.238  52.200  1.00  0.00     0.275 C 
HETATM   12  C15 UNL     1      27.462  -0.533  52.870  1.00  0.00     0.065 C 
HETATM   13  C16 UNL     1      27.410   0.120  54.250  1.00  0.00     0.221 C 
HETATM   14  C17 UNL     1      27.251   1.615  54.006  1.00  0.00     0.065 C 
HETATM   15  C18 UNL     1      25.908   1.814  53.334  1.00  0.00     0.275 C 
BRANCH  13  16
HETATM   16  N5  UNL     1      28.628  -0.182  54.942  1.00  0.00     0.083 N 
HETATM   17  H20 UNL     1      28.693   0.269  55.887  1.00  0.00     0.313 HD
HETATM   18  H21 UNL     1      29.459   0.003  54.352  1.00  0.00     0.313 HD
ENDBRANCH  13  16
ENDBRANCH   9  10
ENDBRANCH   7   9
BRANCH   1  19
HETATM   19  N1  UNL     1      20.606   1.440  50.774  1.00  0.00    -0.339 N 
HETATM   20  H8  UNL     1      19.815   1.326  50.115  1.00  0.00     0.167 HD
BRANCH  19  21
HETATM   21  C7  UNL     1      21.596   2.387  50.418  1.00  0.00     0.039 A 
HETATM   22  C2  UNL     1      21.904   3.604  50.961  1.00  0.00    -0.035 A 
HETATM   23  C1  UNL     1      21.172   4.039  52.171  1.00  0.00     0.050 C 
HETATM   24  C3  UNL     1      22.873   4.462  50.498  1.00  0.00     0.009 A 
HETATM   25  C4  UNL     1      23.621   4.110  49.400  1.00  0.00     0.001 A 
HETATM   26  C5  UNL     1      23.379   2.902  48.794  1.00  0.00     0.002 A 
HETATM   27  C6  UNL     1      22.395   2.093  49.308  1.00  0.00     0.030 A 
ENDBRANCH  19  21
ENDBRANCH   1  19
TORSDOF 5
ENDMDL
MODEL 9
REMARK VINA RESULT:      -7.4      1.903      5.084
REMARK  5 active torsions:
REMARK  status: ('A' for Active; 'I' for Inactive)
REMARK    1  A    between atoms: C7_7  and  N1_8 
REMARK    2  A    between atoms: N1_8  and  C8_9 
REMARK    3  A    between atoms: C12_15  and  C13_16 
REMARK    4  A    between atoms: C13_16  and  N4_17 
REMARK    5  A    between atoms: C16_20  and  N5_21 
ROOT
HETATM    1  C8  UNL     1      25.777   3.119  51.068  1.00  0.00     0.152 A 
HETATM    2  N2  UNL     1      26.901   3.215  50.427  1.00  0.00    -0.251 NA
HETATM    3  C9  UNL     1      26.735   4.077  49.275  1.00  0.00     0.280 A 
HETATM    4  N3  UNL     1      25.346   4.509  49.344  1.00  0.00    -0.335 N 
HETATM    5  C10 UNL     1      24.399   5.262  48.779  1.00  0.00     0.094 A 
HETATM    6  C11 UNL     1      23.244   5.117  49.519  1.00  0.00     0.028 A 
HETATM    7  C12 UNL     1      23.472   4.240  50.589  1.00  0.00     0.002 A 
HETATM    8  C19 UNL     1      24.775   3.916  50.416  1.00  0.00     0.090 A 
ENDROOT
BRANCH   7   9
HETATM    9  C13 UNL     1      22.349   3.911  51.453  1.00  0.00     0.313 C 
BRANCH   9  10
HETATM   10  N4  UNL     1      22.294   2.549  51.886  1.00  0.00     0.092 N 
HETATM   11  C14 UNL     1      21.249   2.352  52.839  1.00  0.00     0.275 C 
HETATM   12  C15 UNL     1      21.167   0.913  53.313  1.00  0.00     0.065 C 
HETATM   13  C16 UNL     1      22.281   0.153  52.595  1.00  0.00     0.221 C 
HETATM   14  C17 UNL     1      21.968   0.249  51.107  1.00  0.00     0.065 C 
HETATM   15  C18 UNL     1      22.068   1.711  50.725  1.00  0.00     0.275 C 
BRANCH  13  16
HETATM   16  N5  UNL     1      22.276  -1.203  53.057  1.00  0.00     0.083 N 
HETATM   17  H20 UNL     1      23.228  -1.645  53.060  1.00  0.00     0.313 HD
HETATM   18  H21 UNL     1      21.570  -1.775  52.558  1.00  0.00     0.313 HD
ENDBRANCH  13  16
ENDBRANCH   9  10
ENDBRANCH   7   9
BRANCH   1  19
HETATM   19  N1  UNL     1      25.745   2.315  52.225  1.00  0.00    -0.339 N 
HETATM   20  H8  UNL     1      25.030   2.608  52.912  1.00  0.00     0.167 HD
BRANCH  19  21
HETATM   21  C7  UNL     1      26.549   1.206  52.581  1.00  0.00     0.039 A 
HETATM   22  C2  UNL     1      27.785   1.149  53.164  1.00  0.00    -0.035 A 
HETATM   23  C1  UNL     1      28.419   2.415  53.592  1.00  0.00     0.050 C 
HETATM   24  C3  UNL     1      28.491  -0.001  53.428  1.00  0.00     0.009 A 
HETATM   25  C4  UNL     1      27.950  -1.220  53.095  1.00  0.00     0.001 A 
HETATM   26  C5  UNL     1      26.710  -1.254  52.506  1.00  0.00     0.002 A 
HETATM   27  C6  UNL     1      26.059  -0.067  52.270  1.00  0.00     0.030 A 
ENDBRANCH  19  21
ENDBRANCH   1  19
TORSDOF 5
ENDMDL
