MODEL 1
REMARK VINA RESULT:      -7.2      0.000      0.000
REMARK  4 active torsions:
REMARK  status: ('A' for Active; 'I' for Inactive)
REMARK    1  A    between atoms: C2_2  and  C3_3 
REMARK    2  A    between atoms: C4_4  and  C5_5 
REMARK    3  A    between atoms: N3_11  and  N4_12 
REMARK    4  A    between atoms: C12_16  and  O1_17 
ROOT
HETATM    1  C5  UNL     1      25.393   1.149  52.051  1.00  0.00     0.090 A 
HETATM    2  N1  UNL     1      26.507   0.402  51.831  1.00  0.00    -0.240 NA
HETATM    3  C6  UNL     1      26.650  -0.667  52.670  1.00  0.00     0.236 A 
HETATM    4  N2  UNL     1      25.699  -0.860  53.597  1.00  0.00    -0.215 NA
HETATM    5  C7  UNL     1      24.632  -0.117  53.783  1.00  0.00     0.201 A 
HETATM    6  C8  UNL     1      24.375   0.998  52.994  1.00  0.00     0.132 A 
HETATM    7  N3  UNL     1      23.420   2.067  52.800  1.00  0.00    -0.292 N 
HETATM    8  C9  UNL     1      22.110   1.547  52.443  1.00  0.00     0.152 C 
HETATM    9  C10 UNL     1      21.468   1.099  53.721  1.00  0.00     0.051 C 
HETATM   10  C11 UNL     1      20.252   0.284  53.524  1.00  0.00     0.011 C 
HETATM   11  C12 UNL     1      20.477  -0.982  53.856  1.00  0.00     0.066 C 
HETATM   12  C14 UNL     1      21.612  -1.697  54.338  1.00  0.00     0.061 C 
HETATM   13  C15 UNL     1      22.868  -1.495  54.658  1.00  0.00     0.147 C 
HETATM   14  O2  UNL     1      24.060  -0.814  54.854  1.00  0.00    -0.302 OA
ENDROOT
BRANCH   1  15
HETATM   15  C4  UNL     1      25.326   2.272  51.080  1.00  0.00     0.034 C 
HETATM   16  C3  UNL     1      26.449   2.666  50.504  1.00  0.00     0.002 C 
BRANCH  16  17
HETATM   17  C2  UNL     1      26.724   3.691  49.549  1.00  0.00    -0.010 C 
HETATM   18  C1  UNL     1      26.055   4.781  49.266  1.00  0.00     0.011 C 
ENDBRANCH  16  17
ENDBRANCH   1  15
BRANCH   7  19
HETATM   19  N4  UNL     1      23.957   3.307  53.006  1.00  0.00    -0.342 N 
HETATM   20  H7  UNL     1      24.570   3.671  52.286  1.00  0.00     0.177 HD
HETATM   21  H8  UNL     1      23.337   3.990  53.473  1.00  0.00     0.177 HD
ENDBRANCH   7  19
BRANCH  11  22
HETATM   22  O1  UNL     1      19.315  -1.699  53.662  1.00  0.00    -0.356 OA
HETATM   23  C13 UNL     1      18.100  -1.161  53.182  1.00  0.00     0.210 C 
ENDBRANCH  11  22
TORSDOF 4
ENDMDL
MODEL 2
REMARK VINA RESULT:      -7.1      2.969      5.587
REMARK  4 active torsions:
REMARK  status: ('A' for Active; 'I' for Inactive)
REMARK    1  A    between atoms: C2_2  and  C3_3 
REMARK    2  A    between atoms: C4_4  and  C5_5 
REMARK    3  A    between atoms: N3_11  and  N4_12 
REMARK    4  A    between atoms: C12_16  and  O1_17 
ROOT
HETATM    1  C5  UNL     1      25.679   0.438  52.598  1.00  0.00     0.090 A 
HETATM    2  N1  UNL     1      24.951  -0.584  53.118  1.00  0.00    -0.240 NA
HETATM    3  C6  UNL     1      23.643  -0.280  53.372  1.00  0.00     0.236 A 
HETATM    4  N2  UNL     1      23.230   0.965  53.088  1.00  0.00    -0.215 NA
HETATM    5  C7  UNL     1      23.962   1.932  52.585  1.00  0.00     0.201 A 
HETATM    6  C8  UNL     1      25.306   1.746  52.283  1.00  0.00     0.132 A 
HETATM    7  N3  UNL     1      26.466   2.430  51.755  1.00  0.00    -0.292 N 
HETATM    8  C9  UNL     1      26.247   2.860  50.383  1.00  0.00     0.152 C 
HETATM    9  C10 UNL     1      25.438   4.120  50.457  1.00  0.00     0.051 C 
HETATM   10  C11 UNL     1      24.878   4.546  49.158  1.00  0.00     0.011 C 
HETATM   11  C12 UNL     1      23.561   4.376  49.137  1.00  0.00     0.066 C 
HETATM   12  C14 UNL     1      22.608   3.875  50.071  1.00  0.00     0.061 C 
HETATM   13  C15 UNL     1      22.552   3.380  51.285  1.00  0.00     0.147 C 
HETATM   14  O2  UNL     1      22.991   2.939  52.525  1.00  0.00    -0.302 OA
ENDROOT
BRANCH   1  15
HETATM   15  C4  UNL     1      27.077  -0.001  52.346  1.00  0.00     0.034 C 
HETATM   16  C3  UNL     1      27.619  -0.867  53.185  1.00  0.00     0.002 C 
BRANCH  16  17
HETATM   17  C2  UNL     1      28.909  -1.477  53.227  1.00  0.00    -0.010 C 
HETATM   18  C1  UNL     1      30.035  -1.033  53.726  1.00  0.00     0.011 C 
ENDBRANCH  16  17
ENDBRANCH   1  15
BRANCH   7  19
HETATM   19  N4  UNL     1      27.487   2.527  52.658  1.00  0.00    -0.342 N 
HETATM   20  H7  UNL     1      27.388   3.213  53.397  1.00  0.00     0.177 HD
HETATM   21  H8  UNL     1      27.941   1.634  52.915  1.00  0.00     0.177 HD
ENDBRANCH   7  19
BRANCH  11  22
HETATM   22  O1  UNL     1      23.085   4.792  47.911  1.00  0.00    -0.356 OA
HETATM   23  C13 UNL     1      22.018   4.190  47.209  1.00  0.00     0.210 C 
ENDBRANCH  11  22
TORSDOF 4
ENDMDL
MODEL 3
REMARK VINA RESULT:      -6.9      1.698      2.145
REMARK  4 active torsions:
REMARK  status: ('A' for Active; 'I' for Inactive)
REMARK    1  A    between atoms: C2_2  and  C3_3 
REMARK    2  A    between atoms: C4_4  and  C5_5 
REMARK    3  A    between atoms: N3_11  and  N4_12 
REMARK    4  A    between atoms: C12_16  and  O1_17 
ROOT
HETATM    1  C5  UNL     1      25.664   2.779  51.185  1.00  0.00     0.090 A 
HETATM    2  N1  UNL     1      26.776   2.002  51.109  1.00  0.00    -0.240 NA
HETATM    3  C6  UNL     1      26.719   0.853  51.845  1.00  0.00     0.236 A 
HETATM    4  N2  UNL     1      25.599   0.621  52.548  1.00  0.00    -0.215 NA
HETATM    5  C7  UNL     1      24.540   1.395  52.600  1.00  0.00     0.201 A 
HETATM    6  C8  UNL     1      24.476   2.591  51.894  1.00  0.00     0.132 A 
HETATM    7  N3  UNL     1      23.611   3.719  51.631  1.00  0.00    -0.292 N 
HETATM    8  C9  UNL     1      22.381   3.302  50.977  1.00  0.00     0.152 C 
HETATM    9  C10 UNL     1      21.487   2.767  52.055  1.00  0.00     0.051 C 
HETATM   10  C11 UNL     1      20.310   2.036  51.545  1.00  0.00     0.011 C 
HETATM   11  C12 UNL     1      20.426   0.734  51.784  1.00  0.00     0.066 C 
HETATM   12  C14 UNL     1      21.422  -0.078  52.400  1.00  0.00     0.061 C 
HETATM   13  C15 UNL     1      22.597   0.030  52.974  1.00  0.00     0.147 C 
HETATM   14  O2  UNL     1      23.748   0.630  53.465  1.00  0.00    -0.302 OA
ENDROOT
BRANCH   1  15
HETATM   15  C4  UNL     1      25.823   3.991  50.339  1.00  0.00     0.034 C 
HETATM   16  C3  UNL     1      26.870   4.057  49.535  1.00  0.00     0.002 C 
BRANCH  16  17
HETATM   17  C2  UNL     1      27.305   5.057  48.614  1.00  0.00    -0.010 C 
HETATM   18  C1  UNL     1      28.513   5.474  48.331  1.00  0.00     0.011 C 
ENDBRANCH  16  17
ENDBRANCH   1  15
BRANCH   7  19
HETATM   19  N4  UNL     1      24.134   4.907  52.061  1.00  0.00    -0.342 N 
HETATM   20  H7  UNL     1      24.989   5.222  51.618  1.00  0.00     0.177 HD
HETATM   21  H8  UNL     1      23.444   5.636  52.306  1.00  0.00     0.177 HD
ENDBRANCH   7  19
BRANCH  11  22
HETATM   22  O1  UNL     1      19.304   0.097  51.297  1.00  0.00    -0.356 OA
HETATM   23  C13 UNL     1      18.282  -0.466  52.093  1.00  0.00     0.210 C 
ENDBRANCH  11  22
TORSDOF 4
ENDMDL
MODEL 4
REMARK VINA RESULT:      -6.7      2.585      5.173
REMARK  4 active torsions:
REMARK  status: ('A' for Active; 'I' for Inactive)
REMARK    1  A    between atoms: C2_2  and  C3_3 
REMARK    2  A    between atoms: C4_4  and  C5_5 
REMARK    3  A    between atoms: N3_11  and  N4_12 
REMARK    4  A    between atoms: C12_16  and  O1_17 
ROOT
HETATM    1  C5  UNL     1      22.081   3.138  51.736  1.00  0.00     0.090 A 
HETATM    2  N1  UNL     1      20.838   3.242  52.275  1.00  0.00    -0.240 NA
HETATM    3  C6  UNL     1      20.382   2.105  52.879  1.00  0.00     0.236 A 
HETATM    4  N2  UNL     1      21.191   1.033  52.875  1.00  0.00    -0.215 NA
HETATM    5  C7  UNL     1      22.389   0.966  52.343  1.00  0.00     0.201 A 
HETATM    6  C8  UNL     1      22.963   2.056  51.701  1.00  0.00     0.132 A 
HETATM    7  N3  UNL     1      24.160   2.474  51.003  1.00  0.00    -0.292 N 
HETATM    8  C9  UNL     1      25.327   2.405  51.867  1.00  0.00     0.152 C 
HETATM    9  C10 UNL     1      25.750   0.966  51.894  1.00  0.00     0.051 C 
HETATM   10  C11 UNL     1      26.744   0.658  52.942  1.00  0.00     0.011 C 
HETATM   11  C12 UNL     1      26.197  -0.075  53.905  1.00  0.00     0.066 C 
HETATM   12  C14 UNL     1      24.892  -0.600  54.137  1.00  0.00     0.061 C 
HETATM   13  C15 UNL     1      23.702  -0.620  53.584  1.00  0.00     0.147 C 
HETATM   14  O2  UNL     1      22.699  -0.362  52.660  1.00  0.00    -0.302 OA
ENDROOT
BRANCH   1  15
HETATM   15  C4  UNL     1      22.486   4.428  51.120  1.00  0.00     0.034 C 
HETATM   16  C3  UNL     1      21.723   5.487  51.333  1.00  0.00     0.002 C 
BRANCH  16  17
HETATM   17  C2  UNL     1      21.827   6.842  50.896  1.00  0.00    -0.010 C 
HETATM   18  C1  UNL     1      22.887   7.575  50.669  1.00  0.00     0.011 C 
ENDBRANCH  16  17
ENDBRANCH   1  15
BRANCH   7  19
HETATM   19  N4  UNL     1      23.925   2.824  49.702  1.00  0.00    -0.342 N 
HETATM   20  H7  UNL     1      23.005   2.623  49.328  1.00  0.00     0.177 HD
HETATM   21  H8  UNL     1      24.368   3.705  49.390  1.00  0.00     0.177 HD
ENDBRANCH   7  19
BRANCH  11  22
HETATM   22  O1  UNL     1      27.162  -0.343  54.854  1.00  0.00    -0.356 OA
HETATM   23  C13 UNL     1      28.453   0.230  54.882  1.00  0.00     0.210 C 
ENDBRANCH  11  22
TORSDOF 4
ENDMDL
MODEL 5
REMARK VINA RESULT:      -6.6      3.405      7.021
REMARK  4 active torsions:
REMARK  status: ('A' for Active; 'I' for Inactive)
REMARK    1  A    between atoms: C2_2  and  C3_3 
REMARK    2  A    between atoms: C4_4  and  C5_5 
REMARK    3  A    between atoms: N3_11  and  N4_12 
REMARK    4  A    between atoms: C12_16  and  O1_17 
ROOT
HETATM    1  C5  UNL     1      24.636   1.993  52.216  1.00  0.00     0.090 A 
HETATM    2  N1  UNL     1      25.593   1.626  53.108  1.00  0.00    -0.240 NA
HETATM    3  C6  UNL     1      26.875   1.828  52.683  1.00  0.00     0.236 A 
HETATM    4  N2  UNL     1      27.047   2.354  51.460  1.00  0.00    -0.215 NA
HETATM    5  C7  UNL     1      26.098   2.698  50.620  1.00  0.00     0.201 A 
HETATM    6  C8  UNL     1      24.754   2.542  50.937  1.00  0.00     0.132 A 
HETATM    7  N3  UNL     1      23.423   2.747  50.410  1.00  0.00    -0.292 N 
HETATM    8  C9  UNL     1      23.168   4.155  50.150  1.00  0.00     0.152 C 
HETATM    9  C10 UNL     1      23.822   4.469  48.838  1.00  0.00     0.051 C 
HETATM   10  C11 UNL     1      23.912   5.914  48.548  1.00  0.00     0.011 C 
HETATM   11  C12 UNL     1      25.171   6.330  48.627  1.00  0.00     0.066 C 
HETATM   12  C14 UNL     1      26.410   5.697  48.934  1.00  0.00     0.061 C 
HETATM   13  C15 UNL     1      26.885   4.518  49.261  1.00  0.00     0.147 C 
HETATM   14  O2  UNL     1      26.893   3.164  49.565  1.00  0.00    -0.302 OA
ENDROOT
BRANCH   1  15
HETATM   15  C4  UNL     1      23.283   1.746  52.779  1.00  0.00     0.034 C 
HETATM   16  C3  UNL     1      23.078   0.618  53.437  1.00  0.00     0.002 C 
BRANCH  16  17
HETATM   17  C2  UNL     1      21.923   0.088  54.087  1.00  0.00    -0.010 C 
HETATM   18  C1  UNL     1      21.713  -1.099  54.598  1.00  0.00     0.011 C 
ENDBRANCH  16  17
ENDBRANCH   1  15
BRANCH   7  19
HETATM   19  N4  UNL     1      22.719   1.583  50.267  1.00  0.00    -0.342 N 
HETATM   20  H7  UNL     1      22.435   1.108  51.116  1.00  0.00     0.177 HD
HETATM   21  H8  UNL     1      22.052   1.560  49.479  1.00  0.00     0.177 HD
ENDBRANCH   7  19
BRANCH  11  22
HETATM   22  O1  UNL     1      25.205   7.680  48.344  1.00  0.00    -0.356 OA
HETATM   23  C13 UNL     1      25.057   8.242  47.056  1.00  0.00     0.210 C 
ENDBRANCH  11  22
TORSDOF 4
ENDMDL
MODEL 6
REMARK VINA RESULT:      -6.1      9.813     13.237
REMARK  4 active torsions:
REMARK  status: ('A' for Active; 'I' for Inactive)
REMARK    1  A    between atoms: C2_2  and  C3_3 
REMARK    2  A    between atoms: C4_4  and  C5_5 
REMARK    3  A    between atoms: N3_11  and  N4_12 
REMARK    4  A    between atoms: C12_16  and  O1_17 
ROOT
HETATM    1  C5  UNL     1      31.460   5.180  47.880  1.00  0.00     0.090 A 
HETATM    2  N1  UNL     1      30.174   4.745  47.833  1.00  0.00    -0.240 NA
HETATM    3  C6  UNL     1      29.244   5.675  48.204  1.00  0.00     0.236 A 
HETATM    4  N2  UNL     1      29.691   6.888  48.567  1.00  0.00    -0.215 NA
HETATM    5  C7  UNL     1      30.945   7.277  48.601  1.00  0.00     0.201 A 
HETATM    6  C8  UNL     1      31.982   6.422  48.247  1.00  0.00     0.132 A 
HETATM    7  N3  UNL     1      33.422   6.361  48.120  1.00  0.00    -0.292 N 
HETATM    8  C9  UNL     1      33.908   7.313  47.135  1.00  0.00     0.152 C 
HETATM    9  C10 UNL     1      33.945   8.648  47.817  1.00  0.00     0.051 C 
HETATM   10  C11 UNL     1      34.141   9.783  46.894  1.00  0.00     0.011 C 
HETATM   11  C12 UNL     1      33.029  10.503  46.792  1.00  0.00     0.066 C 
HETATM   12  C14 UNL     1      31.726  10.404  47.362  1.00  0.00     0.061 C 
HETATM   13  C15 UNL     1      31.038   9.641  48.177  1.00  0.00     0.147 C 
HETATM   14  O2  UNL     1      30.758   8.593  49.042  1.00  0.00    -0.302 OA
ENDROOT
BRANCH   1  15
HETATM   15  C4  UNL     1      32.385   4.102  47.445  1.00  0.00     0.034 C 
HETATM   16  C3  UNL     1      31.863   2.946  47.070  1.00  0.00     0.002 C 
BRANCH  16  17
HETATM   17  C2  UNL     1      32.459   1.734  46.608  1.00  0.00    -0.010 C 
HETATM   18  C1  UNL     1      32.022   0.502  46.671  1.00  0.00     0.011 C 
ENDBRANCH  16  17
ENDBRANCH   1  15
BRANCH   7  19
HETATM   19  N4  UNL     1      33.993   5.440  48.955  1.00  0.00    -0.342 N 
HETATM   20  H7  UNL     1      33.686   5.439  49.921  1.00  0.00     0.177 HD
HETATM   21  H8  UNL     1      34.191   4.518  48.532  1.00  0.00     0.177 HD
ENDBRANCH   7  19
BRANCH  11  22
HETATM   22  O1  UNL     1      33.263  11.552  45.927  1.00  0.00    -0.356 OA
HETATM   23  C13 UNL     1      32.326  12.065  45.003  1.00  0.00     0.210 C 
ENDBRANCH  11  22
TORSDOF 4
ENDMDL
MODEL 7
REMARK VINA RESULT:      -6.1      4.956      6.573
REMARK  4 active torsions:
REMARK  status: ('A' for Active; 'I' for Inactive)
REMARK    1  A    between atoms: C2_2  and  C3_3 
REMARK    2  A    between atoms: C4_4  and  C5_5 
REMARK    3  A    between atoms: N3_11  and  N4_12 
REMARK    4  A    between atoms: C12_16  and  O1_17 
ROOT
HETATM    1  C5  UNL     1      26.464   5.407  49.315  1.00  0.00     0.090 A 
HETATM    2  N1  UNL     1      26.922   4.152  49.065  1.00  0.00    -0.240 NA
HETATM    3  C6  UNL     1      26.230   3.157  49.696  1.00  0.00     0.236 A 
HETATM    4  N2  UNL     1      25.198   3.518  50.475  1.00  0.00    -0.215 NA
HETATM    5  C7  UNL     1      24.781   4.743  50.696  1.00  0.00     0.201 A 
HETATM    6  C8  UNL     1      25.402   5.840  50.112  1.00  0.00     0.132 A 
HETATM    7  N3  UNL     1      25.341   7.283  50.033  1.00  0.00    -0.292 N 
HETATM    8  C9  UNL     1      24.080   7.729  49.461  1.00  0.00     0.152 C 
HETATM    9  C10 UNL     1      23.067   7.666  50.565  1.00  0.00     0.051 C 
HETATM   10  C11 UNL     1      21.672   7.809  50.102  1.00  0.00     0.011 C 
HETATM   11  C12 UNL     1      21.022   6.656  50.209  1.00  0.00     0.066 C 
HETATM   12  C14 UNL     1      21.381   5.349  50.653  1.00  0.00     0.061 C 
HETATM   13  C15 UNL     1      22.416   4.694  51.123  1.00  0.00     0.147 C 
HETATM   14  O2  UNL     1      23.713   4.463  51.557  1.00  0.00    -0.302 OA
ENDROOT
BRANCH   1  15
HETATM   15  C4  UNL     1      27.273   6.408  48.573  1.00  0.00     0.034 C 
HETATM   16  C3  UNL     1      28.488   6.063  48.182  1.00  0.00     0.002 C 
BRANCH  16  17
HETATM   17  C2  UNL     1      29.499   6.772  47.467  1.00  0.00    -0.010 C 
HETATM   18  C1  UNL     1      29.390   7.710  46.560  1.00  0.00     0.011 C 
ENDBRANCH  16  17
ENDBRANCH   1  15
BRANCH   7  19
HETATM   19  N4  UNL     1      26.463   7.894  50.520  1.00  0.00    -0.342 N 
HETATM   20  H7  UNL     1      26.363   8.432  51.373  1.00  0.00     0.177 HD
HETATM   21  H8  UNL     1      27.343   7.363  50.409  1.00  0.00     0.177 HD
ENDBRANCH   7  19
BRANCH  11  22
HETATM   22  O1  UNL     1      19.727   6.840  49.772  1.00  0.00    -0.356 OA
HETATM   23  C13 UNL     1      19.230   6.437  48.513  1.00  0.00     0.210 C 
ENDBRANCH  11  22
TORSDOF 4
ENDMDL
MODEL 8
REMARK VINA RESULT:      -6.0      3.523      5.793
REMARK  4 active torsions:
REMARK  status: ('A' for Active; 'I' for Inactive)
REMARK    1  A    between atoms: C2_2  and  C3_3 
REMARK    2  A    between atoms: C4_4  and  C5_5 
REMARK    3  A    between atoms: N3_11  and  N4_12 
REMARK    4  A    between atoms: C12_16  and  O1_17 
ROOT
HETATM    1  C5  UNL     1      22.866   1.274  52.895  1.00  0.00     0.090 A 
HETATM    2  N1  UNL     1      22.156   0.199  53.327  1.00  0.00    -0.240 NA
HETATM    3  C6  UNL     1      20.804   0.388  53.369  1.00  0.00     0.236 A 
HETATM    4  N2  UNL     1      20.334   1.587  52.990  1.00  0.00    -0.215 NA
HETATM    5  C7  UNL     1      21.049   2.608  52.578  1.00  0.00     0.201 A 
HETATM    6  C8  UNL     1      22.434   2.539  52.490  1.00  0.00     0.132 A 
HETATM    7  N3  UNL     1      23.598   3.317  52.126  1.00  0.00    -0.292 N 
HETATM    8  C9  UNL     1      23.558   3.705  50.725  1.00  0.00     0.152 C 
HETATM    9  C10 UNL     1      22.641   4.888  50.639  1.00  0.00     0.051 C 
HETATM   10  C11 UNL     1      22.255   5.243  49.258  1.00  0.00     0.011 C 
HETATM   11  C12 UNL     1      20.977   4.955  49.040  1.00  0.00     0.066 C 
HETATM   12  C14 UNL     1      19.937   4.384  49.832  1.00  0.00     0.061 C 
HETATM   13  C15 UNL     1      19.737   3.904  51.036  1.00  0.00     0.147 C 
HETATM   14  O2  UNL     1      20.015   3.522  52.341  1.00  0.00    -0.302 OA
ENDROOT
BRANCH   1  15
HETATM   15  C4  UNL     1      24.318   0.959  52.873  1.00  0.00     0.034 C 
HETATM   16  C3  UNL     1      24.702  -0.240  53.277  1.00  0.00     0.002 C 
BRANCH  16  17
HETATM   17  C2  UNL     1      25.990  -0.846  53.376  1.00  0.00    -0.010 C 
HETATM   18  C1  UNL     1      26.760  -1.347  52.444  1.00  0.00     0.011 C 
ENDBRANCH  16  17
ENDBRANCH   1  15
BRANCH   7  19
HETATM   19  N4  UNL     1      24.455   3.518  53.172  1.00  0.00    -0.342 N 
HETATM   20  H7  UNL     1      24.133   3.243  54.093  1.00  0.00     0.177 HD
HETATM   21  H8  UNL     1      25.456   3.359  52.966  1.00  0.00     0.177 HD
ENDBRANCH   7  19
BRANCH  11  22
HETATM   22  O1  UNL     1      20.662   5.309  47.745  1.00  0.00    -0.356 OA
HETATM   23  C13 UNL     1      21.095   4.622  46.589  1.00  0.00     0.210 C 
ENDBRANCH  11  22
TORSDOF 4
ENDMDL
MODEL 9
REMARK VINA RESULT:      -6.0      9.435     12.456
REMARK  4 active torsions:
REMARK  status: ('A' for Active; 'I' for Inactive)
REMARK    1  A    between atoms: C2_2  and  C3_3 
REMARK    2  A    between atoms: C4_4  and  C5_5 
REMARK    3  A    between atoms: N3_11  and  N4_12 
REMARK    4  A    between atoms: C12_16  and  O1_17 
ROOT
HETATM    1  C5  UNL     1      29.506   7.143  48.358  1.00  0.00     0.090 A 
HETATM    2  N1  UNL     1      28.477   6.352  47.956  1.00  0.00    -0.240 NA
HETATM    3  C6  UNL     1      27.235   6.875  48.179  1.00  0.00     0.236 A 
HETATM    4  N2  UNL     1      27.167   8.084  48.758  1.00  0.00    -0.215 NA
HETATM    5  C7  UNL     1      28.183   8.824  49.135  1.00  0.00     0.201 A 
HETATM    6  C8  UNL     1      29.496   8.402  48.962  1.00  0.00     0.132 A 
HETATM    7  N3  UNL     1      30.866   8.805  49.186  1.00  0.00    -0.292 N 
HETATM    8  C9  UNL     1      31.189  10.016  48.448  1.00  0.00     0.152 C 
HETATM    9  C10 UNL     1      30.639  11.159  49.247  1.00  0.00     0.051 C 
HETATM   10  C11 UNL     1      30.620  12.442  48.516  1.00  0.00     0.011 C 
HETATM   11  C12 UNL     1      29.375  12.794  48.218  1.00  0.00     0.066 C 
HETATM   12  C14 UNL     1      28.095  12.206  48.439  1.00  0.00     0.061 C 
HETATM   13  C15 UNL     1      27.557  11.140  48.983  1.00  0.00     0.147 C 
HETATM   14  O2  UNL     1      27.480   9.923  49.645  1.00  0.00    -0.302 OA
ENDROOT
BRANCH   1  15
HETATM   15  C4  UNL     1      30.807   6.491  48.058  1.00  0.00     0.034 C 
HETATM   16  C3  UNL     1      30.807   5.197  47.785  1.00  0.00     0.002 C 
BRANCH  16  17
HETATM   17  C2  UNL     1      31.860   4.289  47.461  1.00  0.00    -0.010 C 
HETATM   18  C1  UNL     1      32.174   3.736  46.318  1.00  0.00     0.011 C 
ENDBRANCH  16  17
ENDBRANCH   1  15
BRANCH   7  19
HETATM   19  N4  UNL     1      31.536   7.973  50.039  1.00  0.00    -0.342 N 
HETATM   20  H7  UNL     1      31.632   8.277  51.001  1.00  0.00     0.177 HD
HETATM   21  H8  UNL     1      31.384   6.962  49.887  1.00  0.00     0.177 HD
ENDBRANCH   7  19
BRANCH  11  22
HETATM   22  O1  UNL     1      29.409  13.998  47.544  1.00  0.00    -0.356 OA
HETATM   23  C13 UNL     1      28.272  14.727  47.130  1.00  0.00     0.210 C 
ENDBRANCH  11  22
TORSDOF 4
ENDMDL
