MODEL 1
REMARK VINA RESULT:      -8.7      0.000      0.000
REMARK  5 active torsions:
REMARK  status: ('A' for Active; 'I' for Inactive)
REMARK    1  A    between atoms: O1_2  and  C2_3 
REMARK    2  A    between atoms: C10_14  and  C11_15 
REMARK    3  A    between atoms: C19_23  and  N4_24 
REMARK    4  A    between atoms: N4_24  and  C20_25 
REMARK    5  A    between atoms: C20_25  and  C22_27 
ROOT
HETATM    1  C2  UNL     1      25.263   2.486  51.539  1.00  0.00     0.074 C 
HETATM    2  C3  UNL     1      26.581   2.426  51.823  1.00  0.00     0.054 C 
HETATM    3  C4  UNL     1      27.488   1.497  52.541  1.00  0.00     0.120 C 
HETATM    4  N1  UNL     1      27.362   0.411  53.155  1.00  0.00    -0.254 NA
HETATM    5  C5  UNL     1      28.338  -0.373  53.801  1.00  0.00     0.228 C 
HETATM    6  N2  UNL     1      27.390  -1.231  53.728  1.00  0.00    -0.264 NA
HETATM    7  C6  UNL     1      26.101  -1.007  53.153  1.00  0.00     0.272 C 
HETATM    8  N3  UNL     1      25.432   0.020  53.968  1.00  0.00    -0.371 N 
HETATM    9  C7  UNL     1      24.121   0.163  53.448  1.00  0.00     0.038 A 
HETATM   10  C8  UNL     1      23.346  -0.753  54.124  1.00  0.00     0.031 A 
HETATM   11  C9  UNL     1      21.976  -0.986  53.938  1.00  0.00     0.014 A 
HETATM   12  C10 UNL     1      21.353  -0.212  52.982  1.00  0.00    -0.025 A 
HETATM   13  C17 UNL     1      22.152   0.712  52.307  1.00  0.00     0.024 A 
HETATM   14  C18 UNL     1      23.528   0.946  52.491  1.00  0.00    -0.002 A 
HETATM   15  C19 UNL     1      23.886   2.039  51.542  1.00  0.00     0.170 C 
HETATM   16  H9  UNL     1      25.378   0.708  54.730  1.00  0.00     0.161 HD
ENDROOT
BRANCH  12  17
HETATM   17  C11 UNL     1      19.929  -0.428  52.768  1.00  0.00    -0.026 A 
HETATM   18  C12 UNL     1      19.350   0.303  51.723  1.00  0.00     0.012 A 
HETATM   19  C13 UNL     1      18.000   0.089  51.528  1.00  0.00     0.001 A 
HETATM   20  C14 UNL     1      17.249  -0.774  52.288  1.00  0.00     0.000 A 
HETATM   21  C15 UNL     1      17.831  -1.478  53.302  1.00  0.00     0.001 A 
HETATM   22  C16 UNL     1      19.191  -1.302  53.543  1.00  0.00     0.012 A 
ENDBRANCH  12  17
BRANCH  15  23
HETATM   23  N4  UNL     1      23.358   1.777  50.240  1.00  0.00    -0.398 N 
HETATM   24  H19 UNL     1      23.905   1.076  49.749  1.00  0.00     0.155 HD
BRANCH  23  25
HETATM   25  C20 UNL     1      22.494   2.632  49.601  1.00  0.00     0.135 C 
HETATM   26  C21 UNL     1      21.412   1.895  48.852  1.00  0.00     0.039 C 
BRANCH  25  27
HETATM   27  C22 UNL     1      21.859   3.709  50.387  1.00  0.00     0.255 C 
HETATM   28  O2  UNL     1      20.757   3.675  50.925  1.00  0.00    -0.305 OA
ENDBRANCH  25  27
ENDBRANCH  23  25
ENDBRANCH  15  23
BRANCH   1  29
HETATM   29  O1  UNL     1      25.262   3.678  50.834  1.00  0.00    -0.358 OA
HETATM   30  C1  UNL     1      26.103   4.152  49.845  1.00  0.00     0.209 C 
ENDBRANCH   1  29
TORSDOF 5
ENDMDL
MODEL 2
REMARK VINA RESULT:      -8.7      2.359      6.375
REMARK  5 active torsions:
REMARK  status: ('A' for Active; 'I' for Inactive)
REMARK    1  A    between atoms: O1_2  and  C2_3 
REMARK    2  A    between atoms: C10_14  and  C11_15 
REMARK    3  A    between atoms: C19_23  and  N4_24 
REMARK    4  A    between atoms: N4_24  and  C20_25 
REMARK    5  A    between atoms: C20_25  and  C22_27 
ROOT
HETATM    1  C2  UNL     1      21.719   1.939  50.051  1.00  0.00     0.074 C 
HETATM    2  C3  UNL     1      20.425   1.571  49.940  1.00  0.00     0.054 C 
HETATM    3  C4  UNL     1      19.455   0.787  50.743  1.00  0.00     0.120 C 
HETATM    4  N1  UNL     1      19.480   0.171  51.835  1.00  0.00    -0.254 NA
HETATM    5  C5  UNL     1      18.456  -0.543  52.486  1.00  0.00     0.228 C 
HETATM    6  N2  UNL     1      19.278  -0.419  53.459  1.00  0.00    -0.264 NA
HETATM    7  C6  UNL     1      20.546   0.240  53.404  1.00  0.00     0.272 C 
HETATM    8  N3  UNL     1      21.392  -0.520  52.470  1.00  0.00    -0.371 N 
HETATM    9  C7  UNL     1      22.675   0.084  52.498  1.00  0.00     0.038 A 
HETATM   10  C8  UNL     1      23.368  -0.550  53.506  1.00  0.00     0.031 A 
HETATM   11  C9  UNL     1      24.682  -0.279  53.913  1.00  0.00     0.014 A 
HETATM   12  C10 UNL     1      25.336   0.723  53.227  1.00  0.00    -0.025 A 
HETATM   13  C17 UNL     1      24.620   1.354  52.209  1.00  0.00     0.024 A 
HETATM   14  C18 UNL     1      23.300   1.084  51.800  1.00  0.00    -0.002 A 
HETATM   15  C19 UNL     1      23.024   2.020  50.671  1.00  0.00     0.170 C 
HETATM   16  H9  UNL     1      21.584  -1.271  51.793  1.00  0.00     0.161 HD
ENDROOT
BRANCH  12  17
HETATM   17  C11 UNL     1      26.703   1.025  53.626  1.00  0.00    -0.026 A 
HETATM   18  C12 UNL     1      27.320   0.081  54.455  1.00  0.00     0.012 A 
HETATM   19  C13 UNL     1      28.617   0.377  54.826  1.00  0.00     0.001 A 
HETATM   20  C14 UNL     1      29.283   1.509  54.426  1.00  0.00     0.000 A 
HETATM   21  C15 UNL     1      28.664   2.418  53.617  1.00  0.00     0.001 A 
HETATM   22  C16 UNL     1      27.356   2.170  53.212  1.00  0.00     0.012 A 
ENDBRANCH  12  17
BRANCH  15  23
HETATM   23  N4  UNL     1      23.430   3.350  51.002  1.00  0.00    -0.398 N 
HETATM   24  H19 UNL     1      24.412   3.504  50.795  1.00  0.00     0.155 HD
BRANCH  23  25
HETATM   25  C20 UNL     1      22.709   4.160  51.845  1.00  0.00     0.135 C 
HETATM   26  C21 UNL     1      23.541   4.671  52.994  1.00  0.00     0.039 C 
BRANCH  25  27
HETATM   27  C22 UNL     1      21.972   5.302  51.266  1.00  0.00     0.255 C 
HETATM   28  O2  UNL     1      20.814   5.301  50.863  1.00  0.00    -0.305 OA
ENDBRANCH  25  27
ENDBRANCH  23  25
ENDBRANCH  15  23
BRANCH   1  29
HETATM   29  O1  UNL     1      21.828   2.655  48.870  1.00  0.00    -0.358 OA
HETATM   30  C1  UNL     1      22.341   2.304  47.636  1.00  0.00     0.209 C 
ENDBRANCH   1  29
TORSDOF 5
ENDMDL
MODEL 3
REMARK VINA RESULT:      -8.6      2.564      7.121
REMARK  5 active torsions:
REMARK  status: ('A' for Active; 'I' for Inactive)
REMARK    1  A    between atoms: O1_2  and  C2_3 
REMARK    2  A    between atoms: C10_14  and  C11_15 
REMARK    3  A    between atoms: C19_23  and  N4_24 
REMARK    4  A    between atoms: N4_24  and  C20_25 
REMARK    5  A    between atoms: C20_25  and  C22_27 
ROOT
HETATM    1  C2  UNL     1      24.066  -0.416  54.090  1.00  0.00     0.074 C 
HETATM    2  C3  UNL     1      23.016  -1.084  54.613  1.00  0.00     0.054 C 
HETATM    3  C4  UNL     1      21.552  -1.142  54.382  1.00  0.00     0.120 C 
HETATM    4  N1  UNL     1      20.740  -0.585  53.604  1.00  0.00    -0.254 NA
HETATM    5  C5  UNL     1      19.345  -0.745  53.498  1.00  0.00     0.228 C 
HETATM    6  N2  UNL     1      19.575  -0.155  52.386  1.00  0.00    -0.264 NA
HETATM    7  C6  UNL     1      20.855   0.275  51.916  1.00  0.00     0.272 C 
HETATM    8  N3  UNL     1      21.334   1.313  52.842  1.00  0.00    -0.371 N 
HETATM    9  C7  UNL     1      22.556   1.799  52.312  1.00  0.00     0.038 A 
HETATM   10  C8  UNL     1      22.216   2.833  51.467  1.00  0.00     0.031 A 
HETATM   11  C9  UNL     1      23.098   3.612  50.705  1.00  0.00     0.014 A 
HETATM   12  C10 UNL     1      24.437   3.305  50.824  1.00  0.00    -0.025 A 
HETATM   13  C17 UNL     1      24.765   2.257  51.685  1.00  0.00     0.024 A 
HETATM   14  C18 UNL     1      23.880   1.472  52.450  1.00  0.00    -0.002 A 
HETATM   15  C19 UNL     1      24.736   0.511  53.204  1.00  0.00     0.170 C 
HETATM   16  H9  UNL     1      21.275   1.908  53.679  1.00  0.00     0.161 HD
ENDROOT
BRANCH  12  17
HETATM   17  C11 UNL     1      25.378   4.099  50.046  1.00  0.00    -0.026 A 
HETATM   18  C12 UNL     1      24.964   5.398  49.728  1.00  0.00     0.012 A 
HETATM   19  C13 UNL     1      25.863   6.142  48.991  1.00  0.00     0.001 A 
HETATM   20  C14 UNL     1      27.088   5.671  48.585  1.00  0.00     0.000 A 
HETATM   21  C15 UNL     1      27.474   4.402  48.905  1.00  0.00     0.001 A 
HETATM   22  C16 UNL     1      26.605   3.607  49.648  1.00  0.00     0.012 A 
ENDBRANCH  12  17
BRANCH  15  23
HETATM   23  N4  UNL     1      25.697  -0.102  52.340  1.00  0.00    -0.398 N 
HETATM   24  H19 UNL     1      25.271  -0.816  51.755  1.00  0.00     0.155 HD
BRANCH  23  25
HETATM   25  C20 UNL     1      27.050  -0.024  52.557  1.00  0.00     0.135 C 
HETATM   26  C21 UNL     1      27.409   1.059  53.542  1.00  0.00     0.039 C 
BRANCH  25  27
HETATM   27  C22 UNL     1      27.774  -1.253  52.938  1.00  0.00     0.255 C 
HETATM   28  O2  UNL     1      27.332  -2.397  52.939  1.00  0.00    -0.305 OA
ENDBRANCH  25  27
ENDBRANCH  23  25
ENDBRANCH  15  23
BRANCH   1  29
HETATM   29  O1  UNL     1      25.065  -0.957  54.882  1.00  0.00    -0.358 OA
HETATM   30  C1  UNL     1      25.251  -0.939  56.251  1.00  0.00     0.209 C 
ENDBRANCH   1  29
TORSDOF 5
ENDMDL
MODEL 4
REMARK VINA RESULT:      -8.6      2.338      5.369
REMARK  5 active torsions:
REMARK  status: ('A' for Active; 'I' for Inactive)
REMARK    1  A    between atoms: O1_2  and  C2_3 
REMARK    2  A    between atoms: C10_14  and  C11_15 
REMARK    3  A    between atoms: C19_23  and  N4_24 
REMARK    4  A    between atoms: N4_24  and  C20_25 
REMARK    5  A    between atoms: C20_25  and  C22_27 
ROOT
HETATM    1  C2  UNL     1      24.342  -0.059  53.506  1.00  0.00     0.074 C 
HETATM    2  C3  UNL     1      25.275  -0.521  54.365  1.00  0.00     0.054 C 
HETATM    3  C4  UNL     1      26.679  -0.191  54.711  1.00  0.00     0.120 C 
HETATM    4  N1  UNL     1      27.526   0.651  54.329  1.00  0.00    -0.254 NA
HETATM    5  C5  UNL     1      28.853   0.849  54.761  1.00  0.00     0.228 C 
HETATM    6  N2  UNL     1      28.664   1.954  54.143  1.00  0.00    -0.264 NA
HETATM    7  C6  UNL     1      27.463   2.343  53.472  1.00  0.00     0.272 C 
HETATM    8  N3  UNL     1      27.263   1.406  52.355  1.00  0.00    -0.371 N 
HETATM    9  C7  UNL     1      26.126   1.860  51.641  1.00  0.00     0.038 A 
HETATM   10  C8  UNL     1      26.601   2.746  50.699  1.00  0.00     0.031 A 
HETATM   11  C9  UNL     1      25.837   3.460  49.765  1.00  0.00     0.014 A 
HETATM   12  C10 UNL     1      24.476   3.244  49.802  1.00  0.00    -0.025 A 
HETATM   13  C17 UNL     1      24.011   2.343  50.761  1.00  0.00     0.024 A 
HETATM   14  C18 UNL     1      24.776   1.626  51.700  1.00  0.00    -0.002 A 
HETATM   15  C19 UNL     1      23.804   0.797  52.470  1.00  0.00     0.170 C 
HETATM   16  H9  UNL     1      27.498   0.587  51.779  1.00  0.00     0.161 HD
ENDROOT
BRANCH  12  17
HETATM   17  C11 UNL     1      23.656   3.971  48.842  1.00  0.00    -0.026 A 
HETATM   18  C12 UNL     1      22.665   3.222  48.196  1.00  0.00     0.012 A 
HETATM   19  C13 UNL     1      21.892   3.921  47.290  1.00  0.00     0.001 A 
HETATM   20  C14 UNL     1      22.059   5.256  47.018  1.00  0.00     0.000 A 
HETATM   21  C15 UNL     1      23.032   5.969  47.658  1.00  0.00     0.001 A 
HETATM   22  C16 UNL     1      23.840   5.315  48.584  1.00  0.00     0.012 A 
ENDBRANCH  12  17
BRANCH  15  23
HETATM   23  N4  UNL     1      22.684   1.581  52.886  1.00  0.00    -0.398 N 
HETATM   24  H19 UNL     1      22.899   2.131  53.713  1.00  0.00     0.155 HD
BRANCH  23  25
HETATM   25  C20 UNL     1      21.399   1.320  52.477  1.00  0.00     0.135 C 
HETATM   26  C21 UNL     1      21.350   0.309  51.360  1.00  0.00     0.039 C 
BRANCH  25  27
HETATM   27  C22 UNL     1      20.402   0.931  53.495  1.00  0.00     0.255 C 
HETATM   28  O2  UNL     1      19.800  -0.135  53.565  1.00  0.00    -0.305 OA
ENDBRANCH  25  27
ENDBRANCH  23  25
ENDBRANCH  15  23
BRANCH   1  29
HETATM   29  O1  UNL     1      23.315  -0.928  53.836  1.00  0.00    -0.358 OA
HETATM   30  C1  UNL     1      22.818  -1.327  55.061  1.00  0.00     0.209 C 
ENDBRANCH   1  29
TORSDOF 5
ENDMDL
MODEL 5
REMARK VINA RESULT:      -8.4      2.736      4.470
REMARK  5 active torsions:
REMARK  status: ('A' for Active; 'I' for Inactive)
REMARK    1  A    between atoms: O1_2  and  C2_3 
REMARK    2  A    between atoms: C10_14  and  C11_15 
REMARK    3  A    between atoms: C19_23  and  N4_24 
REMARK    4  A    between atoms: N4_24  and  C20_25 
REMARK    5  A    between atoms: C20_25  and  C22_27 
ROOT
HETATM    1  C2  UNL     1      22.973   5.431  49.628  1.00  0.00     0.074 C 
HETATM    2  C3  UNL     1      23.870   6.199  48.974  1.00  0.00     0.054 C 
HETATM    3  C4  UNL     1      25.322   6.148  48.681  1.00  0.00     0.120 C 
HETATM    4  N1  UNL     1      26.265   5.360  48.936  1.00  0.00    -0.254 NA
HETATM    5  C5  UNL     1      27.626   5.445  48.582  1.00  0.00     0.228 C 
HETATM    6  N2  UNL     1      27.572   4.212  48.922  1.00  0.00    -0.264 NA
HETATM    7  C6  UNL     1      26.409   3.523  49.387  1.00  0.00     0.272 C 
HETATM    8  N3  UNL     1      26.017   4.141  50.664  1.00  0.00    -0.371 N 
HETATM    9  C7  UNL     1      24.925   3.387  51.163  1.00  0.00     0.038 A 
HETATM   10  C8  UNL     1      25.478   2.378  51.921  1.00  0.00     0.031 A 
HETATM   11  C9  UNL     1      24.782   1.372  52.606  1.00  0.00     0.014 A 
HETATM   12  C10 UNL     1      23.407   1.408  52.505  1.00  0.00    -0.025 A 
HETATM   13  C17 UNL     1      22.863   2.437  51.734  1.00  0.00     0.024 A 
HETATM   14  C18 UNL     1      23.560   3.447  51.045  1.00  0.00    -0.002 A 
HETATM   15  C19 UNL     1      22.516   4.295  50.400  1.00  0.00     0.170 C 
HETATM   16  H9  UNL     1      26.098   4.828  51.424  1.00  0.00     0.161 HD
ENDROOT
BRANCH  12  17
HETATM   17  C11 UNL     1      22.656   0.377  53.208  1.00  0.00    -0.026 A 
HETATM   18  C12 UNL     1      21.280   0.346  52.957  1.00  0.00     0.012 A 
HETATM   19  C13 UNL     1      20.578  -0.636  53.627  1.00  0.00     0.001 A 
HETATM   20  C14 UNL     1      21.160  -1.535  54.487  1.00  0.00     0.000 A 
HETATM   21  C15 UNL     1      22.504  -1.488  54.719  1.00  0.00     0.001 A 
HETATM   22  C16 UNL     1      23.262  -0.518  54.069  1.00  0.00     0.012 A 
ENDBRANCH  12  17
BRANCH  15  23
HETATM   23  N4  UNL     1      21.547   3.487  49.729  1.00  0.00    -0.398 N 
HETATM   24  H19 UNL     1      20.889   3.072  50.382  1.00  0.00     0.155 HD
BRANCH  23  25
HETATM   25  C20 UNL     1      21.726   3.018  48.451  1.00  0.00     0.135 C 
HETATM   26  C21 UNL     1      21.826   1.514  48.403  1.00  0.00     0.039 C 
BRANCH  25  27
HETATM   27  C22 UNL     1      20.778   3.450  47.403  1.00  0.00     0.255 C 
HETATM   28  O2  UNL     1      19.901   4.300  47.510  1.00  0.00    -0.305 OA
ENDBRANCH  25  27
ENDBRANCH  23  25
ENDBRANCH  15  23
BRANCH   1  29
HETATM   29  O1  UNL     1      21.846   6.208  49.415  1.00  0.00    -0.358 OA
HETATM   30  C1  UNL     1      21.323   7.267  50.132  1.00  0.00     0.209 C 
ENDBRANCH   1  29
TORSDOF 5
ENDMDL
MODEL 6
REMARK VINA RESULT:      -8.3      1.427      1.663
REMARK  5 active torsions:
REMARK  status: ('A' for Active; 'I' for Inactive)
REMARK    1  A    between atoms: O1_2  and  C2_3 
REMARK    2  A    between atoms: C10_14  and  C11_15 
REMARK    3  A    between atoms: C19_23  and  N4_24 
REMARK    4  A    between atoms: N4_24  and  C20_25 
REMARK    5  A    between atoms: C20_25  and  C22_27 
ROOT
HETATM    1  C2  UNL     1      23.612   2.730  52.575  1.00  0.00     0.074 C 
HETATM    2  C3  UNL     1      24.927   2.817  52.868  1.00  0.00     0.054 C 
HETATM    3  C4  UNL     1      25.974   1.911  53.400  1.00  0.00     0.120 C 
HETATM    4  N1  UNL     1      26.024   0.716  53.778  1.00  0.00    -0.254 NA
HETATM    5  C5  UNL     1      27.117  -0.024  54.270  1.00  0.00     0.228 C 
HETATM    6  N2  UNL     1      26.313  -0.984  54.005  1.00  0.00    -0.264 NA
HETATM    7  C6  UNL     1      24.998  -0.848  53.461  1.00  0.00     0.272 C 
HETATM    8  N3  UNL     1      24.188  -0.124  54.453  1.00  0.00    -0.371 N 
HETATM    9  C7  UNL     1      22.865  -0.082  53.946  1.00  0.00     0.038 A 
HETATM   10  C8  UNL     1      22.248  -1.225  54.405  1.00  0.00     0.031 A 
HETATM   11  C9  UNL     1      20.928  -1.622  54.147  1.00  0.00     0.014 A 
HETATM   12  C10 UNL     1      20.183  -0.774  53.356  1.00  0.00    -0.025 A 
HETATM   13  C17 UNL     1      20.822   0.380  52.900  1.00  0.00     0.024 A 
HETATM   14  C18 UNL     1      22.147   0.780  53.157  1.00  0.00    -0.002 A 
HETATM   15  C19 UNL     1      22.321   2.085  52.458  1.00  0.00     0.170 C 
HETATM   16  H9  UNL     1      24.036   0.376  55.339  1.00  0.00     0.161 HD
ENDROOT
BRANCH  12  17
HETATM   17  C11 UNL     1      18.807  -1.159  53.073  1.00  0.00    -0.026 A 
HETATM   18  C12 UNL     1      18.103  -0.315  52.206  1.00  0.00     0.012 A 
HETATM   19  C13 UNL     1      16.800  -0.689  51.944  1.00  0.00     0.001 A 
HETATM   20  C14 UNL     1      16.208  -1.807  52.478  1.00  0.00     0.000 A 
HETATM   21  C15 UNL     1      16.911  -2.618  53.321  1.00  0.00     0.001 A 
HETATM   22  C16 UNL     1      18.230  -2.288  53.620  1.00  0.00     0.012 A 
ENDBRANCH  12  17
BRANCH  15  23
HETATM   23  N4  UNL     1      21.825   2.016  51.119  1.00  0.00    -0.398 N 
HETATM   24  H19 UNL     1      22.453   1.494  50.514  1.00  0.00     0.155 HD
BRANCH  23  25
HETATM   25  C20 UNL     1      20.862   2.868  50.637  1.00  0.00     0.135 C 
HETATM   26  C21 UNL     1      19.861   2.160  49.759  1.00  0.00     0.039 C 
BRANCH  25  27
HETATM   27  C22 UNL     1      20.118   3.707  51.599  1.00  0.00     0.255 C 
HETATM   28  O2  UNL     1      19.127   3.384  52.245  1.00  0.00    -0.305 OA
ENDBRANCH  25  27
ENDBRANCH  23  25
ENDBRANCH  15  23
BRANCH   1  29
HETATM   29  O1  UNL     1      23.418   4.026  52.127  1.00  0.00    -0.358 OA
HETATM   30  C1  UNL     1      24.112   4.783  51.202  1.00  0.00     0.209 C 
ENDBRANCH   1  29
TORSDOF 5
ENDMDL
MODEL 7
REMARK VINA RESULT:      -8.2      1.552      1.798
REMARK  5 active torsions:
REMARK  status: ('A' for Active; 'I' for Inactive)
REMARK    1  A    between atoms: O1_2  and  C2_3 
REMARK    2  A    between atoms: C10_14  and  C11_15 
REMARK    3  A    between atoms: C19_23  and  N4_24 
REMARK    4  A    between atoms: N4_24  and  C20_25 
REMARK    5  A    between atoms: C20_25  and  C22_27 
ROOT
HETATM    1  C2  UNL     1      23.405   2.840  52.753  1.00  0.00     0.074 C 
HETATM    2  C3  UNL     1      24.724   2.949  53.020  1.00  0.00     0.054 C 
HETATM    3  C4  UNL     1      25.813   2.042  53.459  1.00  0.00     0.120 C 
HETATM    4  N1  UNL     1      25.910   0.826  53.748  1.00  0.00    -0.254 NA
HETATM    5  C5  UNL     1      27.037   0.088  54.159  1.00  0.00     0.228 C 
HETATM    6  N2  UNL     1      26.257  -0.877  53.844  1.00  0.00    -0.264 NA
HETATM    7  C6  UNL     1      24.924  -0.745  53.344  1.00  0.00     0.272 C 
HETATM    8  N3  UNL     1      24.119  -0.121  54.405  1.00  0.00    -0.371 N 
HETATM    9  C7  UNL     1      22.782  -0.085  53.935  1.00  0.00     0.038 A 
HETATM   10  C8  UNL     1      22.213  -1.278  54.325  1.00  0.00     0.031 A 
HETATM   11  C9  UNL     1      20.900  -1.698  54.071  1.00  0.00     0.014 A 
HETATM   12  C10 UNL     1      20.107  -0.820  53.362  1.00  0.00    -0.025 A 
HETATM   13  C17 UNL     1      20.698   0.383  52.975  1.00  0.00     0.024 A 
HETATM   14  C18 UNL     1      22.017   0.807  53.228  1.00  0.00    -0.002 A 
HETATM   15  C19 UNL     1      22.132   2.164  52.621  1.00  0.00     0.170 C 
HETATM   16  H9  UNL     1      23.975   0.310  55.328  1.00  0.00     0.161 HD
ENDROOT
BRANCH  12  17
HETATM   17  C11 UNL     1      18.737  -1.229  53.085  1.00  0.00    -0.026 A 
HETATM   18  C12 UNL     1      18.007  -0.383  52.241  1.00  0.00     0.012 A 
HETATM   19  C13 UNL     1      16.710  -0.780  51.984  1.00  0.00     0.001 A 
HETATM   20  C14 UNL     1      16.146  -1.919  52.504  1.00  0.00     0.000 A 
HETATM   21  C15 UNL     1      16.874  -2.731  53.325  1.00  0.00     0.001 A 
HETATM   22  C16 UNL     1      18.189  -2.379  53.618  1.00  0.00     0.012 A 
ENDBRANCH  12  17
BRANCH  15  23
HETATM   23  N4  UNL     1      21.603   2.175  51.293  1.00  0.00    -0.398 N 
HETATM   24  H19 UNL     1      20.602   2.351  51.291  1.00  0.00     0.155 HD
BRANCH  23  25
HETATM   25  C20 UNL     1      22.267   1.629  50.223  1.00  0.00     0.135 C 
HETATM   26  C21 UNL     1      21.392   0.695  49.425  1.00  0.00     0.039 C 
BRANCH  25  27
HETATM   27  C22 UNL     1      22.950   2.537  49.280  1.00  0.00     0.255 C 
HETATM   28  O2  UNL     1      22.550   3.628  48.887  1.00  0.00    -0.305 OA
ENDBRANCH  25  27
ENDBRANCH  23  25
ENDBRANCH  15  23
BRANCH   1  29
HETATM   29  O1  UNL     1      23.160   4.159  52.405  1.00  0.00    -0.358 OA
HETATM   30  C1  UNL     1      23.951   5.093  51.765  1.00  0.00     0.209 C 
ENDBRANCH   1  29
TORSDOF 5
ENDMDL
MODEL 8
REMARK VINA RESULT:      -7.6      3.108      7.887
REMARK  5 active torsions:
REMARK  status: ('A' for Active; 'I' for Inactive)
REMARK    1  A    between atoms: O1_2  and  C2_3 
REMARK    2  A    between atoms: C10_14  and  C11_15 
REMARK    3  A    between atoms: C19_23  and  N4_24 
REMARK    4  A    between atoms: N4_24  and  C20_25 
REMARK    5  A    between atoms: C20_25  and  C22_27 
ROOT
HETATM    1  C2  UNL     1      21.563   4.166  49.507  1.00  0.00     0.074 C 
HETATM    2  C3  UNL     1      20.827   3.309  50.246  1.00  0.00     0.054 C 
HETATM    3  C4  UNL     1      21.081   2.323  51.325  1.00  0.00     0.120 C 
HETATM    4  N1  UNL     1      22.087   1.918  51.956  1.00  0.00    -0.254 NA
HETATM    5  C5  UNL     1      22.176   0.954  52.979  1.00  0.00     0.228 C 
HETATM    6  N2  UNL     1      23.315   1.519  53.121  1.00  0.00    -0.264 NA
HETATM    7  C6  UNL     1      23.813   2.607  52.339  1.00  0.00     0.272 C 
HETATM    8  N3  UNL     1      23.957   2.122  50.957  1.00  0.00    -0.371 N 
HETATM    9  C7  UNL     1      24.542   3.178  50.214  1.00  0.00     0.038 A 
HETATM   10  C8  UNL     1      25.904   3.007  50.324  1.00  0.00     0.031 A 
HETATM   11  C9  UNL     1      26.896   3.822  49.760  1.00  0.00     0.014 A 
HETATM   12  C10 UNL     1      26.450   4.898  49.022  1.00  0.00    -0.025 A 
HETATM   13  C17 UNL     1      25.067   5.057  48.920  1.00  0.00     0.024 A 
HETATM   14  C18 UNL     1      24.070   4.240  49.486  1.00  0.00    -0.002 A 
HETATM   15  C19 UNL     1      22.769   4.833  49.063  1.00  0.00     0.170 C 
HETATM   16  H9  UNL     1      23.876   1.423  50.207  1.00  0.00     0.161 HD
ENDROOT
BRANCH  12  17
HETATM   17  C11 UNL     1      27.457   5.762  48.422  1.00  0.00    -0.026 A 
HETATM   18  C12 UNL     1      28.758   5.248  48.383  1.00  0.00     0.012 A 
HETATM   19  C13 UNL     1      29.704   6.074  47.811  1.00  0.00     0.001 A 
HETATM   20  C14 UNL     1      29.421   7.319  47.306  1.00  0.00     0.000 A 
HETATM   21  C15 UNL     1      28.146   7.804  47.353  1.00  0.00     0.001 A 
HETATM   22  C16 UNL     1      27.151   7.012  47.919  1.00  0.00     0.012 A 
ENDBRANCH  12  17
BRANCH  15  23
HETATM   23  N4  UNL     1      22.761   6.247  49.272  1.00  0.00    -0.398 N 
HETATM   24  H19 UNL     1      23.194   6.742  48.498  1.00  0.00     0.155 HD
BRANCH  23  25
HETATM   25  C20 UNL     1      22.569   6.816  50.507  1.00  0.00     0.135 C 
HETATM   26  C21 UNL     1      23.711   7.717  50.904  1.00  0.00     0.039 C 
BRANCH  25  27
HETATM   27  C22 UNL     1      21.305   7.534  50.763  1.00  0.00     0.255 C 
HETATM   28  O2  UNL     1      20.475   7.882  49.929  1.00  0.00    -0.305 OA
ENDBRANCH  25  27
ENDBRANCH  23  25
ENDBRANCH  15  23
BRANCH   1  29
HETATM   29  O1  UNL     1      20.542   4.702  48.741  1.00  0.00    -0.358 OA
HETATM   30  C1  UNL     1      19.170   4.660  48.896  1.00  0.00     0.209 C 
ENDBRANCH   1  29
TORSDOF 5
ENDMDL
MODEL 9
REMARK VINA RESULT:      -7.2      7.120     10.403
REMARK  5 active torsions:
REMARK  status: ('A' for Active; 'I' for Inactive)
REMARK    1  A    between atoms: O1_2  and  C2_3 
REMARK    2  A    between atoms: C10_14  and  C11_15 
REMARK    3  A    between atoms: C19_23  and  N4_24 
REMARK    4  A    between atoms: N4_24  and  C20_25 
REMARK    5  A    between atoms: C20_25  and  C22_27 
ROOT
HETATM    1  C2  UNL     1      30.146  10.224  48.298  1.00  0.00     0.074 C 
HETATM    2  C3  UNL     1      31.398  10.546  47.911  1.00  0.00     0.054 C 
HETATM    3  C4  UNL     1      32.543   9.850  47.277  1.00  0.00     0.120 C 
HETATM    4  N1  UNL     1      32.773   8.689  46.860  1.00  0.00    -0.254 NA
HETATM    5  C5  UNL     1      33.936   8.163  46.266  1.00  0.00     0.228 C 
HETATM    6  N2  UNL     1      33.103   7.244  45.949  1.00  0.00    -0.264 NA
HETATM    7  C6  UNL     1      31.714   7.223  46.286  1.00  0.00     0.272 C 
HETATM    8  N3  UNL     1      31.621   7.136  47.752  1.00  0.00    -0.371 N 
HETATM    9  C7  UNL     1      30.244   7.017  48.066  1.00  0.00     0.038 A 
HETATM   10  C8  UNL     1      29.969   5.667  48.056  1.00  0.00     0.031 A 
HETATM   11  C9  UNL     1      28.727   5.066  48.300  1.00  0.00     0.014 A 
HETATM   12  C10 UNL     1      27.683   5.922  48.580  1.00  0.00    -0.025 A 
HETATM   13  C17 UNL     1      27.977   7.286  48.588  1.00  0.00     0.024 A 
HETATM   14  C18 UNL     1      29.224   7.892  48.342  1.00  0.00    -0.002 A 
HETATM   15  C19 UNL     1      29.001   9.359  48.490  1.00  0.00     0.170 C 
HETATM   16  H9  UNL     1      32.006   7.104  48.705  1.00  0.00     0.161 HD
ENDROOT
BRANCH  12  17
HETATM   17  C11 UNL     1      26.379   5.327  48.841  1.00  0.00    -0.026 A 
HETATM   18  C12 UNL     1      26.394   4.019  49.339  1.00  0.00     0.012 A 
HETATM   19  C13 UNL     1      25.154   3.464  49.584  1.00  0.00     0.001 A 
HETATM   20  C14 UNL     1      23.970   4.124  49.365  1.00  0.00     0.000 A 
HETATM   21  C15 UNL     1      23.975   5.399  48.879  1.00  0.00     0.001 A 
HETATM   22  C16 UNL     1      25.199   6.008  48.614  1.00  0.00     0.012 A 
ENDBRANCH  12  17
BRANCH  15  23
HETATM   23  N4  UNL     1      27.834   9.771  47.775  1.00  0.00    -0.398 N 
HETATM   24  H19 UNL     1      26.985   9.552  48.287  1.00  0.00     0.155 HD
BRANCH  23  25
HETATM   25  C20 UNL     1      27.844  10.048  46.430  1.00  0.00     0.135 C 
HETATM   26  C21 UNL     1      26.927   9.137  45.653  1.00  0.00     0.039 C 
BRANCH  25  27
HETATM   27  C22 UNL     1      27.593  11.436  45.994  1.00  0.00     0.255 C 
HETATM   28  O2  UNL     1      28.435  12.292  45.744  1.00  0.00    -0.305 OA
ENDBRANCH  25  27
ENDBRANCH  23  25
ENDBRANCH  15  23
BRANCH   1  29
HETATM   29  O1  UNL     1      29.761  11.459  48.791  1.00  0.00    -0.358 OA
HETATM   30  C1  UNL     1      30.491  12.602  49.054  1.00  0.00     0.209 C 
ENDBRANCH   1  29
TORSDOF 5
ENDMDL
