MODEL 1
REMARK VINA RESULT:     -10.5      0.000      0.000
REMARK  3 active torsions:
REMARK  status: ('A' for Active; 'I' for Inactive)
REMARK    1  A    between atoms: N1_1  and  C1_2 
REMARK    2  A    between atoms: C2_3  and  C3_4 
REMARK    3  A    between atoms: C15_18  and  C16_19 
ROOT
HETATM    1  C3  UNL     1      24.572   2.155  52.144  1.00  0.00     0.032 C 
HETATM    2  C4  UNL     1      24.215   2.857  53.389  1.00  0.00    -0.005 C 
HETATM    3  C5  UNL     1      23.892   4.133  53.125  1.00  0.00     0.026 C 
HETATM    4  C6  UNL     1      24.199   4.391  51.736  1.00  0.00     0.025 C 
HETATM    5  C7  UNL     1      24.689   3.295  51.195  1.00  0.00     0.021 C 
HETATM    6  N2  UNL     1      24.085   5.525  50.893  1.00  0.00    -0.385 N 
HETATM    7  C8  UNL     1      23.910   5.524  49.462  1.00  0.00     0.166 C 
HETATM    8  C9  UNL     1      22.621   5.039  48.973  1.00  0.00     0.102 C 
HETATM    9  N3  UNL     1      22.402   3.925  48.382  1.00  0.00    -0.304 NA
HETATM   10  C10 UNL     1      21.166   3.499  47.930  1.00  0.00     0.148 C 
HETATM   11  C11 UNL     1      20.760   2.087  47.922  1.00  0.00     0.022 C 
HETATM   12  C12 UNL     1      20.585   1.400  49.211  1.00  0.00     0.002 C 
HETATM   13  C13 UNL     1      21.655   0.909  50.063  1.00  0.00     0.001 C 
HETATM   14  C14 UNL     1      22.685   1.860  50.547  1.00  0.00     0.011 C 
HETATM   15  C15 UNL     1      23.555   1.189  51.640  1.00  0.00     0.039 C 
HETATM   16  H6  UNL     1      24.135   6.462  51.367  1.00  0.00     0.160 HD
ENDROOT
BRANCH   1  17
HETATM   17  C2  UNL     1      25.934   1.544  52.194  1.00  0.00    -0.019 C 
HETATM   18  C1  UNL     1      26.851   1.913  53.108  1.00  0.00     0.053 C 
HETATM   19  C25 UNL     1      28.008   1.065  52.771  1.00  0.00     0.260 A 
HETATM   20  N4  UNL     1      27.383  -0.188  52.324  1.00  0.00    -0.343 N 
HETATM   21  N6  UNL     1      28.914   0.803  53.839  1.00  0.00    -0.251 NA
HETATM   22  C22 UNL     1      26.559   0.473  51.328  1.00  0.00     0.164 C 
HETATM   23  C23 UNL     1      27.588  -1.519  52.787  1.00  0.00     0.208 A 
HETATM   24  N5  UNL     1      28.452  -1.612  53.766  1.00  0.00    -0.238 NA
HETATM   25  C24 UNL     1      29.082  -0.408  54.249  1.00  0.00     0.230 A 
BRANCH  18  26
HETATM   26  N1  UNL     1      26.837   2.865  54.174  1.00  0.00    -0.399 N 
HETATM   27  H1  UNL     1      27.119   2.440  55.099  1.00  0.00     0.156 HD
HETATM   28  H2  UNL     1      26.580   3.850  54.040  1.00  0.00     0.156 HD
ENDBRANCH  18  26
ENDBRANCH   1  17
BRANCH  15  29
HETATM   29  C16 UNL     1      22.703   0.568  52.665  1.00  0.00    -0.052 A 
HETATM   30  C17 UNL     1      23.042  -0.632  53.301  1.00  0.00     0.007 A 
HETATM   31  C18 UNL     1      22.281  -1.259  54.262  1.00  0.00     0.001 A 
HETATM   32  C19 UNL     1      21.092  -0.680  54.644  1.00  0.00     0.000 A 
HETATM   33  C20 UNL     1      20.695   0.493  54.067  1.00  0.00     0.001 A 
HETATM   34  C21 UNL     1      21.502   1.072  53.109  1.00  0.00     0.007 A 
ENDBRANCH  15  29
TORSDOF 3
ENDMDL
MODEL 2
REMARK VINA RESULT:      -9.1      2.105      3.149
REMARK  3 active torsions:
REMARK  status: ('A' for Active; 'I' for Inactive)
REMARK    1  A    between atoms: N1_1  and  C1_2 
REMARK    2  A    between atoms: C2_3  and  C3_4 
REMARK    3  A    between atoms: C15_18  and  C16_19 
ROOT
HETATM    1  C3  UNL     1      23.667   3.246  51.323  1.00  0.00     0.032 C 
HETATM    2  C4  UNL     1      22.732   3.530  52.426  1.00  0.00    -0.005 C 
HETATM    3  C5  UNL     1      22.705   4.847  52.681  1.00  0.00     0.026 C 
HETATM    4  C6  UNL     1      23.749   5.473  51.901  1.00  0.00     0.025 C 
HETATM    5  C7  UNL     1      24.374   4.549  51.203  1.00  0.00     0.021 C 
HETATM    6  N2  UNL     1      24.205   6.808  51.751  1.00  0.00    -0.385 N 
HETATM    7  C8  UNL     1      24.853   7.374  50.595  1.00  0.00     0.166 C 
HETATM    8  C9  UNL     1      24.020   7.532  49.405  1.00  0.00     0.102 C 
HETATM    9  N3  UNL     1      24.084   6.835  48.333  1.00  0.00    -0.304 NA
HETATM   10  C10 UNL     1      23.280   7.015  47.223  1.00  0.00     0.148 C 
HETATM   11  C11 UNL     1      22.843   5.906  46.363  1.00  0.00     0.022 C 
HETATM   12  C12 UNL     1      21.933   4.897  46.926  1.00  0.00     0.002 C 
HETATM   13  C13 UNL     1      22.312   3.822  47.826  1.00  0.00     0.001 C 
HETATM   14  C14 UNL     1      22.966   4.157  49.114  1.00  0.00     0.011 C 
HETATM   15  C15 UNL     1      23.032   2.901  50.019  1.00  0.00     0.039 C 
HETATM   16  H6  UNL     1      24.052   7.444  52.573  1.00  0.00     0.160 HD
ENDROOT
BRANCH   1  17
HETATM   17  C2  UNL     1      24.723   2.258  51.699  1.00  0.00    -0.019 C 
HETATM   18  C1  UNL     1      26.026   2.468  51.435  1.00  0.00     0.053 C 
HETATM   19  C25 UNL     1      26.668   1.255  51.970  1.00  0.00     0.260 A 
HETATM   20  N4  UNL     1      25.849   0.938  53.149  1.00  0.00    -0.343 N 
HETATM   21  N6  UNL     1      28.034   1.394  52.348  1.00  0.00    -0.251 NA
HETATM   22  C22 UNL     1      24.609   0.922  52.395  1.00  0.00     0.164 C 
HETATM   23  C23 UNL     1      26.246   0.749  54.504  1.00  0.00     0.208 A 
HETATM   24  N5  UNL     1      27.531   0.900  54.706  1.00  0.00    -0.238 NA
HETATM   25  C24 UNL     1      28.374   1.225  53.581  1.00  0.00     0.230 A 
BRANCH  18  26
HETATM   26  N1  UNL     1      26.733   3.539  50.804  1.00  0.00    -0.399 N 
HETATM   27  H1  UNL     1      26.622   3.533  49.753  1.00  0.00     0.156 HD
HETATM   28  H2  UNL     1      27.284   4.230  51.327  1.00  0.00     0.156 HD
ENDBRANCH  18  26
ENDBRANCH   1  17
BRANCH  15  29
HETATM   29  C16 UNL     1      21.712   2.258  50.104  1.00  0.00    -0.052 A 
HETATM   30  C17 UNL     1      20.516   2.986  50.087  1.00  0.00     0.007 A 
HETATM   31  C18 UNL     1      19.256   2.438  50.169  1.00  0.00     0.001 A 
HETATM   32  C19 UNL     1      19.137   1.071  50.276  1.00  0.00     0.000 A 
HETATM   33  C20 UNL     1      20.261   0.294  50.298  1.00  0.00     0.001 A 
HETATM   34  C21 UNL     1      21.496   0.904  50.213  1.00  0.00     0.007 A 
ENDBRANCH  15  29
TORSDOF 3
ENDMDL
MODEL 3
REMARK VINA RESULT:      -8.8      8.016     10.182
REMARK  3 active torsions:
REMARK  status: ('A' for Active; 'I' for Inactive)
REMARK    1  A    between atoms: N1_1  and  C1_2 
REMARK    2  A    between atoms: C2_3  and  C3_4 
REMARK    3  A    between atoms: C15_18  and  C16_19 
ROOT
HETATM    1  C3  UNL     1      30.712   8.518  47.773  1.00  0.00     0.032 C 
HETATM    2  C4  UNL     1      30.210   8.833  49.122  1.00  0.00    -0.005 C 
HETATM    3  C5  UNL     1      29.946  10.144  49.223  1.00  0.00     0.026 C 
HETATM    4  C6  UNL     1      30.434  10.789  48.024  1.00  0.00     0.025 C 
HETATM    5  C7  UNL     1      30.970   9.881  47.237  1.00  0.00     0.021 C 
HETATM    6  N2  UNL     1      30.448  12.129  47.559  1.00  0.00    -0.385 N 
HETATM    7  C8  UNL     1      30.458  12.566  46.185  1.00  0.00     0.166 C 
HETATM    8  C9  UNL     1      29.235  12.323  45.425  1.00  0.00     0.102 C 
HETATM    9  N3  UNL     1      29.074  11.451  44.501  1.00  0.00    -0.304 NA
HETATM   10  C10 UNL     1      27.900  11.250  43.800  1.00  0.00     0.148 C 
HETATM   11  C11 UNL     1      27.473   9.930  43.315  1.00  0.00     0.022 C 
HETATM   12  C12 UNL     1      27.122   8.899  44.305  1.00  0.00     0.002 C 
HETATM   13  C13 UNL     1      28.065   8.117  45.085  1.00  0.00     0.001 C 
HETATM   14  C14 UNL     1      29.040   8.820  45.953  1.00  0.00     0.011 C 
HETATM   15  C15 UNL     1      29.751   7.805  46.883  1.00  0.00     0.039 C 
HETATM   16  H6  UNL     1      30.453  12.876  48.298  1.00  0.00     0.160 HD
ENDROOT
BRANCH   1  17
HETATM   17  C2  UNL     1      32.046   7.844  47.794  1.00  0.00    -0.019 C 
HETATM   18  C1  UNL     1      32.376   6.941  48.736  1.00  0.00     0.053 C 
HETATM   19  C25 UNL     1      33.751   6.567  48.361  1.00  0.00     0.260 A 
HETATM   20  N4  UNL     1      33.723   6.625  46.892  1.00  0.00    -0.343 N 
HETATM   21  N6  UNL     1      34.180   5.278  48.789  1.00  0.00    -0.251 NA
HETATM   22  C22 UNL     1      33.229   7.990  46.866  1.00  0.00     0.164 C 
HETATM   23  C23 UNL     1      34.071   5.625  45.938  1.00  0.00     0.208 A 
HETATM   24  N5  UNL     1      34.453   4.493  46.473  1.00  0.00    -0.238 NA
HETATM   25  C24 UNL     1      34.484   4.383  47.911  1.00  0.00     0.230 A 
BRANCH  18  26
HETATM   26  N1  UNL     1      31.676   6.402  49.860  1.00  0.00    -0.399 N 
HETATM   27  H1  UNL     1      31.833   5.363  49.973  1.00  0.00     0.156 HD
HETATM   28  H2  UNL     1      31.090   6.973  50.479  1.00  0.00     0.156 HD
ENDBRANCH  18  26
ENDBRANCH   1  17
BRANCH  15  29
HETATM   29  C16 UNL     1      28.764   6.953  47.565  1.00  0.00    -0.052 A 
HETATM   30  C17 UNL     1      27.489   7.410  47.917  1.00  0.00     0.007 A 
HETATM   31  C18 UNL     1      26.530   6.659  48.559  1.00  0.00     0.001 A 
HETATM   32  C19 UNL     1      26.824   5.356  48.890  1.00  0.00     0.000 A 
HETATM   33  C20 UNL     1      28.051   4.840  48.578  1.00  0.00     0.001 A 
HETATM   34  C21 UNL     1      28.969   5.644  47.934  1.00  0.00     0.007 A 
ENDBRANCH  15  29
TORSDOF 3
ENDMDL
MODEL 4
REMARK VINA RESULT:      -8.5      3.878      7.287
REMARK  3 active torsions:
REMARK  status: ('A' for Active; 'I' for Inactive)
REMARK    1  A    between atoms: N1_1  and  C1_2 
REMARK    2  A    between atoms: C2_3  and  C3_4 
REMARK    3  A    between atoms: C15_18  and  C16_19 
ROOT
HETATM    1  C3  UNL     1      20.207   2.169  50.164  1.00  0.00     0.032 C 
HETATM    2  C4  UNL     1      20.744   0.893  49.660  1.00  0.00    -0.005 C 
HETATM    3  C5  UNL     1      21.509   1.108  48.579  1.00  0.00     0.026 C 
HETATM    4  C6  UNL     1      21.366   2.496  48.202  1.00  0.00     0.025 C 
HETATM    5  C7  UNL     1      20.539   3.084  49.040  1.00  0.00     0.021 C 
HETATM    6  N2  UNL     1      21.909   3.300  47.167  1.00  0.00    -0.385 N 
HETATM    7  C8  UNL     1      22.125   4.725  47.203  1.00  0.00     0.166 C 
HETATM    8  C9  UNL     1      23.173   5.192  48.107  1.00  0.00     0.102 C 
HETATM    9  N3  UNL     1      23.003   5.812  49.214  1.00  0.00    -0.304 NA
HETATM   10  C10 UNL     1      24.021   6.243  50.044  1.00  0.00     0.148 C 
HETATM   11  C11 UNL     1      23.898   6.283  51.508  1.00  0.00     0.022 C 
HETATM   12  C12 UNL     1      23.769   5.012  52.237  1.00  0.00     0.002 C 
HETATM   13  C13 UNL     1      22.563   4.206  52.329  1.00  0.00     0.001 C 
HETATM   14  C14 UNL     1      21.923   3.721  51.083  1.00  0.00     0.011 C 
HETATM   15  C15 UNL     1      20.831   2.674  51.420  1.00  0.00     0.039 C 
HETATM   16  H6  UNL     1      22.178   2.798  46.284  1.00  0.00     0.160 HD
ENDROOT
BRANCH   1  17
HETATM   17  C2  UNL     1      18.715   2.175  50.250  1.00  0.00    -0.019 C 
HETATM   18  C1  UNL     1      18.021   1.126  50.730  1.00  0.00     0.053 C 
HETATM   19  C25 UNL     1      16.624   1.580  50.617  1.00  0.00     0.260 A 
HETATM   20  N4  UNL     1      16.718   3.020  50.892  1.00  0.00    -0.343 N 
HETATM   21  N6  UNL     1      15.702   0.971  51.516  1.00  0.00    -0.251 NA
HETATM   22  C22 UNL     1      17.718   3.243  49.863  1.00  0.00     0.164 C 
HETATM   23  C23 UNL     1      16.029   3.806  51.860  1.00  0.00     0.208 A 
HETATM   24  N5  UNL     1      15.208   3.118  52.613  1.00  0.00    -0.238 NA
HETATM   25  C24 UNL     1      15.092   1.698  52.390  1.00  0.00     0.230 A 
BRANCH  18  26
HETATM   26  N1  UNL     1      18.412  -0.150  51.241  1.00  0.00    -0.399 N 
HETATM   27  H1  UNL     1      19.428  -0.175  51.530  1.00  0.00     0.156 HD
HETATM   28  H2  UNL     1      17.766  -0.945  51.313  1.00  0.00     0.156 HD
ENDBRANCH  18  26
ENDBRANCH   1  17
BRANCH  15  29
HETATM   29  C16 UNL     1      21.367   1.645  52.324  1.00  0.00    -0.052 A 
HETATM   30  C17 UNL     1      20.658   1.175  53.435  1.00  0.00     0.007 A 
HETATM   31  C18 UNL     1      21.113   0.219  54.316  1.00  0.00     0.001 A 
HETATM   32  C19 UNL     1      22.357  -0.332  54.108  1.00  0.00     0.000 A 
HETATM   33  C20 UNL     1      23.108   0.079  53.041  1.00  0.00     0.001 A 
HETATM   34  C21 UNL     1      22.596   1.040  52.196  1.00  0.00     0.007 A 
ENDBRANCH  15  29
TORSDOF 3
ENDMDL
MODEL 5
REMARK VINA RESULT:      -8.5      8.135     11.854
REMARK  3 active torsions:
REMARK  status: ('A' for Active; 'I' for Inactive)
REMARK    1  A    between atoms: N1_1  and  C1_2 
REMARK    2  A    between atoms: C2_3  and  C3_4 
REMARK    3  A    between atoms: C15_18  and  C16_19 
ROOT
HETATM    1  C3  UNL     1      30.694   7.335  48.010  1.00  0.00     0.032 C 
HETATM    2  C4  UNL     1      31.588   7.723  49.116  1.00  0.00    -0.005 C 
HETATM    3  C5  UNL     1      32.446   6.728  49.387  1.00  0.00     0.026 C 
HETATM    4  C6  UNL     1      32.047   5.573  48.614  1.00  0.00     0.025 C 
HETATM    5  C7  UNL     1      30.982   5.880  47.906  1.00  0.00     0.021 C 
HETATM    6  N2  UNL     1      32.548   4.253  48.480  1.00  0.00    -0.385 N 
HETATM    7  C8  UNL     1      32.419   3.392  47.331  1.00  0.00     0.166 C 
HETATM    8  C9  UNL     1      33.169   3.791  46.143  1.00  0.00     0.102 C 
HETATM    9  N3  UNL     1      32.683   4.277  45.063  1.00  0.00    -0.304 NA
HETATM   10  C10 UNL     1      33.426   4.641  43.955  1.00  0.00     0.148 C 
HETATM   11  C11 UNL     1      33.062   5.766  43.081  1.00  0.00     0.022 C 
HETATM   12  C12 UNL     1      33.115   7.129  43.633  1.00  0.00     0.002 C 
HETATM   13  C13 UNL     1      32.132   7.724  44.521  1.00  0.00     0.001 C 
HETATM   14  C14 UNL     1      31.831   7.060  45.812  1.00  0.00     0.011 C 
HETATM   15  C15 UNL     1      30.973   7.994  46.702  1.00  0.00     0.039 C 
HETATM   16  H6  UNL     1      33.066   3.867  49.309  1.00  0.00     0.160 HD
ENDROOT
BRANCH   1  17
HETATM   17  C2  UNL     1      29.248   7.426  48.375  1.00  0.00    -0.019 C 
HETATM   18  C1  UNL     1      28.768   8.410  49.158  1.00  0.00     0.053 C 
HETATM   19  C25 UNL     1      27.333   8.089  49.242  1.00  0.00     0.260 A 
HETATM   20  N4  UNL     1      27.037   7.533  47.914  1.00  0.00    -0.343 N 
HETATM   21  N6  UNL     1      26.468   9.188  49.514  1.00  0.00    -0.251 NA
HETATM   22  C22 UNL     1      28.087   6.534  47.999  1.00  0.00     0.164 C 
HETATM   23  C23 UNL     1      26.050   7.926  46.965  1.00  0.00     0.208 A 
HETATM   24  N5  UNL     1      25.323   8.945  47.349  1.00  0.00    -0.238 NA
HETATM   25  C24 UNL     1      25.585   9.534  48.639  1.00  0.00     0.230 A 
BRANCH  18  26
HETATM   26  N1  UNL     1      29.380   9.529  49.804  1.00  0.00    -0.399 N 
HETATM   27  H1  UNL     1      29.389  10.392  49.194  1.00  0.00     0.156 HD
HETATM   28  H2  UNL     1      29.764   9.484  50.755  1.00  0.00     0.156 HD
ENDBRANCH  18  26
ENDBRANCH   1  17
BRANCH  15  29
HETATM   29  C16 UNL     1      31.580   9.331  46.779  1.00  0.00    -0.052 A 
HETATM   30  C17 UNL     1      32.956   9.527  46.944  1.00  0.00     0.007 A 
HETATM   31  C18 UNL     1      33.575  10.754  47.028  1.00  0.00     0.001 A 
HETATM   32  C19 UNL     1      32.803  11.890  46.945  1.00  0.00     0.000 A 
HETATM   33  C20 UNL     1      31.450  11.778  46.784  1.00  0.00     0.001 A 
HETATM   34  C21 UNL     1      30.889  10.520  46.707  1.00  0.00     0.007 A 
ENDBRANCH  15  29
TORSDOF 3
ENDMDL
MODEL 6
REMARK VINA RESULT:      -8.3      3.462      6.296
REMARK  3 active torsions:
REMARK  status: ('A' for Active; 'I' for Inactive)
REMARK    1  A    between atoms: N1_1  and  C1_2 
REMARK    2  A    between atoms: C2_3  and  C3_4 
REMARK    3  A    between atoms: C15_18  and  C16_19 
ROOT
HETATM    1  C3  UNL     1      22.042   3.157  50.164  1.00  0.00     0.032 C 
HETATM    2  C4  UNL     1      22.631   2.144  49.271  1.00  0.00    -0.005 C 
HETATM    3  C5  UNL     1      22.580   2.565  47.998  1.00  0.00     0.026 C 
HETATM    4  C6  UNL     1      21.792   3.777  47.961  1.00  0.00     0.025 C 
HETATM    5  C7  UNL     1      21.390   4.063  49.181  1.00  0.00     0.021 C 
HETATM    6  N2  UNL     1      21.389   4.663  46.929  1.00  0.00    -0.385 N 
HETATM    7  C8  UNL     1      21.086   6.066  47.065  1.00  0.00     0.166 C 
HETATM    8  C9  UNL     1      22.217   6.940  47.367  1.00  0.00     0.102 C 
HETATM    9  N3  UNL     1      22.457   7.516  48.485  1.00  0.00    -0.304 NA
HETATM   10  C10 UNL     1      23.538   8.341  48.733  1.00  0.00     0.148 C 
HETATM   11  C11 UNL     1      24.203   8.418  50.042  1.00  0.00     0.022 C 
HETATM   12  C12 UNL     1      24.925   7.233  50.533  1.00  0.00     0.002 C 
HETATM   13  C13 UNL     1      24.315   6.045  51.104  1.00  0.00     0.001 C 
HETATM   14  C14 UNL     1      23.326   5.286  50.302  1.00  0.00     0.011 C 
HETATM   15  C15 UNL     1      23.017   3.930  50.986  1.00  0.00     0.039 C 
HETATM   16  H6  UNL     1      21.304   4.247  45.968  1.00  0.00     0.160 HD
ENDROOT
BRANCH   1  17
HETATM   17  C2  UNL     1      20.927   2.614  50.998  1.00  0.00    -0.019 C 
HETATM   18  C1  UNL     1      19.940   1.864  50.474  1.00  0.00     0.053 C 
HETATM   19  C25 UNL     1      19.094   1.573  51.644  1.00  0.00     0.260 A 
HETATM   20  N4  UNL     1      20.068   1.452  52.738  1.00  0.00    -0.343 N 
HETATM   21  N6  UNL     1      18.307   0.389  51.559  1.00  0.00    -0.251 NA
HETATM   22  C22 UNL     1      20.656   2.754  52.479  1.00  0.00     0.164 C 
HETATM   23  C23 UNL     1      20.274   0.381  53.654  1.00  0.00     0.208 A 
HETATM   24  N5  UNL     1      19.476  -0.639  53.464  1.00  0.00    -0.238 NA
HETATM   25  C24 UNL     1      18.512  -0.573  52.394  1.00  0.00     0.230 A 
BRANCH  18  26
HETATM   26  N1  UNL     1      19.665   1.403  49.149  1.00  0.00    -0.399 N 
HETATM   27  H1  UNL     1      19.238   2.154  48.540  1.00  0.00     0.156 HD
HETATM   28  H2  UNL     1      19.865   0.446  48.837  1.00  0.00     0.156 HD
ENDBRANCH  18  26
ENDBRANCH   1  17
BRANCH  15  29
HETATM   29  C16 UNL     1      24.264   3.227  51.322  1.00  0.00    -0.052 A 
HETATM   30  C17 UNL     1      24.454   2.572  52.544  1.00  0.00     0.007 A 
HETATM   31  C18 UNL     1      25.601   1.904  52.913  1.00  0.00     0.001 A 
HETATM   32  C19 UNL     1      26.655   1.865  52.029  1.00  0.00     0.000 A 
HETATM   33  C20 UNL     1      26.542   2.483  50.815  1.00  0.00     0.001 A 
HETATM   34  C21 UNL     1      25.367   3.136  50.505  1.00  0.00     0.007 A 
ENDBRANCH  15  29
TORSDOF 3
ENDMDL
MODEL 7
REMARK VINA RESULT:      -8.1      2.301      7.721
REMARK  3 active torsions:
REMARK  status: ('A' for Active; 'I' for Inactive)
REMARK    1  A    between atoms: N1_1  and  C1_2 
REMARK    2  A    between atoms: C2_3  and  C3_4 
REMARK    3  A    between atoms: C15_18  and  C16_19 
ROOT
HETATM    1  C3  UNL     1      22.363   3.264  50.051  1.00  0.00     0.032 C 
HETATM    2  C4  UNL     1      21.685   4.305  50.844  1.00  0.00    -0.005 C 
HETATM    3  C5  UNL     1      21.333   3.817  52.043  1.00  0.00     0.026 C 
HETATM    4  C6  UNL     1      21.584   2.393  52.035  1.00  0.00     0.025 C 
HETATM    5  C7  UNL     1      22.072   2.051  50.862  1.00  0.00     0.021 C 
HETATM    6  N2  UNL     1      21.415   1.354  52.986  1.00  0.00    -0.385 N 
HETATM    7  C8  UNL     1      22.169   0.128  53.070  1.00  0.00     0.166 C 
HETATM    8  C9  UNL     1      23.567   0.261  53.473  1.00  0.00     0.102 C 
HETATM    9  N3  UNL     1      24.593   0.119  52.721  1.00  0.00    -0.304 NA
HETATM   10  C10 UNL     1      25.904   0.249  53.139  1.00  0.00     0.148 C 
HETATM   11  C11 UNL     1      26.970   0.778  52.277  1.00  0.00     0.022 C 
HETATM   12  C12 UNL     1      26.904   2.189  51.864  1.00  0.00     0.002 C 
HETATM   13  C13 UNL     1      26.037   2.731  50.833  1.00  0.00     0.001 C 
HETATM   14  C14 UNL     1      24.570   2.550  50.956  1.00  0.00     0.011 C 
HETATM   15  C15 UNL     1      23.838   3.427  49.909  1.00  0.00     0.039 C 
HETATM   16  H6  UNL     1      20.658   1.499  53.701  1.00  0.00     0.160 HD
ENDROOT
BRANCH   1  17
HETATM   17  C2  UNL     1      21.706   3.022  48.732  1.00  0.00    -0.019 C 
HETATM   18  C1  UNL     1      20.408   3.307  48.516  1.00  0.00     0.053 C 
HETATM   19  C25 UNL     1      20.215   2.906  47.112  1.00  0.00     0.260 A 
HETATM   20  N4  UNL     1      21.504   3.239  46.490  1.00  0.00    -0.343 N 
HETATM   21  N6  UNL     1      19.156   3.563  46.420  1.00  0.00    -0.251 NA
HETATM   22  C22 UNL     1      22.269   2.460  47.447  1.00  0.00     0.164 C 
HETATM   23  C23 UNL     1      21.780   4.057  45.356  1.00  0.00     0.208 A 
HETATM   24  N5  UNL     1      20.714   4.591  44.817  1.00  0.00    -0.238 NA
HETATM   25  C24 UNL     1      19.426   4.305  45.400  1.00  0.00     0.230 A 
BRANCH  18  26
HETATM   26  N1  UNL     1      19.378   3.852  49.344  1.00  0.00    -0.399 N 
HETATM   27  H1  UNL     1      19.323   4.905  49.280  1.00  0.00     0.156 HD
HETATM   28  H2  UNL     1      18.766   3.272  49.930  1.00  0.00     0.156 HD
ENDBRANCH  18  26
ENDBRANCH   1  17
BRANCH  15  29
HETATM   29  C16 UNL     1      24.333   4.811  49.960  1.00  0.00    -0.052 A 
HETATM   30  C17 UNL     1      24.921   5.443  48.859  1.00  0.00     0.007 A 
HETATM   31  C18 UNL     1      25.406   6.732  48.853  1.00  0.00     0.001 A 
HETATM   32  C19 UNL     1      25.316   7.476  50.007  1.00  0.00     0.000 A 
HETATM   33  C20 UNL     1      24.753   6.925  51.125  1.00  0.00     0.001 A 
HETATM   34  C21 UNL     1      24.286   5.628  51.067  1.00  0.00     0.007 A 
ENDBRANCH  15  29
TORSDOF 3
ENDMDL
MODEL 8
REMARK VINA RESULT:      -8.0      3.935      6.871
REMARK  3 active torsions:
REMARK  status: ('A' for Active; 'I' for Inactive)
REMARK    1  A    between atoms: N1_1  and  C1_2 
REMARK    2  A    between atoms: C2_3  and  C3_4 
REMARK    3  A    between atoms: C15_18  and  C16_19 
ROOT
HETATM    1  C3  UNL     1      21.207   2.245  50.166  1.00  0.00     0.032 C 
HETATM    2  C4  UNL     1      21.917   1.244  49.350  1.00  0.00    -0.005 C 
HETATM    3  C5  UNL     1      22.158   1.732  48.124  1.00  0.00     0.026 C 
HETATM    4  C6  UNL     1      21.460   2.993  48.003  1.00  0.00     0.025 C 
HETATM    5  C7  UNL     1      20.826   3.241  49.129  1.00  0.00     0.021 C 
HETATM    6  N2  UNL     1      21.331   3.956  46.969  1.00  0.00    -0.385 N 
HETATM    7  C8  UNL     1      21.080   5.366  47.130  1.00  0.00     0.166 C 
HETATM    8  C9  UNL     1      22.166   6.149  47.714  1.00  0.00     0.102 C 
HETATM    9  N3  UNL     1      22.196   6.649  48.893  1.00  0.00    -0.304 NA
HETATM   10  C10 UNL     1      23.242   7.388  49.413  1.00  0.00     0.148 C 
HETATM   11  C11 UNL     1      23.619   7.353  50.833  1.00  0.00     0.022 C 
HETATM   12  C12 UNL     1      24.158   6.101  51.385  1.00  0.00     0.002 C 
HETATM   13  C13 UNL     1      23.380   4.927  51.740  1.00  0.00     0.001 C 
HETATM   14  C14 UNL     1      22.543   4.276  50.703  1.00  0.00     0.011 C 
HETATM   15  C15 UNL     1      22.026   2.909  51.219  1.00  0.00     0.039 C 
HETATM   16  H6  UNL     1      21.428   3.597  45.987  1.00  0.00     0.160 HD
ENDROOT
BRANCH   1  17
HETATM   17  C2  UNL     1      19.915   1.733  50.714  1.00  0.00    -0.019 C 
HETATM   18  C1  UNL     1      18.942   2.559  51.142  1.00  0.00     0.053 C 
HETATM   19  C25 UNL     1      17.893   1.625  51.586  1.00  0.00     0.260 A 
HETATM   20  N4  UNL     1      18.014   0.511  50.635  1.00  0.00    -0.343 N 
HETATM   21  N6  UNL     1      16.563   2.136  51.572  1.00  0.00    -0.251 NA
HETATM   22  C22 UNL     1      19.427   0.315  50.905  1.00  0.00     0.164 C 
HETATM   23  C23 UNL     1      17.024  -0.074  49.794  1.00  0.00     0.208 A 
HETATM   24  N5  UNL     1      15.847   0.492  49.888  1.00  0.00    -0.238 NA
HETATM   25  C24 UNL     1      15.683   1.598  50.799  1.00  0.00     0.230 A 
BRANCH  18  26
HETATM   26  N1  UNL     1      18.830   3.983  51.208  1.00  0.00    -0.399 N 
HETATM   27  H1  UNL     1      19.523   4.472  50.577  1.00  0.00     0.156 HD
HETATM   28  H2  UNL     1      18.148   4.463  51.806  1.00  0.00     0.156 HD
ENDBRANCH  18  26
ENDBRANCH   1  17
BRANCH  15  29
HETATM   29  C16 UNL     1      23.136   2.110  51.761  1.00  0.00    -0.052 A 
HETATM   30  C17 UNL     1      22.977   1.232  52.840  1.00  0.00     0.007 A 
HETATM   31  C18 UNL     1      23.981   0.467  53.390  1.00  0.00     0.001 A 
HETATM   32  C19 UNL     1      25.245   0.553  52.854  1.00  0.00     0.000 A 
HETATM   33  C20 UNL     1      25.477   1.390  51.799  1.00  0.00     0.001 A 
HETATM   34  C21 UNL     1      24.430   2.132  51.293  1.00  0.00     0.007 A 
ENDBRANCH  15  29
TORSDOF 3
ENDMDL
MODEL 9
REMARK VINA RESULT:      -7.9      2.479      6.932
REMARK  3 active torsions:
REMARK  status: ('A' for Active; 'I' for Inactive)
REMARK    1  A    between atoms: N1_1  and  C1_2 
REMARK    2  A    between atoms: C2_3  and  C3_4 
REMARK    3  A    between atoms: C15_18  and  C16_19 
ROOT
HETATM    1  C3  UNL     1      24.808   4.571  50.066  1.00  0.00     0.032 C 
HETATM    2  C4  UNL     1      25.654   4.016  48.994  1.00  0.00    -0.005 C 
HETATM    3  C5  UNL     1      26.434   3.039  49.480  1.00  0.00     0.026 C 
HETATM    4  C6  UNL     1      26.286   3.024  50.918  1.00  0.00     0.025 C 
HETATM    5  C7  UNL     1      25.439   3.968  51.270  1.00  0.00     0.021 C 
HETATM    6  N2  UNL     1      26.842   2.240  51.961  1.00  0.00    -0.385 N 
HETATM    7  C8  UNL     1      26.243   1.955  53.241  1.00  0.00     0.166 C 
HETATM    8  C9  UNL     1      25.070   1.085  53.221  1.00  0.00     0.102 C 
HETATM    9  N3  UNL     1      23.856   1.438  53.424  1.00  0.00    -0.304 NA
HETATM   10  C10 UNL     1      22.770   0.584  53.401  1.00  0.00     0.148 C 
HETATM   11  C11 UNL     1      21.438   0.996  52.935  1.00  0.00     0.022 C 
HETATM   12  C12 UNL     1      21.267   1.342  51.515  1.00  0.00     0.002 C 
HETATM   13  C13 UNL     1      21.682   2.585  50.888  1.00  0.00     0.001 C 
HETATM   14  C14 UNL     1      23.107   2.988  50.962  1.00  0.00     0.011 C 
HETATM   15  C15 UNL     1      23.369   4.183  50.010  1.00  0.00     0.039 C 
HETATM   16  H6  UNL     1      27.791   1.828  51.775  1.00  0.00     0.160 HD
ENDROOT
BRANCH   1  17
HETATM   17  C2  UNL     1      24.974   6.046  50.230  1.00  0.00    -0.019 C 
HETATM   18  C1  UNL     1      26.101   6.684  49.862  1.00  0.00     0.053 C 
HETATM   19  C25 UNL     1      25.811   8.086  50.211  1.00  0.00     0.260 A 
HETATM   20  N4  UNL     1      24.372   8.206  49.939  1.00  0.00    -0.343 N 
HETATM   21  N6  UNL     1      26.531   9.069  49.472  1.00  0.00    -0.251 NA
HETATM   22  C22 UNL     1      24.025   7.082  50.789  1.00  0.00     0.164 C 
HETATM   23  C23 UNL     1      23.681   9.134  49.107  1.00  0.00     0.208 A 
HETATM   24  N5  UNL     1      24.467   9.983  48.494  1.00  0.00    -0.238 NA
HETATM   25  C24 UNL     1      25.888   9.896  48.719  1.00  0.00     0.230 A 
BRANCH  18  26
HETATM   26  N1  UNL     1      27.329   6.239  49.280  1.00  0.00    -0.399 N 
HETATM   27  H1  UNL     1      27.660   5.322  49.688  1.00  0.00     0.156 HD
HETATM   28  H2  UNL     1      27.822   6.763  48.548  1.00  0.00     0.156 HD
ENDBRANCH  18  26
ENDBRANCH   1  17
BRANCH  15  29
HETATM   29  C16 UNL     1      22.838   3.899  48.669  1.00  0.00    -0.052 A 
HETATM   30  C17 UNL     1      22.348   4.902  47.824  1.00  0.00     0.007 A 
HETATM   31  C18 UNL     1      21.835   4.692  46.563  1.00  0.00     0.001 A 
HETATM   32  C19 UNL     1      21.791   3.406  46.074  1.00  0.00     0.000 A 
HETATM   33  C20 UNL     1      22.251   2.374  46.843  1.00  0.00     0.001 A 
HETATM   34  C21 UNL     1      22.753   2.650  48.098  1.00  0.00     0.007 A 
ENDBRANCH  15  29
TORSDOF 3
ENDMDL
