MODEL 1
REMARK VINA RESULT:      -9.0      0.000      0.000
REMARK  7 active torsions:
REMARK  status: ('A' for Active; 'I' for Inactive)
REMARK    1  A    between atoms: O1_2  and  C2_3 
REMARK    2  A    between atoms: C6_9  and  N3_10 
REMARK    3  A    between atoms: N3_10  and  C7_11 
REMARK    4  A    between atoms: C8_12  and  C9_13 
REMARK    5  A    between atoms: C11_16  and  C12_17 
REMARK    6  A    between atoms: C15_20  and  N4_21 
REMARK       I    between atoms: N4_21  and  C16_22 
REMARK    7  A    between atoms: C16_22  and  C17_24 
ROOT
HETATM    1  C2  UNL     1      21.929   3.927  51.975  1.00  0.00     0.097 A 
HETATM    2  C3  UNL     1      21.567   2.607  52.137  1.00  0.00     0.071 A 
HETATM    3  C4  UNL     1      22.470   1.672  52.589  1.00  0.00     0.075 A 
HETATM    4  N1  UNL     1      22.089   0.391  52.750  1.00  0.00    -0.241 NA
HETATM    5  C5  UNL     1      22.988  -0.527  53.209  1.00  0.00     0.235 A 
HETATM    6  N2  UNL     1      24.246  -0.169  53.502  1.00  0.00    -0.224 NA
HETATM    7  C6  UNL     1      24.728   1.087  53.376  1.00  0.00     0.138 A 
HETATM    8  C13 UNL     1      23.790   2.006  52.906  1.00  0.00     0.041 A 
HETATM    9  C14 UNL     1      24.117   3.327  52.733  1.00  0.00     0.050 A 
HETATM   10  C15 UNL     1      23.243   4.301  52.280  1.00  0.00     0.069 A 
ENDROOT
BRANCH  10  11
HETATM   11  N4  UNL     1      23.694   5.639  52.153  1.00  0.00    -0.323 N 
HETATM   12  C16 UNL     1      24.191   6.224  50.963  1.00  0.00     0.247 C 
HETATM   13  O2  UNL     1      24.331   5.691  49.828  1.00  0.00    -0.271 OA
HETATM   14  H10 UNL     1      23.628   6.172  53.042  1.00  0.00     0.169 HD
BRANCH  12  15
HETATM   15  C17 UNL     1      24.640   7.626  50.882  1.00  0.00     0.203 C 
HETATM   16  C18 UNL     1      24.297   8.226  49.516  1.00  0.00     0.215 C 
HETATM   17  O3  UNL     1      25.316   9.187  49.320  1.00  0.00    -0.301 OA
HETATM   18  C19 UNL     1      26.389   8.929  50.199  1.00  0.00     0.361 C 
HETATM   19  O4  UNL     1      27.439   9.619  50.360  1.00  0.00    -0.238 OA
HETATM   20  N5  UNL     1      26.099   7.711  50.914  1.00  0.00    -0.321 N 
HETATM   21  H14 UNL     1      26.827   7.091  51.335  1.00  0.00     0.165 HD
ENDBRANCH  12  15
ENDBRANCH  10  11
BRANCH   1  22
HETATM   22  O1  UNL     1      21.087   4.933  51.526  1.00  0.00    -0.354 OA
HETATM   23  C1  UNL     1      20.656   4.911  50.180  1.00  0.00     0.210 C 
ENDBRANCH   1  22
BRANCH   7  24
HETATM   24  N3  UNL     1      26.035   1.614  53.664  1.00  0.00    -0.357 N 
HETATM   25  H6  UNL     1      26.275   2.564  54.041  1.00  0.00     0.162 HD
BRANCH  24  26
HETATM   26  C7  UNL     1      26.714   0.464  53.271  1.00  0.00     0.094 A 
HETATM   27  C8  UNL     1      27.647  -0.222  53.324  1.00  0.00    -0.034 A 
HETATM   28  C12 UNL     1      28.006   0.802  54.149  1.00  0.00     0.065 A 
BRANCH  27  29
HETATM   29  C9  UNL     1      28.511  -0.837  53.384  1.00  0.00    -0.022 A 
HETATM   30  C10 UNL     1      29.458  -1.487  53.465  1.00  0.00     0.176 A 
HETATM   31  F1  UNL     1      30.675  -1.667  53.947  1.00  0.00    -0.233 F 
HETATM   32  C11 UNL     1      29.327  -0.085  54.217  1.00  0.00     0.077 A 
ENDBRANCH  27  29
ENDBRANCH  24  26
ENDBRANCH   7  24
TORSDOF 7
ENDMDL
MODEL 2
REMARK VINA RESULT:      -8.9      2.248      2.514
REMARK  7 active torsions:
REMARK  status: ('A' for Active; 'I' for Inactive)
REMARK    1  A    between atoms: O1_2  and  C2_3 
REMARK    2  A    between atoms: C6_9  and  N3_10 
REMARK    3  A    between atoms: N3_10  and  C7_11 
REMARK    4  A    between atoms: C8_12  and  C9_13 
REMARK    5  A    between atoms: C11_16  and  C12_17 
REMARK    6  A    between atoms: C15_20  and  N4_21 
REMARK       I    between atoms: N4_21  and  C16_22 
REMARK    7  A    between atoms: C16_22  and  C17_24 
ROOT
HETATM    1  C2  UNL     1      23.438   3.422  49.287  1.00  0.00     0.097 A 
HETATM    2  C3  UNL     1      22.804   2.354  49.885  1.00  0.00     0.071 A 
HETATM    3  C4  UNL     1      23.242   1.849  51.088  1.00  0.00     0.075 A 
HETATM    4  N1  UNL     1      22.600   0.813  51.657  1.00  0.00    -0.241 NA
HETATM    5  C5  UNL     1      23.035   0.326  52.855  1.00  0.00     0.235 A 
HETATM    6  N2  UNL     1      24.095   0.867  53.473  1.00  0.00    -0.224 NA
HETATM    7  C6  UNL     1      24.808   1.908  52.987  1.00  0.00     0.138 A 
HETATM    8  C13 UNL     1      24.343   2.387  51.763  1.00  0.00     0.041 A 
HETATM    9  C14 UNL     1      24.950   3.448  51.140  1.00  0.00     0.050 A 
HETATM   10  C15 UNL     1      24.545   3.987  49.932  1.00  0.00     0.069 A 
ENDROOT
BRANCH  10  11
HETATM   11  N4  UNL     1      25.245   5.095  49.391  1.00  0.00    -0.323 N 
HETATM   12  C16 UNL     1      26.599   5.081  48.973  1.00  0.00     0.247 C 
HETATM   13  O2  UNL     1      27.417   4.121  49.002  1.00  0.00    -0.271 OA
HETATM   14  H10 UNL     1      24.660   5.950  49.329  1.00  0.00     0.169 HD
BRANCH  12  15
HETATM   15  C17 UNL     1      27.279   6.261  48.409  1.00  0.00     0.203 C 
HETATM   16  C18 UNL     1      28.750   5.951  48.120  1.00  0.00     0.215 C 
HETATM   17  O3  UNL     1      29.383   7.206  48.280  1.00  0.00    -0.301 OA
HETATM   18  C19 UNL     1      28.535   8.078  48.996  1.00  0.00     0.361 C 
HETATM   19  O4  UNL     1      28.732   9.300  49.263  1.00  0.00    -0.238 OA
HETATM   20  N5  UNL     1      27.365   7.337  49.395  1.00  0.00    -0.321 N 
HETATM   21  H14 UNL     1      26.764   7.586  50.213  1.00  0.00     0.165 HD
ENDBRANCH  12  15
ENDBRANCH  10  11
BRANCH   1  22
HETATM   22  O1  UNL     1      23.065   3.993  48.080  1.00  0.00    -0.354 OA
HETATM   23  C1  UNL     1      21.809   4.635  47.989  1.00  0.00     0.210 C 
ENDBRANCH   1  22
BRANCH   7  24
HETATM   24  N3  UNL     1      25.943   2.594  53.541  1.00  0.00    -0.357 N 
HETATM   25  H6  UNL     1      26.036   3.619  53.747  1.00  0.00     0.162 HD
BRANCH  24  26
HETATM   26  C7  UNL     1      26.728   1.450  53.653  1.00  0.00     0.094 A 
HETATM   27  C8  UNL     1      27.771   0.943  53.685  1.00  0.00    -0.034 A 
HETATM   28  C12 UNL     1      28.102   2.251  53.489  1.00  0.00     0.065 A 
BRANCH  27  29
HETATM   29  C9  UNL     1      28.734   0.496  53.712  1.00  0.00    -0.022 A 
HETATM   30  C10 UNL     1      29.767  -0.010  53.734  1.00  0.00     0.176 A 
HETATM   31  F1  UNL     1      30.508  -1.091  53.562  1.00  0.00    -0.233 F 
HETATM   32  C11 UNL     1      28.445  -0.805  53.325  1.00  0.00     0.077 A 
ENDBRANCH  27  29
ENDBRANCH  24  26
ENDBRANCH   7  24
TORSDOF 7
ENDMDL
MODEL 3
REMARK VINA RESULT:      -8.9      4.618      7.891
REMARK  7 active torsions:
REMARK  status: ('A' for Active; 'I' for Inactive)
REMARK    1  A    between atoms: O1_2  and  C2_3 
REMARK    2  A    between atoms: C6_9  and  N3_10 
REMARK    3  A    between atoms: N3_10  and  C7_11 
REMARK    4  A    between atoms: C8_12  and  C9_13 
REMARK    5  A    between atoms: C11_16  and  C12_17 
REMARK    6  A    between atoms: C15_20  and  N4_21 
REMARK       I    between atoms: N4_21  and  C16_22 
REMARK    7  A    between atoms: C16_22  and  C17_24 
ROOT
HETATM    1  C2  UNL     1      24.237   2.229  52.272  1.00  0.00     0.097 A 
HETATM    2  C3  UNL     1      23.492   3.232  51.688  1.00  0.00     0.071 A 
HETATM    3  C4  UNL     1      24.045   4.077  50.754  1.00  0.00     0.075 A 
HETATM    4  N1  UNL     1      23.294   5.041  50.190  1.00  0.00    -0.241 NA
HETATM    5  C5  UNL     1      23.849   5.868  49.257  1.00  0.00     0.235 A 
HETATM    6  N2  UNL     1      25.132   5.732  48.895  1.00  0.00    -0.224 NA
HETATM    7  C6  UNL     1      25.970   4.799  49.399  1.00  0.00     0.138 A 
HETATM    8  C13 UNL     1      25.380   3.967  50.349  1.00  0.00     0.041 A 
HETATM    9  C14 UNL     1      26.092   2.960  50.950  1.00  0.00     0.050 A 
HETATM   10  C15 UNL     1      25.578   2.087  51.893  1.00  0.00     0.069 A 
ENDROOT
BRANCH  10  11
HETATM   11  N4  UNL     1      26.410   1.075  52.436  1.00  0.00    -0.323 N 
HETATM   12  C16 UNL     1      27.321   1.253  53.506  1.00  0.00     0.247 C 
HETATM   13  O2  UNL     1      27.566   2.305  54.158  1.00  0.00    -0.271 OA
HETATM   14  H10 UNL     1      26.291   0.159  51.961  1.00  0.00     0.169 HD
BRANCH  12  15
HETATM   15  C17 UNL     1      28.159   0.163  54.039  1.00  0.00     0.203 C 
HETATM   16  C18 UNL     1      29.617   0.342  53.610  1.00  0.00     0.215 C 
HETATM   17  O3  UNL     1      30.101  -0.985  53.550  1.00  0.00    -0.301 OA
HETATM   18  C19 UNL     1      29.016  -1.886  53.504  1.00  0.00     0.361 C 
HETATM   19  O4  UNL     1      29.062  -3.152  53.519  1.00  0.00    -0.238 OA
HETATM   20  N5  UNL     1      27.799  -1.118  53.433  1.00  0.00    -0.321 N 
HETATM   21  H14 UNL     1      26.903  -1.474  53.029  1.00  0.00     0.165 HD
ENDBRANCH  12  15
ENDBRANCH  10  11
BRANCH   1  22
HETATM   22  O1  UNL     1      23.762   1.335  53.219  1.00  0.00    -0.354 OA
HETATM   23  C1  UNL     1      22.785   0.388  52.833  1.00  0.00     0.210 C 
ENDBRANCH   1  22
BRANCH   7  24
HETATM   24  N3  UNL     1      27.349   4.528  49.096  1.00  0.00    -0.357 N 
HETATM   25  H6  UNL     1      27.891   3.652  49.299  1.00  0.00     0.162 HD
BRANCH  24  26
HETATM   26  C7  UNL     1      27.585   5.768  48.508  1.00  0.00     0.094 A 
HETATM   27  C8  UNL     1      28.297   6.508  47.968  1.00  0.00    -0.034 A 
HETATM   28  C12 UNL     1      29.114   5.437  48.180  1.00  0.00     0.065 A 
BRANCH  27  29
HETATM   29  C9  UNL     1      28.963   7.172  47.476  1.00  0.00    -0.022 A 
HETATM   30  C10 UNL     1      29.705   7.875  46.946  1.00  0.00     0.176 A 
HETATM   31  F1  UNL     1      30.934   8.130  46.534  1.00  0.00    -0.233 F 
HETATM   32  C11 UNL     1      30.159   6.471  47.555  1.00  0.00     0.077 A 
ENDBRANCH  27  29
ENDBRANCH  24  26
ENDBRANCH   7  24
TORSDOF 7
ENDMDL
MODEL 4
REMARK VINA RESULT:      -8.7      4.660      7.823
REMARK  7 active torsions:
REMARK  status: ('A' for Active; 'I' for Inactive)
REMARK    1  A    between atoms: O1_2  and  C2_3 
REMARK    2  A    between atoms: C6_9  and  N3_10 
REMARK    3  A    between atoms: N3_10  and  C7_11 
REMARK    4  A    between atoms: C8_12  and  C9_13 
REMARK    5  A    between atoms: C11_16  and  C12_17 
REMARK    6  A    between atoms: C15_20  and  N4_21 
REMARK       I    between atoms: N4_21  and  C16_22 
REMARK    7  A    between atoms: C16_22  and  C17_24 
ROOT
HETATM    1  C2  UNL     1      25.073   2.610  51.107  1.00  0.00     0.097 A 
HETATM    2  C3  UNL     1      23.949   3.305  50.715  1.00  0.00     0.071 A 
HETATM    3  C4  UNL     1      22.709   2.997  51.226  1.00  0.00     0.075 A 
HETATM    4  N1  UNL     1      21.627   3.697  50.837  1.00  0.00    -0.241 NA
HETATM    5  C5  UNL     1      20.403   3.392  51.357  1.00  0.00     0.235 A 
HETATM    6  N2  UNL     1      20.264   2.403  52.251  1.00  0.00    -0.224 NA
HETATM    7  C6  UNL     1      21.284   1.642  52.708  1.00  0.00     0.138 A 
HETATM    8  C13 UNL     1      22.523   1.973  52.161  1.00  0.00     0.041 A 
HETATM    9  C14 UNL     1      23.662   1.303  52.528  1.00  0.00     0.050 A 
HETATM   10  C15 UNL     1      24.928   1.577  52.041  1.00  0.00     0.069 A 
ENDROOT
BRANCH  10  11
HETATM   11  N4  UNL     1      26.034   0.822  52.505  1.00  0.00    -0.323 N 
HETATM   12  C16 UNL     1      26.751   1.074  53.701  1.00  0.00     0.247 C 
HETATM   13  O2  UNL     1      26.558   1.985  54.552  1.00  0.00    -0.271 OA
HETATM   14  H10 UNL     1      26.285   0.041  51.868  1.00  0.00     0.169 HD
BRANCH  12  15
HETATM   15  C17 UNL     1      27.892   0.251  54.144  1.00  0.00     0.203 C 
HETATM   16  C18 UNL     1      29.197   0.759  53.527  1.00  0.00     0.215 C 
HETATM   17  O3  UNL     1      29.986  -0.410  53.432  1.00  0.00    -0.301 OA
HETATM   18  C19 UNL     1      29.163  -1.551  53.546  1.00  0.00     0.361 C 
HETATM   19  O4  UNL     1      29.524  -2.764  53.580  1.00  0.00    -0.238 OA
HETATM   20  N5  UNL     1      27.793  -1.108  53.616  1.00  0.00    -0.321 N 
HETATM   21  H14 UNL     1      26.973  -1.694  53.339  1.00  0.00     0.165 HD
ENDBRANCH  12  15
ENDBRANCH  10  11
BRANCH   1  22
HETATM   22  O1  UNL     1      26.358   2.852  50.644  1.00  0.00    -0.354 OA
HETATM   23  C1  UNL     1      26.533   3.720  49.543  1.00  0.00     0.210 C 
ENDBRANCH   1  22
BRANCH   7  24
HETATM   24  N3  UNL     1      21.286   0.570  53.666  1.00  0.00    -0.357 N 
HETATM   25  H6  UNL     1      22.041   0.325  54.353  1.00  0.00     0.162 HD
BRANCH  24  26
HETATM   26  C7  UNL     1      20.026   0.094  53.312  1.00  0.00     0.094 A 
HETATM   27  C8  UNL     1      19.219  -0.738  53.343  1.00  0.00    -0.034 A 
HETATM   28  C12 UNL     1      20.235  -1.308  54.050  1.00  0.00     0.065 A 
BRANCH  27  29
HETATM   29  C9  UNL     1      18.492  -1.511  53.381  1.00  0.00    -0.022 A 
HETATM   30  C10 UNL     1      17.690  -2.336  53.406  1.00  0.00     0.176 A 
HETATM   31  F1  UNL     1      16.525  -2.803  52.991  1.00  0.00    -0.233 F 
HETATM   32  C11 UNL     1      17.533  -1.032  52.500  1.00  0.00     0.077 A 
ENDBRANCH  27  29
ENDBRANCH  24  26
ENDBRANCH   7  24
TORSDOF 7
ENDMDL
MODEL 5
REMARK VINA RESULT:      -8.5      4.150      7.361
REMARK  7 active torsions:
REMARK  status: ('A' for Active; 'I' for Inactive)
REMARK    1  A    between atoms: O1_2  and  C2_3 
REMARK    2  A    between atoms: C6_9  and  N3_10 
REMARK    3  A    between atoms: N3_10  and  C7_11 
REMARK    4  A    between atoms: C8_12  and  C9_13 
REMARK    5  A    between atoms: C11_16  and  C12_17 
REMARK    6  A    between atoms: C15_20  and  N4_21 
REMARK       I    between atoms: N4_21  and  C16_22 
REMARK    7  A    between atoms: C16_22  and  C17_24 
ROOT
HETATM    1  C2  UNL     1      22.786   0.702  53.106  1.00  0.00     0.097 A 
HETATM    2  C3  UNL     1      21.700   1.378  52.592  1.00  0.00     0.071 A 
HETATM    3  C4  UNL     1      21.835   2.225  51.516  1.00  0.00     0.075 A 
HETATM    4  N1  UNL     1      20.758   2.866  51.026  1.00  0.00    -0.241 NA
HETATM    5  C5  UNL     1      20.898   3.695  49.951  1.00  0.00     0.235 A 
HETATM    6  N2  UNL     1      22.096   3.880  49.378  1.00  0.00    -0.224 NA
HETATM    7  C6  UNL     1      23.237   3.285  49.792  1.00  0.00     0.138 A 
HETATM    8  C13 UNL     1      23.066   2.443  50.891  1.00  0.00     0.041 A 
HETATM    9  C14 UNL     1      24.125   1.755  51.427  1.00  0.00     0.050 A 
HETATM   10  C15 UNL     1      24.037   0.895  52.508  1.00  0.00     0.069 A 
ENDROOT
BRANCH  10  11
HETATM   11  N4  UNL     1      25.201   0.228  52.967  1.00  0.00    -0.323 N 
HETATM   12  C16 UNL     1      26.182   0.791  53.821  1.00  0.00     0.247 C 
HETATM   13  O2  UNL     1      26.215   1.950  54.318  1.00  0.00    -0.271 OA
HETATM   14  H10 UNL     1      25.278  -0.743  52.607  1.00  0.00     0.169 HD
BRANCH  12  15
HETATM   15  C17 UNL     1      27.373   0.050  54.276  1.00  0.00     0.203 C 
HETATM   16  C18 UNL     1      28.654   0.793  53.888  1.00  0.00     0.215 C 
HETATM   17  O3  UNL     1      29.596  -0.249  53.727  1.00  0.00    -0.301 OA
HETATM   18  C19 UNL     1      28.923  -1.482  53.589  1.00  0.00     0.361 C 
HETATM   19  O4  UNL     1      29.435  -2.636  53.500  1.00  0.00    -0.238 OA
HETATM   20  N5  UNL     1      27.506  -1.218  53.561  1.00  0.00    -0.321 N 
HETATM   21  H14 UNL     1      26.801  -1.847  53.115  1.00  0.00     0.165 HD
ENDBRANCH  12  15
ENDBRANCH  10  11
BRANCH   1  22
HETATM   22  O1  UNL     1      22.742  -0.168  54.185  1.00  0.00    -0.354 OA
HETATM   23  C1  UNL     1      21.914  -1.311  54.106  1.00  0.00     0.210 C 
ENDBRANCH   1  22
BRANCH   7  24
HETATM   24  N3  UNL     1      24.574   3.376  49.271  1.00  0.00    -0.357 N 
HETATM   25  H6  UNL     1      25.182   2.593  48.925  1.00  0.00     0.162 HD
BRANCH  24  26
HETATM   26  C7  UNL     1      24.663   4.758  49.417  1.00  0.00     0.094 A 
HETATM   27  C8  UNL     1      25.298   5.727  49.463  1.00  0.00    -0.034 A 
HETATM   28  C12 UNL     1      26.257   4.771  49.298  1.00  0.00     0.065 A 
BRANCH  27  29
HETATM   29  C9  UNL     1      25.897   6.603  49.503  1.00  0.00    -0.022 A 
HETATM   30  C10 UNL     1      26.561   7.543  49.529  1.00  0.00     0.176 A 
HETATM   31  F1  UNL     1      27.598   8.215  49.062  1.00  0.00    -0.233 F 
HETATM   32  C11 UNL     1      26.839   6.338  48.520  1.00  0.00     0.077 A 
ENDBRANCH  27  29
ENDBRANCH  24  26
ENDBRANCH   7  24
TORSDOF 7
ENDMDL
MODEL 6
REMARK VINA RESULT:      -8.4      4.105      4.473
REMARK  7 active torsions:
REMARK  status: ('A' for Active; 'I' for Inactive)
REMARK    1  A    between atoms: O1_2  and  C2_3 
REMARK    2  A    between atoms: C6_9  and  N3_10 
REMARK    3  A    between atoms: N3_10  and  C7_11 
REMARK    4  A    between atoms: C8_12  and  C9_13 
REMARK    5  A    between atoms: C11_16  and  C12_17 
REMARK    6  A    between atoms: C15_20  and  N4_21 
REMARK       I    between atoms: N4_21  and  C16_22 
REMARK    7  A    between atoms: C16_22  and  C17_24 
ROOT
HETATM    1  C2  UNL     1      20.282   0.791  52.472  1.00  0.00     0.097 A 
HETATM    2  C3  UNL     1      20.478  -0.103  53.503  1.00  0.00     0.071 A 
HETATM    3  C4  UNL     1      21.742  -0.397  53.959  1.00  0.00     0.075 A 
HETATM    4  N1  UNL     1      21.907  -1.265  54.974  1.00  0.00    -0.241 NA
HETATM    5  C5  UNL     1      23.165  -1.541  55.426  1.00  0.00     0.235 A 
HETATM    6  N2  UNL     1      24.238  -0.960  54.873  1.00  0.00    -0.224 NA
HETATM    7  C6  UNL     1      24.181  -0.076  53.851  1.00  0.00     0.138 A 
HETATM    8  C13 UNL     1      22.886   0.190  53.407  1.00  0.00     0.041 A 
HETATM    9  C14 UNL     1      22.656   1.074  52.384  1.00  0.00     0.050 A 
HETATM   10  C15 UNL     1      21.403   1.398  51.892  1.00  0.00     0.069 A 
ENDROOT
BRANCH  10  11
HETATM   11  N4  UNL     1      21.288   2.338  50.837  1.00  0.00    -0.323 N 
HETATM   12  C16 UNL     1      21.327   2.024  49.456  1.00  0.00     0.247 C 
HETATM   13  O2  UNL     1      21.470   0.894  48.914  1.00  0.00    -0.271 OA
HETATM   14  H10 UNL     1      21.172   3.312  51.176  1.00  0.00     0.169 HD
BRANCH  12  15
HETATM   15  C17 UNL     1      21.195   3.040  48.396  1.00  0.00     0.203 C 
HETATM   16  C18 UNL     1      19.829   2.934  47.712  1.00  0.00     0.215 C 
HETATM   17  O3  UNL     1      20.089   3.388  46.398  1.00  0.00    -0.301 OA
HETATM   18  C19 UNL     1      21.478   3.359  46.150  1.00  0.00     0.361 C 
HETATM   19  O4  UNL     1      22.087   3.761  45.116  1.00  0.00    -0.238 OA
HETATM   20  N5  UNL     1      22.125   2.777  47.299  1.00  0.00    -0.321 N 
HETATM   21  H14 UNL     1      23.054   2.299  47.269  1.00  0.00     0.165 HD
ENDBRANCH  12  15
ENDBRANCH  10  11
BRANCH   1  22
HETATM   22  O1  UNL     1      19.046   1.145  51.950  1.00  0.00    -0.354 OA
HETATM   23  C1  UNL     1      18.208   0.129  51.436  1.00  0.00     0.210 C 
ENDBRANCH   1  22
BRANCH   7  24
HETATM   24  N3  UNL     1      25.235   0.631  53.175  1.00  0.00    -0.357 N 
HETATM   25  H6  UNL     1      25.171   1.548  52.669  1.00  0.00     0.162 HD
BRANCH  24  26
HETATM   26  C7  UNL     1      26.214  -0.317  53.461  1.00  0.00     0.094 A 
HETATM   27  C8  UNL     1      27.321  -0.661  53.436  1.00  0.00    -0.034 A 
HETATM   28  C12 UNL     1      27.388   0.546  52.805  1.00  0.00     0.065 A 
BRANCH  27  29
HETATM   29  C9  UNL     1      28.340  -0.959  53.402  1.00  0.00    -0.022 A 
HETATM   30  C10 UNL     1      29.450  -1.263  53.381  1.00  0.00     0.176 A 
HETATM   31  F1  UNL     1      30.695  -1.049  53.770  1.00  0.00    -0.233 F 
HETATM   32  C11 UNL     1      28.932  -0.011  54.224  1.00  0.00     0.077 A 
ENDBRANCH  27  29
ENDBRANCH  24  26
ENDBRANCH   7  24
TORSDOF 7
ENDMDL
MODEL 7
REMARK VINA RESULT:      -8.3      3.604      6.653
REMARK  7 active torsions:
REMARK  status: ('A' for Active; 'I' for Inactive)
REMARK    1  A    between atoms: O1_2  and  C2_3 
REMARK    2  A    between atoms: C6_9  and  N3_10 
REMARK    3  A    between atoms: N3_10  and  C7_11 
REMARK    4  A    between atoms: C8_12  and  C9_13 
REMARK    5  A    between atoms: C11_16  and  C12_17 
REMARK    6  A    between atoms: C15_20  and  N4_21 
REMARK       I    between atoms: N4_21  and  C16_22 
REMARK    7  A    between atoms: C16_22  and  C17_24 
ROOT
HETATM    1  C2  UNL     1      23.109   1.397  52.443  1.00  0.00     0.097 A 
HETATM    2  C3  UNL     1      21.910   1.804  51.899  1.00  0.00     0.071 A 
HETATM    3  C4  UNL     1      21.694   3.120  51.561  1.00  0.00     0.075 A 
HETATM    4  N1  UNL     1      20.518   3.492  51.022  1.00  0.00    -0.241 NA
HETATM    5  C5  UNL     1      20.316   4.798  50.680  1.00  0.00     0.235 A 
HETATM    6  N2  UNL     1      21.274   5.715  50.875  1.00  0.00    -0.224 NA
HETATM    7  C6  UNL     1      22.486   5.446  51.408  1.00  0.00     0.138 A 
HETATM    8  C13 UNL     1      22.668   4.106  51.749  1.00  0.00     0.041 A 
HETATM    9  C14 UNL     1      23.848   3.667  52.291  1.00  0.00     0.050 A 
HETATM   10  C15 UNL     1      24.110   2.355  52.647  1.00  0.00     0.069 A 
ENDROOT
BRANCH  10  11
HETATM   11  N4  UNL     1      25.376   2.017  53.189  1.00  0.00    -0.323 N 
HETATM   12  C16 UNL     1      26.554   1.789  52.435  1.00  0.00     0.247 C 
HETATM   13  O2  UNL     1      26.702   1.834  51.183  1.00  0.00    -0.271 OA
HETATM   14  H10 UNL     1      25.364   1.946  54.225  1.00  0.00     0.169 HD
BRANCH  12  15
HETATM   15  C17 UNL     1      27.850   1.448  53.050  1.00  0.00     0.203 C 
HETATM   16  C18 UNL     1      27.669   0.390  54.141  1.00  0.00     0.215 C 
HETATM   17  O3  UNL     1      28.720   0.674  55.043  1.00  0.00    -0.301 OA
HETATM   18  C19 UNL     1      29.213   1.975  54.806  1.00  0.00     0.361 C 
HETATM   19  O4  UNL     1      30.196   2.543  55.367  1.00  0.00    -0.238 OA
HETATM   20  N5  UNL     1      28.393   2.585  53.790  1.00  0.00    -0.321 N 
HETATM   21  H14 UNL     1      28.275   3.617  53.674  1.00  0.00     0.165 HD
ENDBRANCH  12  15
ENDBRANCH  10  11
BRANCH   1  22
HETATM   22  O1  UNL     1      23.413   0.095  52.812  1.00  0.00    -0.354 OA
HETATM   23  C1  UNL     1      22.393  -0.713  53.363  1.00  0.00     0.210 C 
ENDBRANCH   1  22
BRANCH   7  24
HETATM   24  N3  UNL     1      23.604   6.316  51.658  1.00  0.00    -0.357 N 
HETATM   25  H6  UNL     1      23.726   6.992  52.452  1.00  0.00     0.162 HD
BRANCH  24  26
HETATM   26  C7  UNL     1      24.325   5.904  50.540  1.00  0.00     0.094 A 
HETATM   27  C8  UNL     1      25.211   6.044  49.806  1.00  0.00    -0.034 A 
HETATM   28  C12 UNL     1      25.370   7.110  50.643  1.00  0.00     0.065 A 
BRANCH  27  29
HETATM   29  C9  UNL     1      26.028   6.190  49.143  1.00  0.00    -0.022 A 
HETATM   30  C10 UNL     1      26.920   6.323  48.428  1.00  0.00     0.176 A 
HETATM   31  F1  UNL     1      27.960   5.804  47.799  1.00  0.00    -0.233 F 
HETATM   32  C11 UNL     1      26.582   4.918  49.105  1.00  0.00     0.077 A 
ENDBRANCH  27  29
ENDBRANCH  24  26
ENDBRANCH   7  24
TORSDOF 7
ENDMDL
MODEL 8
REMARK VINA RESULT:      -8.0      5.272      7.648
REMARK  7 active torsions:
REMARK  status: ('A' for Active; 'I' for Inactive)
REMARK    1  A    between atoms: O1_2  and  C2_3 
REMARK    2  A    between atoms: C6_9  and  N3_10 
REMARK    3  A    between atoms: N3_10  and  C7_11 
REMARK    4  A    between atoms: C8_12  and  C9_13 
REMARK    5  A    between atoms: C11_16  and  C12_17 
REMARK    6  A    between atoms: C15_20  and  N4_21 
REMARK       I    between atoms: N4_21  and  C16_22 
REMARK    7  A    between atoms: C16_22  and  C17_24 
ROOT
HETATM    1  C2  UNL     1      28.639   7.429  47.170  1.00  0.00     0.097 A 
HETATM    2  C3  UNL     1      27.295   7.687  47.333  1.00  0.00     0.071 A 
HETATM    3  C4  UNL     1      26.497   6.853  48.081  1.00  0.00     0.075 A 
HETATM    4  N1  UNL     1      25.189   7.133  48.234  1.00  0.00    -0.241 NA
HETATM    5  C5  UNL     1      24.407   6.305  48.987  1.00  0.00     0.235 A 
HETATM    6  N2  UNL     1      24.924   5.218  49.575  1.00  0.00    -0.224 NA
HETATM    7  C6  UNL     1      26.222   4.849  49.484  1.00  0.00     0.138 A 
HETATM    8  C13 UNL     1      26.999   5.710  48.710  1.00  0.00     0.041 A 
HETATM    9  C14 UNL     1      28.340   5.482  48.527  1.00  0.00     0.050 A 
HETATM   10  C15 UNL     1      29.180   6.292  47.784  1.00  0.00     0.069 A 
ENDROOT
BRANCH  10  11
HETATM   11  N4  UNL     1      30.555   5.962  47.676  1.00  0.00    -0.323 N 
HETATM   12  C16 UNL     1      31.557   6.319  48.612  1.00  0.00     0.247 C 
HETATM   13  O2  UNL     1      31.431   6.980  49.679  1.00  0.00    -0.271 OA
HETATM   14  H10 UNL     1      30.772   5.417  46.820  1.00  0.00     0.169 HD
BRANCH  12  15
HETATM   15  C17 UNL     1      32.974   5.942  48.458  1.00  0.00     0.203 C 
HETATM   16  C18 UNL     1      33.470   6.266  47.046  1.00  0.00     0.215 C 
HETATM   17  O3  UNL     1      34.470   5.292  46.823  1.00  0.00    -0.301 OA
HETATM   18  C19 UNL     1      34.326   4.240  47.753  1.00  0.00     0.361 C 
HETATM   19  O4  UNL     1      35.080   3.234  47.905  1.00  0.00    -0.238 OA
HETATM   20  N5  UNL     1      33.140   4.491  48.533  1.00  0.00    -0.321 N 
HETATM   21  H14 UNL     1      32.588   3.748  49.016  1.00  0.00     0.165 HD
ENDBRANCH  12  15
ENDBRANCH  10  11
BRANCH   1  22
HETATM   22  O1  UNL     1      29.516   8.213  46.435  1.00  0.00    -0.354 OA
HETATM   23  C1  UNL     1      29.264   8.411  45.059  1.00  0.00     0.210 C 
ENDBRANCH   1  22
BRANCH   7  24
HETATM   24  N3  UNL     1      26.912   3.731  50.067  1.00  0.00    -0.357 N 
HETATM   25  H6  UNL     1      27.936   3.506  50.007  1.00  0.00     0.162 HD
BRANCH  24  26
HETATM   26  C7  UNL     1      25.774   3.180  50.649  1.00  0.00     0.094 A 
HETATM   27  C8  UNL     1      25.272   2.374  51.314  1.00  0.00    -0.034 A 
HETATM   28  C12 UNL     1      26.578   1.984  51.339  1.00  0.00     0.065 A 
BRANCH  27  29
HETATM   29  C9  UNL     1      24.830   1.626  51.926  1.00  0.00    -0.022 A 
HETATM   30  C10 UNL     1      24.373   0.802  52.587  1.00  0.00     0.176 A 
HETATM   31  F1  UNL     1      24.498  -0.358  53.206  1.00  0.00    -0.233 F 
HETATM   32  C11 UNL     1      25.869   0.712  52.037  1.00  0.00     0.077 A 
ENDBRANCH  27  29
ENDBRANCH  24  26
ENDBRANCH   7  24
TORSDOF 7
ENDMDL
MODEL 9
REMARK VINA RESULT:      -8.0      3.674      6.132
REMARK  7 active torsions:
REMARK  status: ('A' for Active; 'I' for Inactive)
REMARK    1  A    between atoms: O1_2  and  C2_3 
REMARK    2  A    between atoms: C6_9  and  N3_10 
REMARK    3  A    between atoms: N3_10  and  C7_11 
REMARK    4  A    between atoms: C8_12  and  C9_13 
REMARK    5  A    between atoms: C11_16  and  C12_17 
REMARK    6  A    between atoms: C15_20  and  N4_21 
REMARK       I    between atoms: N4_21  and  C16_22 
REMARK    7  A    between atoms: C16_22  and  C17_24 
ROOT
HETATM    1  C2  UNL     1      26.142   1.902  52.607  1.00  0.00     0.097 A 
HETATM    2  C3  UNL     1      25.829   0.732  53.266  1.00  0.00     0.071 A 
HETATM    3  C4  UNL     1      24.521   0.375  53.497  1.00  0.00     0.075 A 
HETATM    4  N1  UNL     1      24.240  -0.778  54.132  1.00  0.00    -0.241 NA
HETATM    5  C5  UNL     1      22.939  -1.129  54.348  1.00  0.00     0.235 A 
HETATM    6  N2  UNL     1      21.937  -0.340  53.935  1.00  0.00    -0.224 NA
HETATM    7  C6  UNL     1      22.111   0.834  53.289  1.00  0.00     0.138 A 
HETATM    8  C13 UNL     1      23.448   1.170  53.081  1.00  0.00     0.041 A 
HETATM    9  C14 UNL     1      23.795   2.327  52.430  1.00  0.00     0.050 A 
HETATM   10  C15 UNL     1      25.096   2.726  52.176  1.00  0.00     0.069 A 
ENDROOT
BRANCH  10  11
HETATM   11  N4  UNL     1      25.331   3.939  51.481  1.00  0.00    -0.323 N 
HETATM   12  C16 UNL     1      25.259   4.103  50.075  1.00  0.00     0.247 C 
HETATM   13  O2  UNL     1      24.987   3.237  49.200  1.00  0.00    -0.271 OA
HETATM   14  H10 UNL     1      25.572   4.726  52.114  1.00  0.00     0.169 HD
BRANCH  12  15
HETATM   15  C17 UNL     1      25.505   5.391  49.401  1.00  0.00     0.203 C 
HETATM   16  C18 UNL     1      26.887   5.402  48.742  1.00  0.00     0.215 C 
HETATM   17  O3  UNL     1      27.254   6.767  48.784  1.00  0.00    -0.301 OA
HETATM   18  C19 UNL     1      26.448   7.449  49.721  1.00  0.00     0.361 C 
HETATM   19  O4  UNL     1      26.438   8.689  49.974  1.00  0.00    -0.238 OA
HETATM   20  N5  UNL     1      25.603   6.480  50.373  1.00  0.00    -0.321 N 
HETATM   21  H14 UNL     1      25.189   6.608  51.324  1.00  0.00     0.165 HD
ENDBRANCH  12  15
ENDBRANCH  10  11
BRANCH   1  22
HETATM   22  O1  UNL     1      27.430   2.339  52.332  1.00  0.00    -0.354 OA
HETATM   23  C1  UNL     1      28.388   2.333  53.371  1.00  0.00     0.210 C 
ENDBRANCH   1  22
BRANCH   7  24
HETATM   24  N3  UNL     1      21.142   1.766  52.779  1.00  0.00    -0.357 N 
HETATM   25  H6  UNL     1      21.220   2.812  52.730  1.00  0.00     0.162 HD
BRANCH  24  26
HETATM   26  C7  UNL     1      20.208   0.790  52.439  1.00  0.00     0.094 A 
HETATM   27  C8  UNL     1      19.298   0.442  51.811  1.00  0.00    -0.034 A 
HETATM   28  C12 UNL     1      19.464   1.725  51.378  1.00  0.00     0.065 A 
BRANCH  27  29
HETATM   29  C9  UNL     1      18.464   0.142  51.226  1.00  0.00    -0.022 A 
HETATM   30  C10 UNL     1      17.566  -0.166  50.575  1.00  0.00     0.176 A 
HETATM   31  F1  UNL     1      16.878  -0.041  49.454  1.00  0.00    -0.233 F 
HETATM   32  C11 UNL     1      18.627   0.923  50.091  1.00  0.00     0.077 A 
ENDBRANCH  27  29
ENDBRANCH  24  26
ENDBRANCH   7  24
TORSDOF 7
ENDMDL
