MODEL 1
REMARK VINA RESULT:      -7.8      0.000      0.000
REMARK  8 active torsions:
REMARK  status: ('A' for Active; 'I' for Inactive)
REMARK    1  A    between atoms: O1_2  and  C2_3 
REMARK    2  A    between atoms: C2_3  and  C3_5 
REMARK    3  A    between atoms: C4_6  and  S1_7 
REMARK    4  A    between atoms: S1_7  and  C5_8 
REMARK    5  A    between atoms: C6_9  and  C7_10 
REMARK    6  A    between atoms: C7_10  and  C8_11 
REMARK    7  A    between atoms: C8_11  and  C9_12 
REMARK    8  A    between atoms: C18_23  and  C19_24 
ROOT
HETATM    1  C5  UNL     1      23.877   2.706  51.228  1.00  0.00     0.084 A 
HETATM    2  C6  UNL     1      24.082   3.586  50.185  1.00  0.00    -0.011 A 
HETATM    3  C10 UNL     1      23.115   3.333  49.200  1.00  0.00    -0.000 A 
HETATM    4  C11 UNL     1      22.886   3.934  47.972  1.00  0.00     0.014 A 
HETATM    5  C12 UNL     1      21.846   3.484  47.180  1.00  0.00     0.001 A 
HETATM    6  C13 UNL     1      21.064   2.434  47.657  1.00  0.00     0.002 A 
HETATM    7  C14 UNL     1      21.298   1.834  48.892  1.00  0.00     0.030 A 
HETATM    8  C15 UNL     1      22.331   2.281  49.679  1.00  0.00     0.045 A 
HETATM    9  N1  UNL     1      22.821   1.945  50.882  1.00  0.00    -0.344 N 
HETATM   10  C16 UNL     1      22.216   0.862  51.651  1.00  0.00     0.157 C 
ENDROOT
BRANCH   1  11
HETATM   11  S1  UNL     1      24.792   2.600  52.771  1.00  0.00    -0.075 SA
BRANCH  11  12
HETATM   12  C4  UNL     1      25.717   1.060  52.744  1.00  0.00    -0.002 A 
HETATM   13  C3  UNL     1      25.786  -0.099  53.352  1.00  0.00     0.038 A 
HETATM   14  C18 UNL     1      26.927  -0.647  52.604  1.00  0.00     0.055 A 
HETATM   15  C17 UNL     1      26.774   0.618  51.820  1.00  0.00     0.060 A 
BRANCH  13  16
HETATM   16  C2  UNL     1      25.076  -0.754  54.435  1.00  0.00     0.290 C 
HETATM   17  O2  UNL     1      25.419  -1.235  55.512  1.00  0.00    -0.260 OA
BRANCH  16  18
HETATM   18  O1  UNL     1      23.703  -0.953  54.381  1.00  0.00    -0.323 OA
HETATM   19  C1  UNL     1      23.015  -1.464  55.519  1.00  0.00     0.213 C 
ENDBRANCH  16  18
ENDBRANCH  13  16
BRANCH  14  20
HETATM   20  C19 UNL     1      28.210  -0.695  53.386  1.00  0.00     0.012 C 
HETATM   21  C20 UNL     1      29.351  -1.396  53.394  1.00  0.00     0.185 C 
HETATM   22  F1  UNL     1      30.530  -1.439  54.112  1.00  0.00    -0.220 F 
ENDBRANCH  14  20
ENDBRANCH  11  12
ENDBRANCH   1  11
BRANCH   2  23
HETATM   23  C7  UNL     1      25.163   4.614  50.132  1.00  0.00     0.049 C 
BRANCH  23  24
HETATM   24  C8  UNL     1      26.372   4.017  49.461  1.00  0.00     0.074 C 
BRANCH  24  25
HETATM   25  C9  UNL     1      27.164   5.003  48.706  1.00  0.00     0.231 C 
HETATM   26  O3  UNL     1      28.392   4.793  48.671  1.00  0.00    -0.307 OA
ENDBRANCH  24  25
ENDBRANCH  23  24
ENDBRANCH   2  23
TORSDOF 8
ENDMDL
MODEL 2
REMARK VINA RESULT:      -7.6      2.019      3.342
REMARK  8 active torsions:
REMARK  status: ('A' for Active; 'I' for Inactive)
REMARK    1  A    between atoms: O1_2  and  C2_3 
REMARK    2  A    between atoms: C2_3  and  C3_5 
REMARK    3  A    between atoms: C4_6  and  S1_7 
REMARK    4  A    between atoms: S1_7  and  C5_8 
REMARK    5  A    between atoms: C6_9  and  C7_10 
REMARK    6  A    between atoms: C7_10  and  C8_11 
REMARK    7  A    between atoms: C8_11  and  C9_12 
REMARK    8  A    between atoms: C18_23  and  C19_24 
ROOT
HETATM    1  C5  UNL     1      23.799   2.751  51.339  1.00  0.00     0.084 A 
HETATM    2  C6  UNL     1      22.778   1.923  50.915  1.00  0.00    -0.011 A 
HETATM    3  C10 UNL     1      22.346   2.369  49.656  1.00  0.00    -0.000 A 
HETATM    4  C11 UNL     1      21.361   1.888  48.808  1.00  0.00     0.014 A 
HETATM    5  C12 UNL     1      21.134   2.524  47.602  1.00  0.00     0.001 A 
HETATM    6  C13 UNL     1      21.917   3.634  47.287  1.00  0.00     0.002 A 
HETATM    7  C14 UNL     1      22.906   4.112  48.143  1.00  0.00     0.030 A 
HETATM    8  C15 UNL     1      23.132   3.480  49.341  1.00  0.00     0.045 A 
HETATM    9  N1  UNL     1      23.975   3.666  50.367  1.00  0.00    -0.344 N 
HETATM   10  C16 UNL     1      24.936   4.765  50.346  1.00  0.00     0.157 C 
ENDROOT
BRANCH   1  11
HETATM   11  S1  UNL     1      24.750   2.629  52.859  1.00  0.00    -0.075 SA
BRANCH  11  12
HETATM   12  C4  UNL     1      25.684   1.095  52.788  1.00  0.00    -0.002 A 
HETATM   13  C3  UNL     1      25.746  -0.088  53.350  1.00  0.00     0.038 A 
HETATM   14  C18 UNL     1      26.906  -0.600  52.603  1.00  0.00     0.055 A 
HETATM   15  C17 UNL     1      26.762   0.695  51.869  1.00  0.00     0.060 A 
BRANCH  13  16
HETATM   16  C2  UNL     1      25.018  -0.789  54.390  1.00  0.00     0.290 C 
HETATM   17  O2  UNL     1      25.316  -1.209  55.506  1.00  0.00    -0.260 OA
BRANCH  16  18
HETATM   18  O1  UNL     1      23.681  -1.129  54.231  1.00  0.00    -0.323 OA
HETATM   19  C1  UNL     1      22.852  -1.302  55.376  1.00  0.00     0.213 C 
ENDBRANCH  16  18
ENDBRANCH  13  16
BRANCH  14  20
HETATM   20  C19 UNL     1      28.172  -0.674  53.409  1.00  0.00     0.012 C 
HETATM   21  C20 UNL     1      29.372  -1.265  53.335  1.00  0.00     0.185 C 
HETATM   22  F1  UNL     1      30.536  -1.332  54.075  1.00  0.00    -0.220 F 
ENDBRANCH  14  20
ENDBRANCH  11  12
ENDBRANCH   1  11
BRANCH   2  23
HETATM   23  C7  UNL     1      22.235   0.767  51.687  1.00  0.00     0.049 C 
BRANCH  23  24
HETATM   24  C8  UNL     1      21.442   1.289  52.855  1.00  0.00     0.074 C 
BRANCH  24  25
HETATM   25  C9  UNL     1      20.129   1.834  52.469  1.00  0.00     0.231 C 
HETATM   26  O3  UNL     1      19.968   3.052  52.683  1.00  0.00    -0.307 OA
ENDBRANCH  24  25
ENDBRANCH  23  24
ENDBRANCH   2  23
TORSDOF 8
ENDMDL
MODEL 3
REMARK VINA RESULT:      -7.4      3.428      7.740
REMARK  8 active torsions:
REMARK  status: ('A' for Active; 'I' for Inactive)
REMARK    1  A    between atoms: O1_2  and  C2_3 
REMARK    2  A    between atoms: C2_3  and  C3_5 
REMARK    3  A    between atoms: C4_6  and  S1_7 
REMARK    4  A    between atoms: S1_7  and  C5_8 
REMARK    5  A    between atoms: C6_9  and  C7_10 
REMARK    6  A    between atoms: C7_10  and  C8_11 
REMARK    7  A    between atoms: C8_11  and  C9_12 
REMARK    8  A    between atoms: C18_23  and  C19_24 
ROOT
HETATM    1  C5  UNL     1      26.418   1.284  53.398  1.00  0.00     0.084 A 
HETATM    2  C6  UNL     1      26.057  -0.032  53.187  1.00  0.00    -0.011 A 
HETATM    3  C10 UNL     1      27.224  -0.812  53.182  1.00  0.00    -0.000 A 
HETATM    4  C11 UNL     1      27.408  -2.175  53.016  1.00  0.00     0.014 A 
HETATM    5  C12 UNL     1      28.688  -2.697  53.054  1.00  0.00     0.001 A 
HETATM    6  C13 UNL     1      29.749  -1.818  53.263  1.00  0.00     0.002 A 
HETATM    7  C14 UNL     1      29.558  -0.449  53.431  1.00  0.00     0.030 A 
HETATM    8  C15 UNL     1      28.287   0.069  53.393  1.00  0.00     0.045 A 
HETATM    9  N1  UNL     1      27.759   1.296  53.514  1.00  0.00    -0.344 N 
HETATM   10  C16 UNL     1      28.620   2.453  53.739  1.00  0.00     0.157 C 
ENDROOT
BRANCH   1  11
HETATM   11  S1  UNL     1      25.333   2.710  53.537  1.00  0.00    -0.075 SA
BRANCH  11  12
HETATM   12  C4  UNL     1      24.747   3.104  51.885  1.00  0.00    -0.002 A 
HETATM   13  C3  UNL     1      23.896   3.883  51.263  1.00  0.00     0.038 A 
HETATM   14  C18 UNL     1      24.150   3.403  49.896  1.00  0.00     0.055 A 
HETATM   15  C17 UNL     1      25.213   2.604  50.580  1.00  0.00     0.060 A 
BRANCH  13  16
HETATM   16  C2  UNL     1      22.934   4.898  51.651  1.00  0.00     0.290 C 
HETATM   17  O2  UNL     1      21.947   4.903  52.383  1.00  0.00    -0.260 OA
BRANCH  16  18
HETATM   18  O1  UNL     1      23.020   6.196  51.166  1.00  0.00    -0.323 OA
HETATM   19  C1  UNL     1      21.831   6.922  50.869  1.00  0.00     0.213 C 
ENDBRANCH  16  18
ENDBRANCH  13  16
BRANCH  14  20
HETATM   20  C19 UNL     1      23.051   2.546  49.331  1.00  0.00     0.012 C 
HETATM   21  C20 UNL     1      22.130   2.612  48.361  1.00  0.00     0.185 C 
HETATM   22  F1  UNL     1      21.122   1.825  47.841  1.00  0.00    -0.220 F 
ENDBRANCH  14  20
ENDBRANCH  11  12
ENDBRANCH   1  11
BRANCH   2  23
HETATM   23  C7  UNL     1      24.659  -0.516  52.989  1.00  0.00     0.049 C 
BRANCH  23  24
HETATM   24  C8  UNL     1      24.064  -0.855  54.330  1.00  0.00     0.074 C 
BRANCH  24  25
HETATM   25  C9  UNL     1      22.594  -0.940  54.309  1.00  0.00     0.231 C 
HETATM   26  O3  UNL     1      22.071  -1.464  55.312  1.00  0.00    -0.307 OA
ENDBRANCH  24  25
ENDBRANCH  23  24
ENDBRANCH   2  23
TORSDOF 8
ENDMDL
MODEL 4
REMARK VINA RESULT:      -7.3      3.172      8.008
REMARK  8 active torsions:
REMARK  status: ('A' for Active; 'I' for Inactive)
REMARK    1  A    between atoms: O1_2  and  C2_3 
REMARK    2  A    between atoms: C2_3  and  C3_5 
REMARK    3  A    between atoms: C4_6  and  S1_7 
REMARK    4  A    between atoms: S1_7  and  C5_8 
REMARK    5  A    between atoms: C6_9  and  C7_10 
REMARK    6  A    between atoms: C7_10  and  C8_11 
REMARK    7  A    between atoms: C8_11  and  C9_12 
REMARK    8  A    between atoms: C18_23  and  C19_24 
ROOT
HETATM    1  C5  UNL     1      26.361   1.224  53.206  1.00  0.00     0.084 A 
HETATM    2  C6  UNL     1      26.070  -0.120  53.091  1.00  0.00    -0.011 A 
HETATM    3  C10 UNL     1      27.273  -0.838  53.166  1.00  0.00    -0.000 A 
HETATM    4  C11 UNL     1      27.527  -2.199  53.109  1.00  0.00     0.014 A 
HETATM    5  C12 UNL     1      28.830  -2.652  53.211  1.00  0.00     0.001 A 
HETATM    6  C13 UNL     1      29.843  -1.707  53.371  1.00  0.00     0.002 A 
HETATM    7  C14 UNL     1      29.581  -0.340  53.429  1.00  0.00     0.030 A 
HETATM    8  C15 UNL     1      28.287   0.109  53.328  1.00  0.00     0.045 A 
HETATM    9  N1  UNL     1      27.697   1.313  53.345  1.00  0.00    -0.344 N 
HETATM   10  C16 UNL     1      28.495   2.526  53.496  1.00  0.00     0.157 C 
ENDROOT
BRANCH   1  11
HETATM   11  S1  UNL     1      25.205   2.600  53.215  1.00  0.00    -0.075 SA
BRANCH  11  12
HETATM   12  C4  UNL     1      24.605   2.810  51.534  1.00  0.00    -0.002 A 
HETATM   13  C3  UNL     1      24.938   3.365  50.394  1.00  0.00     0.038 A 
HETATM   14  C18 UNL     1      23.732   2.996  49.636  1.00  0.00     0.055 A 
HETATM   15  C17 UNL     1      23.404   2.251  50.891  1.00  0.00     0.060 A 
BRANCH  13  16
HETATM   16  C2  UNL     1      26.057   4.144  49.899  1.00  0.00     0.290 C 
HETATM   17  O2  UNL     1      27.153   3.857  49.425  1.00  0.00    -0.260 OA
BRANCH  16  18
HETATM   18  O1  UNL     1      26.026   5.532  49.901  1.00  0.00    -0.323 OA
HETATM   19  C1  UNL     1      25.812   6.238  48.682  1.00  0.00     0.213 C 
ENDBRANCH  16  18
ENDBRANCH  13  16
BRANCH  14  20
HETATM   20  C19 UNL     1      22.794   4.141  49.377  1.00  0.00     0.012 C 
HETATM   21  C20 UNL     1      21.767   4.429  48.565  1.00  0.00     0.185 C 
HETATM   22  F1  UNL     1      20.904   5.480  48.328  1.00  0.00    -0.220 F 
ENDBRANCH  14  20
ENDBRANCH  11  12
ENDBRANCH   1  11
BRANCH   2  23
HETATM   23  C7  UNL     1      24.702  -0.688  52.904  1.00  0.00     0.049 C 
BRANCH  23  24
HETATM   24  C8  UNL     1      24.038  -0.814  54.250  1.00  0.00     0.074 C 
BRANCH  24  25
HETATM   25  C9  UNL     1      22.568  -0.874  54.169  1.00  0.00     0.231 C 
HETATM   26  O3  UNL     1      22.009  -1.555  55.051  1.00  0.00    -0.307 OA
ENDBRANCH  24  25
ENDBRANCH  23  24
ENDBRANCH   2  23
TORSDOF 8
ENDMDL
MODEL 5
REMARK VINA RESULT:      -7.1      4.444      8.016
REMARK  8 active torsions:
REMARK  status: ('A' for Active; 'I' for Inactive)
REMARK    1  A    between atoms: O1_2  and  C2_3 
REMARK    2  A    between atoms: C2_3  and  C3_5 
REMARK    3  A    between atoms: C4_6  and  S1_7 
REMARK    4  A    between atoms: S1_7  and  C5_8 
REMARK    5  A    between atoms: C6_9  and  C7_10 
REMARK    6  A    between atoms: C7_10  and  C8_11 
REMARK    7  A    between atoms: C8_11  and  C9_12 
REMARK    8  A    between atoms: C18_23  and  C19_24 
ROOT
HETATM    1  C5  UNL     1      23.198   2.161  52.046  1.00  0.00     0.084 A 
HETATM    2  C6  UNL     1      23.184   1.076  52.900  1.00  0.00    -0.011 A 
HETATM    3  C10 UNL     1      24.449   0.470  52.860  1.00  0.00    -0.000 A 
HETATM    4  C11 UNL     1      24.950  -0.637  53.526  1.00  0.00     0.014 A 
HETATM    5  C12 UNL     1      26.258  -1.029  53.302  1.00  0.00     0.001 A 
HETATM    6  C13 UNL     1      27.023  -0.284  52.407  1.00  0.00     0.002 A 
HETATM    7  C14 UNL     1      26.514   0.828  51.741  1.00  0.00     0.030 A 
HETATM    8  C15 UNL     1      25.216   1.218  51.963  1.00  0.00     0.045 A 
HETATM    9  N1  UNL     1      24.431   2.206  51.509  1.00  0.00    -0.344 N 
HETATM   10  C16 UNL     1      24.942   3.170  50.540  1.00  0.00     0.157 C 
ENDROOT
BRANCH   1  11
HETATM   11  S1  UNL     1      21.865   3.324  51.728  1.00  0.00    -0.075 SA
BRANCH  11  12
HETATM   12  C4  UNL     1      20.537   2.415  50.929  1.00  0.00    -0.002 A 
HETATM   13  C3  UNL     1      19.261   2.514  50.644  1.00  0.00     0.038 A 
HETATM   14  C18 UNL     1      19.100   1.200  50.003  1.00  0.00     0.055 A 
HETATM   15  C17 UNL     1      20.580   1.132  50.208  1.00  0.00     0.060 A 
BRANCH  13  16
HETATM   16  C2  UNL     1      18.217   3.499  50.856  1.00  0.00     0.290 C 
HETATM   17  O2  UNL     1      17.751   4.408  50.175  1.00  0.00    -0.260 OA
BRANCH  16  18
HETATM   18  O1  UNL     1      17.499   3.545  52.044  1.00  0.00    -0.323 OA
HETATM   19  C1  UNL     1      16.180   4.082  52.055  1.00  0.00     0.213 C 
ENDBRANCH  16  18
ENDBRANCH  13  16
BRANCH  14  20
HETATM   20  C19 UNL     1      18.352   0.196  50.836  1.00  0.00     0.012 C 
HETATM   21  C20 UNL     1      17.108   0.007  51.297  1.00  0.00     0.185 C 
HETATM   22  F1  UNL     1      16.420  -0.915  52.060  1.00  0.00    -0.220 F 
ENDBRANCH  14  20
ENDBRANCH  11  12
ENDBRANCH   1  11
BRANCH   2  23
HETATM   23  C7  UNL     1      22.008   0.635  53.705  1.00  0.00     0.049 C 
BRANCH  23  24
HETATM   24  C8  UNL     1      21.535  -0.699  53.191  1.00  0.00     0.074 C 
BRANCH  24  25
HETATM   25  C9  UNL     1      21.071  -1.603  54.258  1.00  0.00     0.231 C 
HETATM   26  O3  UNL     1      21.892  -1.826  55.168  1.00  0.00    -0.307 OA
ENDBRANCH  24  25
ENDBRANCH  23  24
ENDBRANCH   2  23
TORSDOF 8
ENDMDL
MODEL 6
REMARK VINA RESULT:      -7.0      3.088      5.912
REMARK  8 active torsions:
REMARK  status: ('A' for Active; 'I' for Inactive)
REMARK    1  A    between atoms: O1_2  and  C2_3 
REMARK    2  A    between atoms: C2_3  and  C3_5 
REMARK    3  A    between atoms: C4_6  and  S1_7 
REMARK    4  A    between atoms: S1_7  and  C5_8 
REMARK    5  A    between atoms: C6_9  and  C7_10 
REMARK    6  A    between atoms: C7_10  and  C8_11 
REMARK    7  A    between atoms: C8_11  and  C9_12 
REMARK    8  A    between atoms: C18_23  and  C19_24 
ROOT
HETATM    1  C5  UNL     1      22.939   3.663  52.522  1.00  0.00     0.084 A 
HETATM    2  C6  UNL     1      23.790   2.629  52.859  1.00  0.00    -0.011 A 
HETATM    3  C10 UNL     1      23.060   1.431  52.823  1.00  0.00    -0.000 A 
HETATM    4  C11 UNL     1      23.444   0.122  53.073  1.00  0.00     0.014 A 
HETATM    5  C12 UNL     1      22.509  -0.891  52.964  1.00  0.00     0.001 A 
HETATM    6  C13 UNL     1      21.207  -0.548  52.602  1.00  0.00     0.002 A 
HETATM    7  C14 UNL     1      20.828   0.768  52.351  1.00  0.00     0.030 A 
HETATM    8  C15 UNL     1      21.756   1.775  52.459  1.00  0.00     0.045 A 
HETATM    9  N1  UNL     1      21.735   3.106  52.293  1.00  0.00    -0.344 N 
HETATM   10  C16 UNL     1      20.501   3.784  51.911  1.00  0.00     0.157 C 
ENDROOT
BRANCH   1  11
HETATM   11  S1  UNL     1      23.340   5.408  52.371  1.00  0.00    -0.075 SA
BRANCH  11  12
HETATM   12  C4  UNL     1      24.186   5.632  50.802  1.00  0.00    -0.002 A 
HETATM   13  C3  UNL     1      24.182   5.188  49.568  1.00  0.00     0.038 A 
HETATM   14  C18 UNL     1      25.310   5.988  49.067  1.00  0.00     0.055 A 
HETATM   15  C17 UNL     1      25.239   6.593  50.433  1.00  0.00     0.060 A 
BRANCH  13  16
HETATM   16  C2  UNL     1      23.417   4.216  48.811  1.00  0.00     0.290 C 
HETATM   17  O2  UNL     1      22.758   4.267  47.776  1.00  0.00    -0.260 OA
BRANCH  16  18
HETATM   18  O1  UNL     1      23.315   2.895  49.229  1.00  0.00    -0.323 OA
HETATM   19  C1  UNL     1      22.354   2.033  48.627  1.00  0.00     0.213 C 
ENDBRANCH  16  18
ENDBRANCH  13  16
BRANCH  14  20
HETATM   20  C19 UNL     1      26.571   5.201  48.845  1.00  0.00     0.012 C 
HETATM   21  C20 UNL     1      27.814   5.411  48.390  1.00  0.00     0.185 C 
HETATM   22  F1  UNL     1      28.973   4.688  48.187  1.00  0.00    -0.220 F 
ENDBRANCH  14  20
ENDBRANCH  11  12
ENDBRANCH   1  11
BRANCH   2  23
HETATM   23  C7  UNL     1      25.232   2.785  53.210  1.00  0.00     0.049 C 
BRANCH  23  24
HETATM   24  C8  UNL     1      26.071   2.307  52.055  1.00  0.00     0.074 C 
BRANCH  24  25
HETATM   25  C9  UNL     1      27.323   1.655  52.476  1.00  0.00     0.231 C 
HETATM   26  O3  UNL     1      28.293   2.417  52.652  1.00  0.00    -0.307 OA
ENDBRANCH  24  25
ENDBRANCH  23  24
ENDBRANCH   2  23
TORSDOF 8
ENDMDL
MODEL 7
REMARK VINA RESULT:      -6.9      3.457      6.341
REMARK  8 active torsions:
REMARK  status: ('A' for Active; 'I' for Inactive)
REMARK    1  A    between atoms: O1_2  and  C2_3 
REMARK    2  A    between atoms: C2_3  and  C3_5 
REMARK    3  A    between atoms: C4_6  and  S1_7 
REMARK    4  A    between atoms: S1_7  and  C5_8 
REMARK    5  A    between atoms: C6_9  and  C7_10 
REMARK    6  A    between atoms: C7_10  and  C8_11 
REMARK    7  A    between atoms: C8_11  and  C9_12 
REMARK    8  A    between atoms: C18_23  and  C19_24 
ROOT
HETATM    1  C5  UNL     1      22.622   1.319  50.985  1.00  0.00     0.084 A 
HETATM    2  C6  UNL     1      23.569   0.950  51.920  1.00  0.00    -0.011 A 
HETATM    3  C10 UNL     1      22.927   0.213  52.927  1.00  0.00    -0.000 A 
HETATM    4  C11 UNL     1      23.423  -0.381  54.077  1.00  0.00     0.014 A 
HETATM    5  C12 UNL     1      22.559  -1.061  54.916  1.00  0.00     0.001 A 
HETATM    6  C13 UNL     1      21.212  -1.120  54.563  1.00  0.00     0.002 A 
HETATM    7  C14 UNL     1      20.720  -0.521  53.406  1.00  0.00     0.030 A 
HETATM    8  C15 UNL     1      21.578   0.153  52.573  1.00  0.00     0.045 A 
HETATM    9  N1  UNL     1      21.448   0.822  51.417  1.00  0.00    -0.344 N 
HETATM   10  C16 UNL     1      20.141   0.948  50.779  1.00  0.00     0.157 C 
ENDROOT
BRANCH   1  11
HETATM   11  S1  UNL     1      22.882   2.241  49.465  1.00  0.00    -0.075 SA
BRANCH  11  12
HETATM   12  C4  UNL     1      24.184   3.439  49.778  1.00  0.00    -0.002 A 
HETATM   13  C3  UNL     1      24.401   4.569  50.405  1.00  0.00     0.038 A 
HETATM   14  C18 UNL     1      25.803   4.753  50.001  1.00  0.00     0.055 A 
HETATM   15  C17 UNL     1      25.604   3.402  49.390  1.00  0.00     0.060 A 
BRANCH  13  16
HETATM   16  C2  UNL     1      23.620   5.474  51.227  1.00  0.00     0.290 C 
HETATM   17  O2  UNL     1      23.355   6.672  51.164  1.00  0.00    -0.260 OA
BRANCH  16  18
HETATM   18  O1  UNL     1      22.970   5.029  52.371  1.00  0.00    -0.323 OA
HETATM   19  C1  UNL     1      21.635   4.542  52.284  1.00  0.00     0.213 C 
ENDBRANCH  16  18
ENDBRANCH  13  16
BRANCH  14  20
HETATM   20  C19 UNL     1      26.011   5.831  48.974  1.00  0.00     0.012 C 
HETATM   21  C20 UNL     1      26.758   6.931  48.815  1.00  0.00     0.185 C 
HETATM   22  F1  UNL     1      26.950   7.920  47.871  1.00  0.00    -0.220 F 
ENDBRANCH  14  20
ENDBRANCH  11  12
ENDBRANCH   1  11
BRANCH   2  23
HETATM   23  C7  UNL     1      25.019   1.298  51.854  1.00  0.00     0.049 C 
BRANCH  23  24
HETATM   24  C8  UNL     1      25.355   2.213  53.001  1.00  0.00     0.074 C 
BRANCH  24  25
HETATM   25  C9  UNL     1      26.645   1.899  53.637  1.00  0.00     0.231 C 
HETATM   26  O3  UNL     1      26.574   1.344  54.751  1.00  0.00    -0.307 OA
ENDBRANCH  24  25
ENDBRANCH  23  24
ENDBRANCH   2  23
TORSDOF 8
ENDMDL
MODEL 8
REMARK VINA RESULT:      -6.9      4.064      7.786
REMARK  8 active torsions:
REMARK  status: ('A' for Active; 'I' for Inactive)
REMARK    1  A    between atoms: O1_2  and  C2_3 
REMARK    2  A    between atoms: C2_3  and  C3_5 
REMARK    3  A    between atoms: C4_6  and  S1_7 
REMARK    4  A    between atoms: S1_7  and  C5_8 
REMARK    5  A    between atoms: C6_9  and  C7_10 
REMARK    6  A    between atoms: C7_10  and  C8_11 
REMARK    7  A    between atoms: C8_11  and  C9_12 
REMARK    8  A    between atoms: C18_23  and  C19_24 
ROOT
HETATM    1  C5  UNL     1      24.485   1.557  51.819  1.00  0.00     0.084 A 
HETATM    2  C6  UNL     1      24.377   0.898  53.028  1.00  0.00    -0.011 A 
HETATM    3  C10 UNL     1      25.667   0.741  53.559  1.00  0.00    -0.000 A 
HETATM    4  C11 UNL     1      26.102   0.157  54.738  1.00  0.00     0.014 A 
HETATM    5  C12 UNL     1      27.454   0.135  55.026  1.00  0.00     0.001 A 
HETATM    6  C13 UNL     1      28.331   0.710  54.108  1.00  0.00     0.002 A 
HETATM    7  C14 UNL     1      27.888   1.297  52.925  1.00  0.00     0.030 A 
HETATM    8  C15 UNL     1      26.545   1.319  52.639  1.00  0.00     0.045 A 
HETATM    9  N1  UNL     1      25.798   1.787  51.628  1.00  0.00    -0.344 N 
HETATM   10  C16 UNL     1      26.426   2.450  50.490  1.00  0.00     0.157 C 
ENDROOT
BRANCH   1  11
HETATM   11  S1  UNL     1      23.155   2.057  50.720  1.00  0.00    -0.075 SA
BRANCH  11  12
HETATM   12  C4  UNL     1      22.613   3.690  51.240  1.00  0.00    -0.002 A 
HETATM   13  C3  UNL     1      21.519   4.375  51.473  1.00  0.00     0.038 A 
HETATM   14  C18 UNL     1      22.159   5.656  51.812  1.00  0.00     0.055 A 
HETATM   15  C17 UNL     1      23.410   4.848  51.675  1.00  0.00     0.060 A 
BRANCH  13  16
HETATM   16  C2  UNL     1      20.093   4.115  51.422  1.00  0.00     0.290 C 
HETATM   17  O2  UNL     1      19.178   4.516  50.708  1.00  0.00    -0.260 OA
BRANCH  16  18
HETATM   18  O1  UNL     1      19.487   3.243  52.316  1.00  0.00    -0.323 OA
HETATM   19  C1  UNL     1      19.385   1.858  51.998  1.00  0.00     0.213 C 
ENDBRANCH  16  18
ENDBRANCH  13  16
BRANCH  14  20
HETATM   20  C19 UNL     1      22.027   6.710  50.749  1.00  0.00     0.012 C 
HETATM   21  C20 UNL     1      22.631   7.851  50.391  1.00  0.00     0.185 C 
HETATM   22  F1  UNL     1      22.511   8.818  49.413  1.00  0.00    -0.220 F 
ENDBRANCH  14  20
ENDBRANCH  11  12
ENDBRANCH   1  11
BRANCH   2  23
HETATM   23  C7  UNL     1      23.098   0.432  53.639  1.00  0.00     0.049 C 
BRANCH  23  24
HETATM   24  C8  UNL     1      22.863  -1.002  53.247  1.00  0.00     0.074 C 
BRANCH  24  25
HETATM   25  C9  UNL     1      21.748  -1.629  53.976  1.00  0.00     0.231 C 
HETATM   26  O3  UNL     1      22.008  -2.008  55.135  1.00  0.00    -0.307 OA
ENDBRANCH  24  25
ENDBRANCH  23  24
ENDBRANCH   2  23
TORSDOF 8
ENDMDL
MODEL 9
REMARK VINA RESULT:      -6.9      4.033      6.977
REMARK  8 active torsions:
REMARK  status: ('A' for Active; 'I' for Inactive)
REMARK    1  A    between atoms: O1_2  and  C2_3 
REMARK    2  A    between atoms: C2_3  and  C3_5 
REMARK    3  A    between atoms: C4_6  and  S1_7 
REMARK    4  A    between atoms: S1_7  and  C5_8 
REMARK    5  A    between atoms: C6_9  and  C7_10 
REMARK    6  A    between atoms: C7_10  and  C8_11 
REMARK    7  A    between atoms: C8_11  and  C9_12 
REMARK    8  A    between atoms: C18_23  and  C19_24 
ROOT
HETATM    1  C5  UNL     1      24.542   2.342  50.969  1.00  0.00     0.084 A 
HETATM    2  C6  UNL     1      24.905   1.744  52.159  1.00  0.00    -0.011 A 
HETATM    3  C10 UNL     1      23.851   0.916  52.574  1.00  0.00    -0.000 A 
HETATM    4  C11 UNL     1      23.716   0.101  53.687  1.00  0.00     0.014 A 
HETATM    5  C12 UNL     1      22.551  -0.624  53.861  1.00  0.00     0.001 A 
HETATM    6  C13 UNL     1      21.553  -0.503  52.895  1.00  0.00     0.002 A 
HETATM    7  C14 UNL     1      21.695   0.316  51.778  1.00  0.00     0.030 A 
HETATM    8  C15 UNL     1      22.852   1.036  51.606  1.00  0.00     0.045 A 
HETATM    9  N1  UNL     1      23.307   1.891  50.678  1.00  0.00    -0.344 N 
HETATM   10  C16 UNL     1      22.485   2.236  49.522  1.00  0.00     0.157 C 
ENDROOT
BRANCH   1  11
HETATM   11  S1  UNL     1      25.517   3.470  49.965  1.00  0.00    -0.075 SA
BRANCH  11  12
HETATM   12  C4  UNL     1      24.939   5.136  50.312  1.00  0.00    -0.002 A 
HETATM   13  C3  UNL     1      23.965   5.773  50.915  1.00  0.00     0.038 A 
HETATM   14  C18 UNL     1      24.389   7.142  50.583  1.00  0.00     0.055 A 
HETATM   15  C17 UNL     1      25.570   6.430  50.004  1.00  0.00     0.060 A 
BRANCH  13  16
HETATM   16  C2  UNL     1      22.780   5.400  51.664  1.00  0.00     0.290 C 
HETATM   17  O2  UNL     1      22.569   4.638  52.605  1.00  0.00    -0.260 OA
BRANCH  16  18
HETATM   18  O1  UNL     1      21.537   5.943  51.365  1.00  0.00    -0.323 OA
HETATM   19  C1  UNL     1      20.780   5.422  50.277  1.00  0.00     0.213 C 
ENDBRANCH  16  18
ENDBRANCH  13  16
BRANCH  14  20
HETATM   20  C19 UNL     1      23.543   7.810  49.535  1.00  0.00     0.012 C 
HETATM   21  C20 UNL     1      22.603   8.762  49.467  1.00  0.00     0.185 C 
HETATM   22  F1  UNL     1      21.826   9.378  48.505  1.00  0.00    -0.220 F 
ENDBRANCH  14  20
ENDBRANCH  11  12
ENDBRANCH   1  11
BRANCH   2  23
HETATM   23  C7  UNL     1      26.199   1.966  52.869  1.00  0.00     0.049 C 
BRANCH  23  24
HETATM   24  C8  UNL     1      27.094   0.777  52.638  1.00  0.00     0.074 C 
BRANCH  24  25
HETATM   25  C9  UNL     1      27.684   0.243  53.877  1.00  0.00     0.231 C 
HETATM   26  O3  UNL     1      27.233   0.721  54.937  1.00  0.00    -0.307 OA
ENDBRANCH  24  25
ENDBRANCH  23  24
ENDBRANCH   2  23
TORSDOF 8
ENDMDL
