MODEL 1
REMARK VINA RESULT:      -7.9      0.000      0.000
REMARK  8 active torsions:
REMARK  status: ('A' for Active; 'I' for Inactive)
REMARK    1  A    between atoms: C1_2  and  C2_5 
REMARK    2  A    between atoms: C6_9  and  C7_10 
REMARK    3  A    between atoms: C7_10  and  O1_12 
REMARK    4  A    between atoms: O1_12  and  C8_13 
REMARK    5  A    between atoms: C8_13  and  C9_14 
REMARK    6  A    between atoms: C10_15  and  S1_16 
REMARK    7  A    between atoms: S1_16  and  C11_17 
REMARK    8  A    between atoms: C11_17  and  C12_18 
ROOT
HETATM    1  C7  UNL     1      24.181   4.263  50.034  1.00  0.00     0.228 C 
HETATM    2 CL1  UNL     1      23.188   4.244  48.535  1.00  0.00    -0.094 Cl
ENDROOT
BRANCH   1   3
HETATM    3  C6  UNL     1      25.350   5.213  49.879  1.00  0.00     0.074 C 
HETATM    4  C5  UNL     1      25.014   6.329  48.953  1.00  0.00    -0.014 C 
HETATM    5  C4  UNL     1      25.736   7.102  48.176  1.00  0.00    -0.002 C 
HETATM    6  C3  UNL     1      27.193   7.087  47.982  1.00  0.00     0.016 C 
HETATM    7  C2  UNL     1      27.972   6.022  48.212  1.00  0.00     0.047 C 
HETATM    8  C15 UNL     1      27.605   4.683  48.683  1.00  0.00     0.013 C 
HETATM    9  C14 UNL     1      26.490   4.407  49.378  1.00  0.00    -0.014 C 
BRANCH   7  10
HETATM   10  C1  UNL     1      29.422   6.206  47.956  1.00  0.00     0.417 C 
HETATM   11  F1  UNL     1      29.541   6.863  46.747  1.00  0.00    -0.166 F 
HETATM   12  F2  UNL     1      30.062   4.993  47.892  1.00  0.00    -0.166 F 
HETATM   13  F3  UNL     1      29.948   6.978  48.969  1.00  0.00    -0.166 F 
ENDBRANCH   7  10
ENDBRANCH   1   3
BRANCH   1  14
HETATM   14  O1  UNL     1      23.391   4.746  51.081  1.00  0.00    -0.364 OA
BRANCH  14  15
HETATM   15  C8  UNL     1      22.883   3.727  51.853  1.00  0.00     0.229 C 
BRANCH  15  16
HETATM   16  C9  UNL     1      23.997   3.084  52.631  1.00  0.00     0.068 A 
HETATM   17  C10 UNL     1      24.545   1.871  53.042  1.00  0.00     0.095 A 
HETATM   18  N3  UNL     1      25.170   3.042  53.431  1.00  0.00    -0.348 N 
HETATM   19  H11 UNL     1      25.919   3.584  53.923  1.00  0.00     0.166 HD
BRANCH  17  20
HETATM   20  S1  UNL     1      24.536   0.085  53.092  1.00  0.00    -0.102 SA
BRANCH  20  21
HETATM   21  C11 UNL     1      25.421  -0.463  54.549  1.00  0.00     0.169 C 
BRANCH  21  22
HETATM   22  C12 UNL     1      26.846  -0.008  54.577  1.00  0.00     0.181 A 
HETATM   23  N1  UNL     1      27.973  -0.705  54.335  1.00  0.00    -0.217 NA
HETATM   24  C13 UNL     1      29.013   0.130  54.483  1.00  0.00     0.265 A 
HETATM   25  N2  UNL     1      28.502   1.313  54.810  1.00  0.00    -0.120 NA
HETATM   26  O2  UNL     1      27.202   1.228  54.866  1.00  0.00    -0.196 OA
ENDBRANCH  21  22
ENDBRANCH  20  21
ENDBRANCH  17  20
ENDBRANCH  15  16
ENDBRANCH  14  15
ENDBRANCH   1  14
TORSDOF 8
ENDMDL
MODEL 2
REMARK VINA RESULT:      -7.6      2.117      2.805
REMARK  8 active torsions:
REMARK  status: ('A' for Active; 'I' for Inactive)
REMARK    1  A    between atoms: C1_2  and  C2_5 
REMARK    2  A    between atoms: C6_9  and  C7_10 
REMARK    3  A    between atoms: C7_10  and  O1_12 
REMARK    4  A    between atoms: O1_12  and  C8_13 
REMARK    5  A    between atoms: C8_13  and  C9_14 
REMARK    6  A    between atoms: C10_15  and  S1_16 
REMARK    7  A    between atoms: S1_16  and  C11_17 
REMARK    8  A    between atoms: C11_17  and  C12_18 
ROOT
HETATM    1  C7  UNL     1      23.261   3.320  51.541  1.00  0.00     0.228 C 
HETATM    2 CL1  UNL     1      24.209   3.520  53.055  1.00  0.00    -0.094 Cl
ENDROOT
BRANCH   1   3
HETATM    3  C6  UNL     1      24.091   3.727  50.342  1.00  0.00     0.074 C 
HETATM    4  C5  UNL     1      25.340   2.919  50.256  1.00  0.00    -0.014 C 
HETATM    5  C4  UNL     1      26.523   3.145  49.736  1.00  0.00    -0.002 C 
HETATM    6  C3  UNL     1      26.992   4.349  49.035  1.00  0.00     0.016 C 
HETATM    7  C2  UNL     1      26.457   5.567  49.192  1.00  0.00     0.047 C 
HETATM    8  C15 UNL     1      25.343   5.993  50.044  1.00  0.00     0.013 C 
HETATM    9  C14 UNL     1      24.381   5.173  50.495  1.00  0.00    -0.014 C 
BRANCH   7  10
HETATM   10  C1  UNL     1      27.071   6.657  48.394  1.00  0.00     0.417 C 
HETATM   11  F1  UNL     1      28.161   6.118  47.740  1.00  0.00    -0.166 F 
HETATM   12  F2  UNL     1      27.478   7.685  49.209  1.00  0.00    -0.166 F 
HETATM   13  F3  UNL     1      26.143   7.104  47.479  1.00  0.00    -0.166 F 
ENDBRANCH   7  10
ENDBRANCH   1   3
BRANCH   1  14
HETATM   14  O1  UNL     1      22.950   1.965  51.390  1.00  0.00    -0.364 OA
BRANCH  14  15
HETATM   15  C8  UNL     1      22.049   1.536  52.337  1.00  0.00     0.229 C 
BRANCH  15  16
HETATM   16  C9  UNL     1      22.552   0.269  52.970  1.00  0.00     0.068 A 
HETATM   17  C10 UNL     1      23.689  -0.474  53.283  1.00  0.00     0.095 A 
HETATM   18  N3  UNL     1      22.451  -0.983  53.635  1.00  0.00    -0.348 N 
HETATM   19  H11 UNL     1      21.823  -1.705  54.058  1.00  0.00     0.166 HD
BRANCH  17  20
HETATM   20  S1  UNL     1      25.460  -0.701  53.282  1.00  0.00    -0.102 SA
BRANCH  20  21
HETATM   21  C11 UNL     1      26.131  -0.061  54.815  1.00  0.00     0.169 C 
BRANCH  21  22
HETATM   22  C12 UNL     1      27.300   0.849  54.611  1.00  0.00     0.181 A 
HETATM   23  N1  UNL     1      28.606   0.641  54.869  1.00  0.00    -0.217 NA
HETATM   24  C13 UNL     1      29.277   1.748  54.521  1.00  0.00     0.265 A 
HETATM   25  N2  UNL     1      28.373   2.607  54.058  1.00  0.00    -0.120 NA
HETATM   26  O2  UNL     1      27.187   2.066  54.114  1.00  0.00    -0.196 OA
ENDBRANCH  21  22
ENDBRANCH  20  21
ENDBRANCH  17  20
ENDBRANCH  15  16
ENDBRANCH  14  15
ENDBRANCH   1  14
TORSDOF 8
ENDMDL
MODEL 3
REMARK VINA RESULT:      -7.5      5.445      7.396
REMARK  8 active torsions:
REMARK  status: ('A' for Active; 'I' for Inactive)
REMARK    1  A    between atoms: C1_2  and  C2_5 
REMARK    2  A    between atoms: C6_9  and  C7_10 
REMARK    3  A    between atoms: C7_10  and  O1_12 
REMARK    4  A    between atoms: O1_12  and  C8_13 
REMARK    5  A    between atoms: C8_13  and  C9_14 
REMARK    6  A    between atoms: C10_15  and  S1_16 
REMARK    7  A    between atoms: S1_16  and  C11_17 
REMARK    8  A    between atoms: C11_17  and  C12_18 
ROOT
HETATM    1  C7  UNL     1      22.611   0.032  52.666  1.00  0.00     0.228 C 
HETATM    2 CL1  UNL     1      22.137   0.699  51.065  1.00  0.00    -0.094 Cl
ENDROOT
BRANCH   1   3
HETATM    3  C6  UNL     1      23.972   0.555  53.072  1.00  0.00     0.074 C 
HETATM    4  C5  UNL     1      24.559   1.409  52.002  1.00  0.00    -0.014 C 
HETATM    5  C4  UNL     1      25.791   1.709  51.665  1.00  0.00    -0.002 C 
HETATM    6  C3  UNL     1      27.040   1.257  52.294  1.00  0.00     0.016 C 
HETATM    7  C2  UNL     1      27.155   0.136  53.019  1.00  0.00     0.047 C 
HETATM    8  C15 UNL     1      26.139  -0.867  53.351  1.00  0.00     0.013 C 
HETATM    9  C14 UNL     1      24.818  -0.630  53.355  1.00  0.00    -0.014 C 
BRANCH   7  10
HETATM   10  C1  UNL     1      28.502  -0.148  53.572  1.00  0.00     0.417 C 
HETATM   11  F1  UNL     1      29.327   0.890  53.187  1.00  0.00    -0.166 F 
HETATM   12  F2  UNL     1      28.987  -1.336  53.082  1.00  0.00    -0.166 F 
HETATM   13  F3  UNL     1      28.408  -0.194  54.946  1.00  0.00    -0.166 F 
ENDBRANCH   7  10
ENDBRANCH   1   3
BRANCH   1  14
HETATM   14  O1  UNL     1      21.692   0.479  53.620  1.00  0.00    -0.364 OA
BRANCH  14  15
HETATM   15  C8  UNL     1      21.101  -0.564  54.293  1.00  0.00     0.229 C 
BRANCH  15  16
HETATM   16  C9  UNL     1      19.723  -0.801  53.740  1.00  0.00     0.068 A 
HETATM   17  C10 UNL     1      18.847  -0.498  52.699  1.00  0.00     0.095 A 
HETATM   18  N3  UNL     1      18.412  -1.346  53.702  1.00  0.00    -0.348 N 
HETATM   19  H11 UNL     1      17.701  -1.960  54.165  1.00  0.00     0.166 HD
BRANCH  17  20
HETATM   20  S1  UNL     1      18.463   0.340  51.169  1.00  0.00    -0.102 SA
BRANCH  20  21
HETATM   21  C11 UNL     1      18.141   2.068  51.515  1.00  0.00     0.169 C 
BRANCH  21  22
HETATM   22  C12 UNL     1      19.383   2.899  51.565  1.00  0.00     0.181 A 
HETATM   23  N1  UNL     1      20.137   3.251  52.624  1.00  0.00    -0.217 NA
HETATM   24  C13 UNL     1      21.152   4.005  52.175  1.00  0.00     0.265 A 
HETATM   25  N2  UNL     1      20.998   4.096  50.857  1.00  0.00    -0.120 NA
HETATM   26  O2  UNL     1      19.936   3.433  50.493  1.00  0.00    -0.196 OA
ENDBRANCH  21  22
ENDBRANCH  20  21
ENDBRANCH  17  20
ENDBRANCH  15  16
ENDBRANCH  14  15
ENDBRANCH   1  14
TORSDOF 8
ENDMDL
MODEL 4
REMARK VINA RESULT:      -7.4      5.294      7.257
REMARK  8 active torsions:
REMARK  status: ('A' for Active; 'I' for Inactive)
REMARK    1  A    between atoms: C1_2  and  C2_5 
REMARK    2  A    between atoms: C6_9  and  C7_10 
REMARK    3  A    between atoms: C7_10  and  O1_12 
REMARK    4  A    between atoms: O1_12  and  C8_13 
REMARK    5  A    between atoms: C8_13  and  C9_14 
REMARK    6  A    between atoms: C10_15  and  S1_16 
REMARK    7  A    between atoms: S1_16  and  C11_17 
REMARK    8  A    between atoms: C11_17  and  C12_18 
ROOT
HETATM    1  C7  UNL     1      21.695   2.274  49.162  1.00  0.00     0.228 C 
HETATM    2 CL1  UNL     1      22.503   1.755  47.642  1.00  0.00    -0.094 Cl
ENDROOT
BRANCH   1   3
HETATM    3  C6  UNL     1      21.220   1.068  49.944  1.00  0.00     0.074 C 
HETATM    4  C5  UNL     1      19.766   1.166  50.249  1.00  0.00    -0.014 C 
HETATM    5  C4  UNL     1      19.012   0.674  51.204  1.00  0.00    -0.002 C 
HETATM    6  C3  UNL     1      19.416  -0.181  52.330  1.00  0.00     0.016 C 
HETATM    7  C2  UNL     1      20.660  -0.238  52.823  1.00  0.00     0.047 C 
HETATM    8  C15 UNL     1      21.863   0.486  52.401  1.00  0.00     0.013 C 
HETATM    9  C14 UNL     1      22.039   1.011  51.179  1.00  0.00    -0.014 C 
BRANCH   7  10
HETATM   10  C1  UNL     1      20.868  -1.163  53.964  1.00  0.00     0.417 C 
HETATM   11  F1  UNL     1      21.968  -1.941  53.661  1.00  0.00    -0.166 F 
HETATM   12  F2  UNL     1      19.767  -1.963  54.147  1.00  0.00    -0.166 F 
HETATM   13  F3  UNL     1      21.114  -0.413  55.094  1.00  0.00    -0.166 F 
ENDBRANCH   7  10
ENDBRANCH   1   3
BRANCH   1  14
HETATM   14  O1  UNL     1      22.634   2.941  49.955  1.00  0.00    -0.364 OA
BRANCH  14  15
HETATM   15  C8  UNL     1      23.791   3.211  49.264  1.00  0.00     0.229 C 
BRANCH  15  16
HETATM   16  C9  UNL     1      24.935   3.340  50.231  1.00  0.00     0.068 A 
HETATM   17  C10 UNL     1      25.372   3.047  51.522  1.00  0.00     0.095 A 
HETATM   18  N3  UNL     1      26.228   3.729  50.674  1.00  0.00    -0.348 N 
HETATM   19  H11 UNL     1      27.131   4.203  50.440  1.00  0.00     0.166 HD
BRANCH  17  20
HETATM   20  S1  UNL     1      25.114   2.335  53.139  1.00  0.00    -0.102 SA
BRANCH  20  21
HETATM   21  C11 UNL     1      25.525   0.593  53.082  1.00  0.00     0.169 C 
BRANCH  21  22
HETATM   22  C12 UNL     1      26.832   0.275  53.734  1.00  0.00     0.181 A 
HETATM   23  N1  UNL     1      27.621   1.054  54.500  1.00  0.00    -0.217 NA
HETATM   24  C13 UNL     1      28.694   0.332  54.857  1.00  0.00     0.265 A 
HETATM   25  N2  UNL     1      28.539  -0.869  54.305  1.00  0.00    -0.120 NA
HETATM   26  O2  UNL     1      27.422  -0.900  53.631  1.00  0.00    -0.196 OA
ENDBRANCH  21  22
ENDBRANCH  20  21
ENDBRANCH  17  20
ENDBRANCH  15  16
ENDBRANCH  14  15
ENDBRANCH   1  14
TORSDOF 8
ENDMDL
MODEL 5
REMARK VINA RESULT:      -7.4      2.036      2.911
REMARK  8 active torsions:
REMARK  status: ('A' for Active; 'I' for Inactive)
REMARK    1  A    between atoms: C1_2  and  C2_5 
REMARK    2  A    between atoms: C6_9  and  C7_10 
REMARK    3  A    between atoms: C7_10  and  O1_12 
REMARK    4  A    between atoms: O1_12  and  C8_13 
REMARK    5  A    between atoms: C8_13  and  C9_14 
REMARK    6  A    between atoms: C10_15  and  S1_16 
REMARK    7  A    between atoms: S1_16  and  C11_17 
REMARK    8  A    between atoms: C11_17  and  C12_18 
ROOT
HETATM    1  C7  UNL     1      24.311   1.994  51.150  1.00  0.00     0.228 C 
HETATM    2 CL1  UNL     1      22.535   1.725  51.228  1.00  0.00    -0.094 Cl
ENDROOT
BRANCH   1   3
HETATM    3  C6  UNL     1      24.610   3.436  50.800  1.00  0.00     0.074 C 
HETATM    4  C5  UNL     1      23.608   3.974  49.839  1.00  0.00    -0.014 C 
HETATM    5  C4  UNL     1      23.648   4.924  48.935  1.00  0.00    -0.002 C 
HETATM    6  C3  UNL     1      24.777   5.796  48.584  1.00  0.00     0.016 C 
HETATM    7  C2  UNL     1      26.063   5.489  48.803  1.00  0.00     0.047 C 
HETATM    8  C15 UNL     1      26.642   4.285  49.406  1.00  0.00     0.013 C 
HETATM    9  C14 UNL     1      25.982   3.463  50.237  1.00  0.00    -0.014 C 
BRANCH   7  10
HETATM   10  C1  UNL     1      27.058   6.503  48.378  1.00  0.00     0.417 C 
HETATM   11  F1  UNL     1      27.248   7.358  49.445  1.00  0.00    -0.166 F 
HETATM   12  F2  UNL     1      26.600   7.207  47.292  1.00  0.00    -0.166 F 
HETATM   13  F3  UNL     1      28.236   5.856  48.073  1.00  0.00    -0.166 F 
ENDBRANCH   7  10
ENDBRANCH   1   3
BRANCH   1  14
HETATM   14  O1  UNL     1      24.850   1.753  52.417  1.00  0.00    -0.364 OA
BRANCH  14  15
HETATM   15  C8  UNL     1      24.040   0.940  53.174  1.00  0.00     0.229 C 
BRANCH  15  16
HETATM   16  C9  UNL     1      24.878  -0.101  53.863  1.00  0.00     0.068 A 
HETATM   17  C10 UNL     1      25.935  -0.996  53.710  1.00  0.00     0.095 A 
HETATM   18  N3  UNL     1      25.303  -0.926  54.939  1.00  0.00    -0.348 N 
HETATM   19  H11 UNL     1      25.166  -1.209  55.937  1.00  0.00     0.166 HD
BRANCH  17  20
HETATM   20  S1  UNL     1      27.216  -1.751  52.721  1.00  0.00    -0.102 SA
BRANCH  20  21
HETATM   21  C11 UNL     1      28.809  -1.134  53.258  1.00  0.00     0.169 C 
BRANCH  21  22
HETATM   22  C12 UNL     1      28.793   0.324  53.590  1.00  0.00     0.181 A 
HETATM   23  N1  UNL     1      28.392   1.371  52.843  1.00  0.00    -0.217 NA
HETATM   24  C13 UNL     1      28.566   2.486  53.567  1.00  0.00     0.265 A 
HETATM   25  N2  UNL     1      29.067   2.101  54.737  1.00  0.00    -0.120 NA
HETATM   26  O2  UNL     1      29.203   0.804  54.749  1.00  0.00    -0.196 OA
ENDBRANCH  21  22
ENDBRANCH  20  21
ENDBRANCH  17  20
ENDBRANCH  15  16
ENDBRANCH  14  15
ENDBRANCH   1  14
TORSDOF 8
ENDMDL
MODEL 6
REMARK VINA RESULT:      -7.3      5.774      8.447
REMARK  8 active torsions:
REMARK  status: ('A' for Active; 'I' for Inactive)
REMARK    1  A    between atoms: C1_2  and  C2_5 
REMARK    2  A    between atoms: C6_9  and  C7_10 
REMARK    3  A    between atoms: C7_10  and  O1_12 
REMARK    4  A    between atoms: O1_12  and  C8_13 
REMARK    5  A    between atoms: C8_13  and  C9_14 
REMARK    6  A    between atoms: C10_15  and  S1_16 
REMARK    7  A    between atoms: S1_16  and  C11_17 
REMARK    8  A    between atoms: C11_17  and  C12_18 
ROOT
HETATM    1  C7  UNL     1      23.490   3.564  50.979  1.00  0.00     0.228 C 
HETATM    2 CL1  UNL     1      23.163   2.543  49.535  1.00  0.00    -0.094 Cl
ENDROOT
BRANCH   1   3
HETATM    3  C6  UNL     1      23.579   2.703  52.222  1.00  0.00     0.074 C 
HETATM    4  C5  UNL     1      24.697   1.726  52.118  1.00  0.00    -0.014 C 
HETATM    5  C4  UNL     1      24.916   0.548  52.653  1.00  0.00    -0.002 C 
HETATM    6  C3  UNL     1      24.055  -0.201  53.580  1.00  0.00     0.016 C 
HETATM    7  C2  UNL     1      22.731  -0.024  53.688  1.00  0.00     0.047 C 
HETATM    8  C15 UNL     1      21.852   0.896  52.960  1.00  0.00     0.013 C 
HETATM    9  C14 UNL     1      22.268   2.026  52.366  1.00  0.00    -0.014 C 
BRANCH   7  10
HETATM   10  C1  UNL     1      22.037  -0.879  54.683  1.00  0.00     0.417 C 
HETATM   11  F1  UNL     1      23.005  -1.387  55.527  1.00  0.00    -0.166 F 
HETATM   12  F2  UNL     1      21.374  -1.907  54.061  1.00  0.00    -0.166 F 
HETATM   13  F3  UNL     1      21.155  -0.092  55.391  1.00  0.00    -0.166 F 
ENDBRANCH   7  10
ENDBRANCH   1   3
BRANCH   1  14
HETATM   14  O1  UNL     1      24.733   4.181  50.811  1.00  0.00    -0.364 OA
BRANCH  14  15
HETATM   15  C8  UNL     1      24.798   4.894  49.638  1.00  0.00     0.229 C 
BRANCH  15  16
HETATM   16  C9  UNL     1      26.228   4.981  49.182  1.00  0.00     0.068 A 
HETATM   17  C10 UNL     1      27.191   5.808  48.607  1.00  0.00     0.095 A 
HETATM   18  N3  UNL     1      27.550   4.517  48.949  1.00  0.00    -0.348 N 
HETATM   19  H11 UNL     1      28.229   3.723  49.023  1.00  0.00     0.166 HD
BRANCH  17  20
HETATM   20  S1  UNL     1      27.697   7.374  47.911  1.00  0.00    -0.102 SA
BRANCH  20  21
HETATM   21  C11 UNL     1      29.338   7.199  47.215  1.00  0.00     0.169 C 
BRANCH  21  22
HETATM   22  C12 UNL     1      30.328   6.629  48.180  1.00  0.00     0.181 A 
HETATM   23  N1  UNL     1      31.135   7.260  49.055  1.00  0.00    -0.217 NA
HETATM   24  C13 UNL     1      31.848   6.329  49.705  1.00  0.00     0.265 A 
HETATM   25  N2  UNL     1      31.463   5.153  49.217  1.00  0.00    -0.120 NA
HETATM   26  O2  UNL     1      30.552   5.335  48.302  1.00  0.00    -0.196 OA
ENDBRANCH  21  22
ENDBRANCH  20  21
ENDBRANCH  17  20
ENDBRANCH  15  16
ENDBRANCH  14  15
ENDBRANCH   1  14
TORSDOF 8
ENDMDL
MODEL 7
REMARK VINA RESULT:      -7.2      3.165      4.361
REMARK  8 active torsions:
REMARK  status: ('A' for Active; 'I' for Inactive)
REMARK    1  A    between atoms: C1_2  and  C2_5 
REMARK    2  A    between atoms: C6_9  and  C7_10 
REMARK    3  A    between atoms: C7_10  and  O1_12 
REMARK    4  A    between atoms: O1_12  and  C8_13 
REMARK    5  A    between atoms: C8_13  and  C9_14 
REMARK    6  A    between atoms: C10_15  and  S1_16 
REMARK    7  A    between atoms: S1_16  and  C11_17 
REMARK    8  A    between atoms: C11_17  and  C12_18 
ROOT
HETATM    1  C7  UNL     1      20.452   1.630  52.107  1.00  0.00     0.228 C 
HETATM    2 CL1  UNL     1      19.162   2.845  51.800  1.00  0.00    -0.094 Cl
ENDROOT
BRANCH   1   3
HETATM    3  C6  UNL     1      21.795   2.314  52.250  1.00  0.00     0.074 C 
HETATM    4  C5  UNL     1      21.647   3.795  52.236  1.00  0.00    -0.014 C 
HETATM    5  C4  UNL     1      22.448   4.776  51.893  1.00  0.00    -0.002 C 
HETATM    6  C3  UNL     1      23.826   4.689  51.389  1.00  0.00     0.016 C 
HETATM    7  C2  UNL     1      24.338   3.610  50.781  1.00  0.00     0.047 C 
HETATM    8  C15 UNL     1      23.705   2.324  50.477  1.00  0.00     0.013 C 
HETATM    9  C14 UNL     1      22.639   1.834  51.129  1.00  0.00    -0.014 C 
BRANCH   7  10
HETATM   10  C1  UNL     1      25.752   3.717  50.343  1.00  0.00     0.417 C 
HETATM   11  F1  UNL     1      25.861   3.031  49.150  1.00  0.00    -0.166 F 
HETATM   12  F2  UNL     1      26.592   3.164  51.277  1.00  0.00    -0.166 F 
HETATM   13  F3  UNL     1      26.049   5.050  50.154  1.00  0.00    -0.166 F 
ENDBRANCH   7  10
ENDBRANCH   1   3
BRANCH   1  14
HETATM   14  O1  UNL     1      20.178   0.994  53.322  1.00  0.00    -0.364 OA
BRANCH  14  15
HETATM   15  C8  UNL     1      20.256  -0.375  53.213  1.00  0.00     0.229 C 
BRANCH  15  16
HETATM   16  C9  UNL     1      21.433  -0.874  54.005  1.00  0.00     0.068 A 
HETATM   17  C10 UNL     1      22.820  -0.829  54.134  1.00  0.00     0.095 A 
HETATM   18  N3  UNL     1      22.100  -1.607  55.024  1.00  0.00    -0.348 N 
HETATM   19  H11 UNL     1      22.013  -2.258  55.838  1.00  0.00     0.166 HD
BRANCH  17  20
HETATM   20  S1  UNL     1      24.423  -0.244  53.607  1.00  0.00    -0.102 SA
BRANCH  20  21
HETATM   21  C11 UNL     1      25.606  -0.520  54.923  1.00  0.00     0.169 C 
BRANCH  21  22
HETATM   22  C12 UNL     1      26.889   0.222  54.725  1.00  0.00     0.181 A 
HETATM   23  N1  UNL     1      28.159  -0.216  54.829  1.00  0.00    -0.217 NA
HETATM   24  C13 UNL     1      28.975   0.815  54.562  1.00  0.00     0.265 A 
HETATM   25  N2  UNL     1      28.190   1.857  54.302  1.00  0.00    -0.120 NA
HETATM   26  O2  UNL     1      26.940   1.500  54.401  1.00  0.00    -0.196 OA
ENDBRANCH  21  22
ENDBRANCH  20  21
ENDBRANCH  17  20
ENDBRANCH  15  16
ENDBRANCH  14  15
ENDBRANCH   1  14
TORSDOF 8
ENDMDL
MODEL 8
REMARK VINA RESULT:      -7.2      4.327      7.166
REMARK  8 active torsions:
REMARK  status: ('A' for Active; 'I' for Inactive)
REMARK    1  A    between atoms: C1_2  and  C2_5 
REMARK    2  A    between atoms: C6_9  and  C7_10 
REMARK    3  A    between atoms: C7_10  and  O1_12 
REMARK    4  A    between atoms: O1_12  and  C8_13 
REMARK    5  A    between atoms: C8_13  and  C9_14 
REMARK    6  A    between atoms: C10_15  and  S1_16 
REMARK    7  A    between atoms: S1_16  and  C11_17 
REMARK    8  A    between atoms: C11_17  and  C12_18 
ROOT
HETATM    1  C7  UNL     1      22.661   2.487  52.376  1.00  0.00     0.228 C 
HETATM    2 CL1  UNL     1      21.209   1.518  51.946  1.00  0.00    -0.094 Cl
ENDROOT
BRANCH   1   3
HETATM    3  C6  UNL     1      23.896   1.610  52.379  1.00  0.00     0.074 C 
HETATM    4  C5  UNL     1      23.646   0.336  53.108  1.00  0.00    -0.014 C 
HETATM    5  C4  UNL     1      24.426  -0.500  53.751  1.00  0.00    -0.002 C 
HETATM    6  C3  UNL     1      25.880  -0.414  53.952  1.00  0.00     0.016 C 
HETATM    7  C2  UNL     1      26.580   0.727  53.903  1.00  0.00     0.047 C 
HETATM    8  C15 UNL     1      26.115   2.095  53.656  1.00  0.00     0.013 C 
HETATM    9  C14 UNL     1      24.979   2.402  53.010  1.00  0.00    -0.014 C 
BRANCH   7  10
HETATM   10  C1  UNL     1      28.041   0.607  54.132  1.00  0.00     0.417 C 
HETATM   11  F1  UNL     1      28.550   1.889  54.194  1.00  0.00    -0.166 F 
HETATM   12  F2  UNL     1      28.638  -0.083  53.106  1.00  0.00    -0.166 F 
HETATM   13  F3  UNL     1      28.242  -0.041  55.332  1.00  0.00    -0.166 F 
ENDBRANCH   7  10
ENDBRANCH   1   3
BRANCH   1  14
HETATM   14  O1  UNL     1      22.848   3.463  51.393  1.00  0.00    -0.364 OA
BRANCH  14  15
HETATM   15  C8  UNL     1      22.567   4.724  51.862  1.00  0.00     0.229 C 
BRANCH  15  16
HETATM   16  C9  UNL     1      23.706   5.648  51.531  1.00  0.00     0.068 A 
HETATM   17  C10 UNL     1      24.763   5.882  50.652  1.00  0.00     0.095 A 
HETATM   18  N3  UNL     1      24.555   6.777  51.688  1.00  0.00    -0.348 N 
HETATM   19  H11 UNL     1      24.782   7.636  52.241  1.00  0.00     0.166 HD
BRANCH  17  20
HETATM   20  S1  UNL     1      25.744   5.435  49.228  1.00  0.00    -0.102 SA
BRANCH  20  21
HETATM   21  C11 UNL     1      26.822   6.802  48.810  1.00  0.00     0.169 C 
BRANCH  21  22
HETATM   22  C12 UNL     1      28.187   6.366  48.382  1.00  0.00     0.181 A 
HETATM   23  N1  UNL     1      29.158   7.067  47.766  1.00  0.00    -0.217 NA
HETATM   24  C13 UNL     1      30.206   6.249  47.584  1.00  0.00     0.265 A 
HETATM   25  N2  UNL     1      29.855   5.070  48.091  1.00  0.00    -0.120 NA
HETATM   26  O2  UNL     1      28.643   5.142  48.568  1.00  0.00    -0.196 OA
ENDBRANCH  21  22
ENDBRANCH  20  21
ENDBRANCH  17  20
ENDBRANCH  15  16
ENDBRANCH  14  15
ENDBRANCH   1  14
TORSDOF 8
ENDMDL
MODEL 9
REMARK VINA RESULT:      -7.2      5.588      7.402
REMARK  8 active torsions:
REMARK  status: ('A' for Active; 'I' for Inactive)
REMARK    1  A    between atoms: C1_2  and  C2_5 
REMARK    2  A    between atoms: C6_9  and  C7_10 
REMARK    3  A    between atoms: C7_10  and  O1_12 
REMARK    4  A    between atoms: O1_12  and  C8_13 
REMARK    5  A    between atoms: C8_13  and  C9_14 
REMARK    6  A    between atoms: C10_15  and  S1_16 
REMARK    7  A    between atoms: S1_16  and  C11_17 
REMARK    8  A    between atoms: C11_17  and  C12_18 
ROOT
HETATM    1  C7  UNL     1      22.686   0.550  52.876  1.00  0.00     0.228 C 
HETATM    2 CL1  UNL     1      22.434  -1.215  53.105  1.00  0.00    -0.094 Cl
ENDROOT
BRANCH   1   3
HETATM    3  C6  UNL     1      24.123   0.920  53.174  1.00  0.00     0.074 C 
HETATM    4  C5  UNL     1      24.771   1.553  51.992  1.00  0.00    -0.014 C 
HETATM    5  C4  UNL     1      26.015   1.636  51.585  1.00  0.00    -0.002 C 
HETATM    6  C3  UNL     1      27.219   1.088  52.226  1.00  0.00     0.016 C 
HETATM    7  C2  UNL     1      27.213   0.053  53.078  1.00  0.00     0.047 C 
HETATM    8  C15 UNL     1      26.086  -0.751  53.559  1.00  0.00     0.013 C 
HETATM    9  C14 UNL     1      24.811  -0.332  53.574  1.00  0.00    -0.014 C 
BRANCH   7  10
HETATM   10  C1  UNL     1      28.533  -0.352  53.621  1.00  0.00     0.417 C 
HETATM   11  F1  UNL     1      29.464   0.547  53.140  1.00  0.00    -0.166 F 
HETATM   12  F2  UNL     1      28.857  -1.622  53.212  1.00  0.00    -0.166 F 
HETATM   13  F3  UNL     1      28.477  -0.286  54.996  1.00  0.00    -0.166 F 
ENDBRANCH   7  10
ENDBRANCH   1   3
BRANCH   1  14
HETATM   14  O1  UNL     1      22.447   0.860  51.533  1.00  0.00    -0.364 OA
BRANCH  14  15
HETATM   15  C8  UNL     1      21.321   0.234  51.054  1.00  0.00     0.229 C 
BRANCH  15  16
HETATM   16  C9  UNL     1      20.824   0.959  49.835  1.00  0.00     0.068 A 
HETATM   17  C10 UNL     1      19.801   1.755  49.322  1.00  0.00     0.095 A 
HETATM   18  N3  UNL     1      20.852   1.413  48.489  1.00  0.00    -0.348 N 
HETATM   19  H11 UNL     1      21.363   1.424  47.575  1.00  0.00     0.166 HD
BRANCH  17  20
HETATM   20  S1  UNL     1      18.252   2.624  49.505  1.00  0.00    -0.102 SA
BRANCH  20  21
HETATM   21  C11 UNL     1      18.284   3.559  51.033  1.00  0.00     0.169 C 
BRANCH  21  22
HETATM   22  C12 UNL     1      19.663   3.964  51.445  1.00  0.00     0.181 A 
HETATM   23  N1  UNL     1      20.435   3.491  52.442  1.00  0.00    -0.217 NA
HETATM   24  C13 UNL     1      21.594   4.167  52.424  1.00  0.00     0.265 A 
HETATM   25  N2  UNL     1      21.507   5.035  51.419  1.00  0.00    -0.120 NA
HETATM   26  O2  UNL     1      20.348   4.912  50.834  1.00  0.00    -0.196 OA
ENDBRANCH  21  22
ENDBRANCH  20  21
ENDBRANCH  17  20
ENDBRANCH  15  16
ENDBRANCH  14  15
ENDBRANCH   1  14
TORSDOF 8
ENDMDL
