MODEL 1
REMARK VINA RESULT:      -7.1      0.000      0.000
REMARK  3 active torsions:
REMARK  status: ('A' for Active; 'I' for Inactive)
REMARK    1  A    between atoms: O1_2  and  C2_3 
REMARK    2  A    between atoms: N1_16  and  C15_17 
REMARK    3  A    between atoms: C15_17  and  N2_18 
ROOT
HETATM    1  C2  UNL     1      25.676   2.905  50.777  1.00  0.00     0.073 C 
HETATM    2  C3  UNL     1      26.790   2.228  51.070  1.00  0.00     0.020 C 
HETATM    3  C4  UNL     1      26.342   1.078  51.883  1.00  0.00     0.044 C 
HETATM    4  C5  UNL     1      26.873  -0.006  52.479  1.00  0.00    -0.017 C 
HETATM    5  C6  UNL     1      25.781  -0.681  53.127  1.00  0.00    -0.001 C 
HETATM    6  C7  UNL     1      24.522  -0.556  53.355  1.00  0.00     0.029 C 
HETATM    7  C8  UNL     1      23.591   0.504  53.003  1.00  0.00     0.064 C 
HETATM    8  C9  UNL     1      23.821   1.859  53.007  1.00  0.00     0.075 C 
HETATM    9  C10 UNL     1      24.062   3.195  53.205  1.00  0.00    -0.018 C 
HETATM   10  C11 UNL     1      23.480   4.004  52.209  1.00  0.00    -0.020 C 
HETATM   11  C12 UNL     1      23.283   4.099  50.813  1.00  0.00     0.057 C 
HETATM   12  C13 UNL     1      24.196   3.020  50.847  1.00  0.00     0.001 C 
HETATM   13  C14 UNL     1      23.534   1.754  50.839  1.00  0.00     0.132 C 
HETATM   14  N1  UNL     1      22.334   1.166  51.158  1.00  0.00    -0.218 N 
HETATM   15  N3  UNL     1      22.354   0.856  52.474  1.00  0.00    -0.170 NA
ENDROOT
BRANCH  14  16
HETATM   16  C15 UNL     1      21.250   0.917  50.273  1.00  0.00     0.192 C 
HETATM   17  S1  UNL     1      20.030   0.580  51.311  1.00  0.00    -0.039 SA
BRANCH  16  18
HETATM   18  N2  UNL     1      21.410   1.000  48.841  1.00  0.00    -0.375 N 
HETATM   19  H14 UNL     1      21.277   2.007  48.579  1.00  0.00     0.158 HD
HETATM   20  H15 UNL     1      21.615   0.022  48.484  1.00  0.00     0.158 HD
ENDBRANCH  16  18
ENDBRANCH  14  16
BRANCH   1  21
HETATM   21  O1  UNL     1      25.777   4.073  50.028  1.00  0.00    -0.356 OA
HETATM   22  C1  UNL     1      26.817   4.422  49.175  1.00  0.00     0.210 C 
ENDBRANCH   1  21
TORSDOF 3
ENDMDL
MODEL 2
REMARK VINA RESULT:      -6.8      2.925      4.586
REMARK  3 active torsions:
REMARK  status: ('A' for Active; 'I' for Inactive)
REMARK    1  A    between atoms: O1_2  and  C2_3 
REMARK    2  A    between atoms: N1_16  and  C15_17 
REMARK    3  A    between atoms: C15_17  and  N2_18 
ROOT
HETATM    1  C2  UNL     1      22.039   0.622  53.322  1.00  0.00     0.073 C 
HETATM    2  C3  UNL     1      22.843  -0.378  53.693  1.00  0.00     0.020 C 
HETATM    3  C4  UNL     1      24.160  -0.054  53.107  1.00  0.00     0.044 C 
HETATM    4  C5  UNL     1      25.408  -0.556  53.086  1.00  0.00    -0.017 C 
HETATM    5  C6  UNL     1      26.183   0.329  52.259  1.00  0.00    -0.001 C 
HETATM    6  C7  UNL     1      26.056   1.374  51.520  1.00  0.00     0.029 C 
HETATM    7  C8  UNL     1      24.882   2.158  51.172  1.00  0.00     0.064 C 
HETATM    8  C9  UNL     1      23.615   1.699  50.901  1.00  0.00     0.075 C 
HETATM    9  C10 UNL     1      22.429   1.162  50.470  1.00  0.00    -0.018 C 
HETATM   10  C11 UNL     1      21.312   1.908  50.894  1.00  0.00    -0.020 C 
HETATM   11  C12 UNL     1      20.767   2.577  52.013  1.00  0.00     0.057 C 
HETATM   12  C13 UNL     1      21.857   1.928  52.636  1.00  0.00     0.001 C 
HETATM   13  C14 UNL     1      23.010   2.767  52.714  1.00  0.00     0.132 C 
HETATM   14  N1  UNL     1      23.591   3.855  52.109  1.00  0.00    -0.218 N 
HETATM   15  N3  UNL     1      24.303   3.416  51.046  1.00  0.00    -0.170 NA
ENDROOT
BRANCH  14  16
HETATM   16  C15 UNL     1      23.478   5.213  52.515  1.00  0.00     0.192 C 
HETATM   17  S1  UNL     1      22.597   5.863  51.298  1.00  0.00    -0.039 SA
BRANCH  16  18
HETATM   18  N2  UNL     1      24.072   5.686  53.742  1.00  0.00    -0.375 N 
HETATM   19  H14 UNL     1      24.405   6.664  53.560  1.00  0.00     0.158 HD
HETATM   20  H15 UNL     1      23.994   4.906  54.458  1.00  0.00     0.158 HD
ENDBRANCH  16  18
ENDBRANCH  14  16
BRANCH   1  21
HETATM   21  O1  UNL     1      20.702   0.588  53.709  1.00  0.00    -0.356 OA
HETATM   22  C1  UNL     1      19.858  -0.514  53.672  1.00  0.00     0.210 C 
ENDBRANCH   1  21
TORSDOF 3
ENDMDL
MODEL 3
REMARK VINA RESULT:      -6.7      3.572      4.991
REMARK  3 active torsions:
REMARK  status: ('A' for Active; 'I' for Inactive)
REMARK    1  A    between atoms: O1_2  and  C2_3 
REMARK    2  A    between atoms: N1_16  and  C15_17 
REMARK    3  A    between atoms: C15_17  and  N2_18 
ROOT
HETATM    1  C2  UNL     1      22.315   3.000  51.670  1.00  0.00     0.073 C 
HETATM    2  C3  UNL     1      22.783   1.929  52.316  1.00  0.00     0.020 C 
HETATM    3  C4  UNL     1      24.220   1.870  51.981  1.00  0.00     0.044 C 
HETATM    4  C5  UNL     1      25.298   1.121  52.280  1.00  0.00    -0.017 C 
HETATM    5  C6  UNL     1      26.392   1.677  51.530  1.00  0.00    -0.001 C 
HETATM    6  C7  UNL     1      26.647   2.589  50.661  1.00  0.00     0.029 C 
HETATM    7  C8  UNL     1      25.772   3.533  49.986  1.00  0.00     0.064 C 
HETATM    8  C9  UNL     1      24.499   3.311  49.516  1.00  0.00     0.075 C 
HETATM    9  C10 UNL     1      23.314   2.970  48.916  1.00  0.00    -0.018 C 
HETATM   10  C11 UNL     1      22.348   3.993  49.006  1.00  0.00    -0.020 C 
HETATM   11  C12 UNL     1      21.791   4.936  49.899  1.00  0.00     0.057 C 
HETATM   12  C13 UNL     1      22.571   4.184  50.808  1.00  0.00     0.001 C 
HETATM   13  C14 UNL     1      23.858   4.765  51.022  1.00  0.00     0.132 C 
HETATM   14  N1  UNL     1      24.777   5.593  50.423  1.00  0.00    -0.218 N 
HETATM   15  N3  UNL     1      25.538   4.846  49.592  1.00  0.00    -0.170 NA
ENDROOT
BRANCH  14  16
HETATM   16  C15 UNL     1      24.919   6.993  50.630  1.00  0.00     0.192 C 
HETATM   17  S1  UNL     1      26.144   7.368  49.610  1.00  0.00    -0.039 SA
BRANCH  16  18
HETATM   18  N2  UNL     1      24.080   7.706  51.562  1.00  0.00    -0.375 N 
HETATM   19  H14 UNL     1      23.498   6.987  52.057  1.00  0.00     0.158 HD
HETATM   20  H15 UNL     1      24.301   8.740  51.468  1.00  0.00     0.158 HD
ENDBRANCH  16  18
ENDBRANCH  14  16
BRANCH   1  21
HETATM   21  O1  UNL     1      20.963   3.310  51.772  1.00  0.00    -0.356 OA
HETATM   22  C1  UNL     1      19.970   2.511  52.326  1.00  0.00     0.210 C 
ENDBRANCH   1  21
TORSDOF 3
ENDMDL
MODEL 4
REMARK VINA RESULT:      -6.6      2.711      4.447
REMARK  3 active torsions:
REMARK  status: ('A' for Active; 'I' for Inactive)
REMARK    1  A    between atoms: O1_2  and  C2_3 
REMARK    2  A    between atoms: N1_16  and  C15_17 
REMARK    3  A    between atoms: C15_17  and  N2_18 
ROOT
HETATM    1  C2  UNL     1      23.244   5.037  51.376  1.00  0.00     0.073 C 
HETATM    2  C3  UNL     1      21.972   5.172  51.759  1.00  0.00     0.020 C 
HETATM    3  C4  UNL     1      21.525   3.808  52.107  1.00  0.00     0.044 C 
HETATM    4  C5  UNL     1      20.426   3.196  52.586  1.00  0.00    -0.017 C 
HETATM    5  C6  UNL     1      20.742   1.794  52.645  1.00  0.00    -0.001 C 
HETATM    6  C7  UNL     1      21.681   0.967  52.348  1.00  0.00     0.029 C 
HETATM    7  C8  UNL     1      22.972   1.180  51.714  1.00  0.00     0.064 C 
HETATM    8  C9  UNL     1      23.270   2.034  50.679  1.00  0.00     0.075 C 
HETATM    9  C10 UNL     1      23.457   2.768  49.535  1.00  0.00    -0.018 C 
HETATM   10  C11 UNL     1      24.693   3.443  49.522  1.00  0.00    -0.020 C 
HETATM   11  C12 UNL     1      25.563   4.211  50.328  1.00  0.00     0.057 C 
HETATM   12  C13 UNL     1      24.433   4.168  51.177  1.00  0.00     0.001 C 
HETATM   13  C14 UNL     1      24.515   3.104  52.128  1.00  0.00     0.132 C 
HETATM   14  N1  UNL     1      25.108   1.881  52.324  1.00  0.00    -0.218 N 
HETATM   15  N3  UNL     1      24.342   0.941  51.726  1.00  0.00    -0.170 NA
ENDROOT
BRANCH  14  16
HETATM   16  C15 UNL     1      26.315   1.628  53.032  1.00  0.00     0.192 C 
HETATM   17  S1  UNL     1      26.700   0.119  52.525  1.00  0.00    -0.039 SA
BRANCH  16  18
HETATM   18  N2  UNL     1      26.884   2.606  53.927  1.00  0.00    -0.375 N 
HETATM   19  H14 UNL     1      27.214   3.405  53.331  1.00  0.00     0.158 HD
HETATM   20  H15 UNL     1      26.798   2.226  54.915  1.00  0.00     0.158 HD
ENDBRANCH  16  18
ENDBRANCH  14  16
BRANCH   1  21
HETATM   21  O1  UNL     1      23.944   6.165  50.957  1.00  0.00    -0.356 OA
HETATM   22  C1  UNL     1      23.411   7.424  50.708  1.00  0.00     0.210 C 
ENDBRANCH   1  21
TORSDOF 3
ENDMDL
MODEL 5
REMARK VINA RESULT:      -6.5      3.085      4.908
REMARK  3 active torsions:
REMARK  status: ('A' for Active; 'I' for Inactive)
REMARK    1  A    between atoms: O1_2  and  C2_3 
REMARK    2  A    between atoms: N1_16  and  C15_17 
REMARK    3  A    between atoms: C15_17  and  N2_18 
ROOT
HETATM    1  C2  UNL     1      20.134   1.531  52.240  1.00  0.00     0.073 C 
HETATM    2  C3  UNL     1      20.151   0.427  52.991  1.00  0.00     0.020 C 
HETATM    3  C4  UNL     1      21.580   0.114  53.188  1.00  0.00     0.044 C 
HETATM    4  C5  UNL     1      22.337  -0.791  53.838  1.00  0.00    -0.017 C 
HETATM    5  C6  UNL     1      23.703  -0.459  53.538  1.00  0.00    -0.001 C 
HETATM    6  C7  UNL     1      24.403   0.358  52.834  1.00  0.00     0.029 C 
HETATM    7  C8  UNL     1      23.999   1.405  51.909  1.00  0.00     0.064 C 
HETATM    8  C9  UNL     1      22.958   1.378  51.012  1.00  0.00     0.075 C 
HETATM    9  C10 UNL     1      22.022   1.215  50.023  1.00  0.00    -0.018 C 
HETATM   10  C11 UNL     1      21.278   2.387  49.783  1.00  0.00    -0.020 C 
HETATM   11  C12 UNL     1      20.612   3.448  50.436  1.00  0.00     0.057 C 
HETATM   12  C13 UNL     1      20.877   2.617  51.549  1.00  0.00     0.001 C 
HETATM   13  C14 UNL     1      22.085   2.984  52.218  1.00  0.00     0.132 C 
HETATM   14  N1  UNL     1      23.284   3.620  52.002  1.00  0.00    -0.218 N 
HETATM   15  N3  UNL     1      24.149   2.720  51.483  1.00  0.00    -0.170 NA
ENDROOT
BRANCH  14  16
HETATM   16  C15 UNL     1      23.581   4.983  52.273  1.00  0.00     0.192 C 
HETATM   17  S1  UNL     1      23.524   5.650  50.779  1.00  0.00    -0.039 SA
BRANCH  16  18
HETATM   18  N2  UNL     1      23.837   5.447  53.615  1.00  0.00    -0.375 N 
HETATM   19  H14 UNL     1      24.165   6.441  53.534  1.00  0.00     0.158 HD
HETATM   20  H15 UNL     1      23.616   4.649  54.279  1.00  0.00     0.158 HD
ENDBRANCH  16  18
ENDBRANCH  14  16
BRANCH   1  21
HETATM   21  O1  UNL     1      18.907   2.067  51.859  1.00  0.00    -0.356 OA
HETATM   22  C1  UNL     1      17.794   1.359  51.424  1.00  0.00     0.210 C 
ENDBRANCH   1  21
TORSDOF 3
ENDMDL
MODEL 6
REMARK VINA RESULT:      -6.4      1.931      3.035
REMARK  3 active torsions:
REMARK  status: ('A' for Active; 'I' for Inactive)
REMARK    1  A    between atoms: O1_2  and  C2_3 
REMARK    2  A    between atoms: N1_16  and  C15_17 
REMARK    3  A    between atoms: C15_17  and  N2_18 
ROOT
HETATM    1  C2  UNL     1      24.778   1.174  52.046  1.00  0.00     0.073 C 
HETATM    2  C3  UNL     1      24.551   0.324  53.051  1.00  0.00     0.020 C 
HETATM    3  C4  UNL     1      23.098   0.402  53.304  1.00  0.00     0.044 C 
HETATM    4  C5  UNL     1      22.179  -0.168  54.105  1.00  0.00    -0.017 C 
HETATM    5  C6  UNL     1      20.924   0.452  53.779  1.00  0.00    -0.001 C 
HETATM    6  C7  UNL     1      20.428   1.377  53.037  1.00  0.00     0.029 C 
HETATM    7  C8  UNL     1      21.067   2.307  52.119  1.00  0.00     0.064 C 
HETATM    8  C9  UNL     1      22.270   2.951  52.279  1.00  0.00     0.075 C 
HETATM    9  C10 UNL     1      23.383   3.693  52.583  1.00  0.00    -0.018 C 
HETATM   10  C11 UNL     1      24.218   3.899  51.467  1.00  0.00    -0.020 C 
HETATM   11  C12 UNL     1      24.783   3.243  50.351  1.00  0.00     0.057 C 
HETATM   12  C13 UNL     1      24.251   2.126  51.034  1.00  0.00     0.001 C 
HETATM   13  C14 UNL     1      22.949   1.776  50.561  1.00  0.00     0.132 C 
HETATM   14  N1  UNL     1      21.854   2.314  49.928  1.00  0.00    -0.218 N 
HETATM   15  N3  UNL     1      21.074   2.902  50.863  1.00  0.00    -0.170 NA
ENDROOT
BRANCH  14  16
HETATM   16  C15 UNL     1      21.574   2.269  48.535  1.00  0.00     0.192 C 
HETATM   17  S1  UNL     1      19.985   2.664  48.492  1.00  0.00    -0.039 SA
BRANCH  16  18
HETATM   18  N2  UNL     1      22.593   1.935  47.570  1.00  0.00    -0.375 N 
HETATM   19  H14 UNL     1      22.680   2.758  46.924  1.00  0.00     0.158 HD
HETATM   20  H15 UNL     1      22.949   0.963  47.802  1.00  0.00     0.158 HD
ENDBRANCH  16  18
ENDBRANCH  14  16
BRANCH   1  21
HETATM   21  O1  UNL     1      26.082   1.341  51.589  1.00  0.00    -0.356 OA
HETATM   22  C1  UNL     1      27.218   1.510  52.371  1.00  0.00     0.210 C 
ENDBRANCH   1  21
TORSDOF 3
ENDMDL
MODEL 7
REMARK VINA RESULT:      -6.4      3.253      4.718
REMARK  3 active torsions:
REMARK  status: ('A' for Active; 'I' for Inactive)
REMARK    1  A    between atoms: O1_2  and  C2_3 
REMARK    2  A    between atoms: N1_16  and  C15_17 
REMARK    3  A    between atoms: C15_17  and  N2_18 
ROOT
HETATM    1  C2  UNL     1      22.535   2.016  52.455  1.00  0.00     0.073 C 
HETATM    2  C3  UNL     1      23.506   1.200  52.873  1.00  0.00     0.020 C 
HETATM    3  C4  UNL     1      24.710   1.614  52.124  1.00  0.00     0.044 C 
HETATM    4  C5  UNL     1      26.014   1.290  52.047  1.00  0.00    -0.017 C 
HETATM    5  C6  UNL     1      26.581   2.146  51.040  1.00  0.00    -0.001 C 
HETATM    6  C7  UNL     1      26.243   3.046  50.187  1.00  0.00     0.029 C 
HETATM    7  C8  UNL     1      24.942   3.604  49.856  1.00  0.00     0.064 C 
HETATM    8  C9  UNL     1      23.740   2.941  49.772  1.00  0.00     0.075 C 
HETATM    9  C10 UNL     1      22.618   2.190  49.532  1.00  0.00    -0.018 C 
HETATM   10  C11 UNL     1      21.438   2.828  49.962  1.00  0.00    -0.020 C 
HETATM   11  C12 UNL     1      20.888   3.570  51.032  1.00  0.00     0.057 C 
HETATM   12  C13 UNL     1      22.108   3.173  51.625  1.00  0.00     0.001 C 
HETATM   13  C14 UNL     1      23.125   4.165  51.480  1.00  0.00     0.132 C 
HETATM   14  N1  UNL     1      23.488   5.224  50.684  1.00  0.00    -0.218 N 
HETATM   15  N3  UNL     1      24.173   4.739  49.624  1.00  0.00    -0.170 NA
ENDROOT
BRANCH  14  16
HETATM   16  C15 UNL     1      23.205   6.598  50.919  1.00  0.00     0.192 C 
HETATM   17  S1  UNL     1      24.657   7.301  50.637  1.00  0.00    -0.039 SA
BRANCH  16  18
HETATM   18  N2  UNL     1      21.887   7.041  51.302  1.00  0.00    -0.375 N 
HETATM   19  H14 UNL     1      21.561   7.703  50.555  1.00  0.00     0.158 HD
HETATM   20  H15 UNL     1      21.643   6.568  52.220  1.00  0.00     0.158 HD
ENDBRANCH  16  18
ENDBRANCH  14  16
BRANCH   1  21
HETATM   21  O1  UNL     1      21.253   1.855  52.971  1.00  0.00    -0.356 OA
HETATM   22  C1  UNL     1      20.657   0.658  53.347  1.00  0.00     0.210 C 
ENDBRANCH   1  21
TORSDOF 3
ENDMDL
MODEL 8
REMARK VINA RESULT:      -6.4      3.961      5.832
REMARK  3 active torsions:
REMARK  status: ('A' for Active; 'I' for Inactive)
REMARK    1  A    between atoms: O1_2  and  C2_3 
REMARK    2  A    between atoms: N1_16  and  C15_17 
REMARK    3  A    between atoms: C15_17  and  N2_18 
ROOT
HETATM    1  C2  UNL     1      23.809  -0.057  53.399  1.00  0.00     0.073 C 
HETATM    2  C3  UNL     1      23.178   0.645  52.454  1.00  0.00     0.020 C 
HETATM    3  C4  UNL     1      24.237   1.415  51.771  1.00  0.00     0.044 C 
HETATM    4  C5  UNL     1      24.358   2.274  50.741  1.00  0.00    -0.017 C 
HETATM    5  C6  UNL     1      25.749   2.632  50.680  1.00  0.00    -0.001 C 
HETATM    6  C7  UNL     1      26.859   2.445  51.303  1.00  0.00     0.029 C 
HETATM    7  C8  UNL     1      27.157   1.697  52.513  1.00  0.00     0.064 C 
HETATM    8  C9  UNL     1      26.394   1.604  53.653  1.00  0.00     0.075 C 
HETATM    9  C10 UNL     1      25.675   1.701  54.817  1.00  0.00    -0.018 C 
HETATM   10  C11 UNL     1      25.620   0.483  55.522  1.00  0.00    -0.020 C 
HETATM   11  C12 UNL     1      25.428  -0.906  55.351  1.00  0.00     0.057 C 
HETATM   12  C13 UNL     1      25.080  -0.460  54.056  1.00  0.00     0.001 C 
HETATM   13  C14 UNL     1      26.185  -0.517  53.152  1.00  0.00     0.132 C 
HETATM   14  N1  UNL     1      27.558  -0.513  53.131  1.00  0.00    -0.218 N 
HETATM   15  N3  UNL     1      27.976   0.773  53.154  1.00  0.00    -0.170 NA
ENDROOT
BRANCH  14  16
HETATM   16  C15 UNL     1      28.409  -1.651  53.091  1.00  0.00     0.192 C 
HETATM   17  S1  UNL     1      29.875  -0.996  53.414  1.00  0.00    -0.039 SA
BRANCH  16  18
HETATM   18  N2  UNL     1      27.893  -2.969  52.815  1.00  0.00    -0.375 N 
HETATM   19  H14 UNL     1      27.448  -2.928  51.865  1.00  0.00     0.158 HD
HETATM   20  H15 UNL     1      28.117  -3.584  53.651  1.00  0.00     0.158 HD
ENDBRANCH  16  18
ENDBRANCH  14  16
BRANCH   1  21
HETATM   21  O1  UNL     1      23.062  -0.876  54.240  1.00  0.00    -0.356 OA
HETATM   22  C1  UNL     1      21.801  -1.398  53.980  1.00  0.00     0.210 C 
ENDBRANCH   1  21
TORSDOF 3
ENDMDL
MODEL 9
REMARK VINA RESULT:      -6.3      1.990      3.005
REMARK  3 active torsions:
REMARK  status: ('A' for Active; 'I' for Inactive)
REMARK    1  A    between atoms: O1_2  and  C2_3 
REMARK    2  A    between atoms: N1_16  and  C15_17 
REMARK    3  A    between atoms: C15_17  and  N2_18 
ROOT
HETATM    1  C2  UNL     1      22.960   4.224  49.717  1.00  0.00     0.073 C 
HETATM    2  C3  UNL     1      24.116   4.374  49.066  1.00  0.00     0.020 C 
HETATM    3  C4  UNL     1      25.094   3.564  49.821  1.00  0.00     0.044 C 
HETATM    4  C5  UNL     1      26.393   3.218  49.745  1.00  0.00    -0.017 C 
HETATM    5  C6  UNL     1      26.654   2.388  50.889  1.00  0.00    -0.001 C 
HETATM    6  C7  UNL     1      26.081   1.934  51.947  1.00  0.00     0.029 C 
HETATM    7  C8  UNL     1      24.742   2.150  52.473  1.00  0.00     0.064 C 
HETATM    8  C9  UNL     1      24.017   3.318  52.468  1.00  0.00     0.075 C 
HETATM    9  C10 UNL     1      23.427   4.550  52.591  1.00  0.00    -0.018 C 
HETATM   10  C11 UNL     1      22.033   4.504  52.389  1.00  0.00    -0.020 C 
HETATM   11  C12 UNL     1      21.036   3.950  51.555  1.00  0.00     0.057 C 
HETATM   12  C13 UNL     1      22.186   3.590  50.817  1.00  0.00     0.001 C 
HETATM   13  C14 UNL     1      22.636   2.271  51.130  1.00  0.00     0.132 C 
HETATM   14  N1  UNL     1      22.590   1.328  52.129  1.00  0.00    -0.218 N 
HETATM   15  N3  UNL     1      23.584   1.596  53.006  1.00  0.00    -0.170 NA
ENDROOT
BRANCH  14  16
HETATM   16  C15 UNL     1      21.669   0.251  52.237  1.00  0.00     0.192 C 
HETATM   17  S1  UNL     1      22.427  -0.745  53.293  1.00  0.00    -0.039 SA
BRANCH  16  18
HETATM   18  N2  UNL     1      20.426   0.245  51.505  1.00  0.00    -0.375 N 
HETATM   19  H14 UNL     1      20.571   0.847  50.657  1.00  0.00     0.158 HD
HETATM   20  H15 UNL     1      19.740  -0.363  52.040  1.00  0.00     0.158 HD
ENDBRANCH  16  18
ENDBRANCH  14  16
BRANCH   1  21
HETATM   21  O1  UNL     1      21.834   4.897  49.252  1.00  0.00    -0.356 OA
HETATM   22  C1  UNL     1      21.413   4.991  47.932  1.00  0.00     0.210 C 
ENDBRANCH   1  21
TORSDOF 3
ENDMDL
