MODEL 1
REMARK VINA RESULT:      -6.9      0.000      0.000
REMARK  11 active torsions:
REMARK  status: ('A' for Active; 'I' for Inactive)
REMARK    1  A    between atoms: C2_2  and  C3_3 
REMARK    2  A    between atoms: C2_2  and  C15_26 
REMARK    3  A    between atoms: C3_3  and  C4_4 
REMARK    4  A    between atoms: C4_4  and  C5_5 
REMARK    5  A    between atoms: C5_5  and  C6_6 
REMARK    6  A    between atoms: C6_6  and  P1_8 
REMARK    7  A    between atoms: P1_8  and  N1_9 
REMARK    8  A    between atoms: N3_12  and  C8_13 
REMARK    9  A    between atoms: C11_16  and  S1_17 
REMARK   10  A    between atoms: S1_17  and  N4_18 
REMARK   11  A    between atoms: C14_24  and  N6_25 
ROOT
HETATM    1  N1  UNL     1      21.790   2.021  51.151  1.00  0.00    -0.068 N 
HETATM    2  N2  UNL     1      22.999   1.769  50.452  1.00  0.00    -0.147 NA
HETATM    3  C7  UNL     1      23.772   2.783  50.230  1.00  0.00     0.258 A 
HETATM    4  N3  UNL     1      23.488   4.113  50.636  1.00  0.00    -0.210 N 
HETATM    5  N5  UNL     1      22.294   4.326  51.320  1.00  0.00     0.027 NA
HETATM    6  C14 UNL     1      21.469   3.340  51.576  1.00  0.00     0.737 A 
ENDROOT
BRANCH   4   7
HETATM    7  C8  UNL     1      24.352   5.208  50.381  1.00  0.00     0.060 A 
HETATM    8  C9  UNL     1      24.251   6.447  50.975  1.00  0.00     0.033 A 
HETATM    9  C10 UNL     1      25.087   7.501  50.724  1.00  0.00     0.027 A 
HETATM   10  C11 UNL     1      26.115   7.346  49.820  1.00  0.00     0.074 A 
HETATM   11  C12 UNL     1      26.246   6.131  49.211  1.00  0.00     0.027 A 
HETATM   12  C13 UNL     1      25.388   5.084  49.481  1.00  0.00     0.033 A 
BRANCH  10  13
HETATM   13  S1  UNL     1      27.188   8.690  49.496  1.00  0.00     0.239 S 
HETATM   14  O2  UNL     1      28.472   8.222  48.863  1.00  0.00    -0.206 OA
HETATM   15  O3  UNL     1      26.511   9.720  48.641  1.00  0.00    -0.206 OA
BRANCH  13  16
HETATM   16  N4  UNL     1      27.514   9.442  51.033  1.00  0.00    -0.225 NA
HETATM   17  H11 UNL     1      26.658   9.344  51.603  1.00  0.00     0.136 HD
HETATM   18  H12 UNL     1      27.719  10.460  50.885  1.00  0.00     0.136 HD
ENDBRANCH  13  16
ENDBRANCH  10  13
ENDBRANCH   4   7
BRANCH   6  19
HETATM   19  N6  UNL     1      20.253   3.572  52.274  1.00  0.00    -0.230 N 
HETATM   20  H15 UNL     1      20.152   4.583  52.546  1.00  0.00     0.174 HD
HETATM   21  H16 UNL     1      19.405   3.070  52.618  1.00  0.00     0.174 HD
ENDBRANCH   6  19
BRANCH   1  22
HETATM   22  P1  UNL     1      20.724   0.612  51.456  1.00  0.00     0.092 P 
HETATM   23  H7  UNL     1      20.762  -0.355  50.389  1.00  0.00     0.091 HD
BRANCH  22  24
HETATM   24  C6  UNL     1      21.225  -0.115  53.065  1.00  0.00     0.173 C 
HETATM   25  O1  UNL     1      20.746   0.086  54.182  1.00  0.00    -0.291 OA
BRANCH  24  26
HETATM   26  C5  UNL     1      22.358  -1.081  53.065  1.00  0.00     0.103 C 
BRANCH  26  27
HETATM   27  C4  UNL     1      23.394  -0.597  53.976  1.00  0.00     0.075 C 
BRANCH  27  28
HETATM   28  C3  UNL     1      24.298   0.227  53.489  1.00  0.00    -0.163 C 
BRANCH  28  29
HETATM   29  C2  UNL     1      25.386   0.842  53.041  1.00  0.00     0.054 C 
HETATM   30  C1  UNL     1      26.260  -0.117  52.336  1.00  0.00     0.032 C 
BRANCH  29  31
HETATM   31  C15 UNL     1      25.515   2.264  53.312  1.00  0.00     0.245 C 
HETATM   32  F1  UNL     1      24.331   2.863  53.587  1.00  0.00    -0.254 F 
ENDBRANCH  29  31
ENDBRANCH  28  29
ENDBRANCH  27  28
ENDBRANCH  26  27
ENDBRANCH  24  26
ENDBRANCH  22  24
ENDBRANCH   1  22
TORSDOF 11
ENDMDL
MODEL 2
REMARK VINA RESULT:      -6.8      5.652      8.788
REMARK  11 active torsions:
REMARK  status: ('A' for Active; 'I' for Inactive)
REMARK    1  A    between atoms: C2_2  and  C3_3 
REMARK    2  A    between atoms: C2_2  and  C15_26 
REMARK    3  A    between atoms: C3_3  and  C4_4 
REMARK    4  A    between atoms: C4_4  and  C5_5 
REMARK    5  A    between atoms: C5_5  and  C6_6 
REMARK    6  A    between atoms: C6_6  and  P1_8 
REMARK    7  A    between atoms: P1_8  and  N1_9 
REMARK    8  A    between atoms: N3_12  and  C8_13 
REMARK    9  A    between atoms: C11_16  and  S1_17 
REMARK   10  A    between atoms: S1_17  and  N4_18 
REMARK   11  A    between atoms: C14_24  and  N6_25 
ROOT
HETATM    1  N1  UNL     1      23.994  -0.333  54.093  1.00  0.00    -0.068 N 
HETATM    2  N2  UNL     1      23.507   0.343  52.945  1.00  0.00    -0.147 NA
HETATM    3  C7  UNL     1      22.243   0.231  52.690  1.00  0.00     0.258 A 
HETATM    4  N3  UNL     1      21.328  -0.516  53.476  1.00  0.00    -0.210 N 
HETATM    5  N5  UNL     1      21.838  -1.167  54.596  1.00  0.00     0.027 NA
HETATM    6  C14 UNL     1      23.109  -1.092  54.908  1.00  0.00     0.737 A 
ENDROOT
BRANCH   4   7
HETATM    7  C8  UNL     1      19.946  -0.624  53.174  1.00  0.00     0.060 A 
HETATM    8  C9  UNL     1      19.090  -1.554  53.722  1.00  0.00     0.033 A 
HETATM    9  C10 UNL     1      17.757  -1.653  53.427  1.00  0.00     0.027 A 
HETATM   10  C11 UNL     1      17.199  -0.776  52.524  1.00  0.00     0.074 A 
HETATM   11  C12 UNL     1      18.017   0.161  51.961  1.00  0.00     0.027 A 
HETATM   12  C13 UNL     1      19.360   0.239  52.275  1.00  0.00     0.033 A 
BRANCH  10  13
HETATM   13  S1  UNL     1      15.495  -0.898  52.144  1.00  0.00     0.239 S 
HETATM   14  O2  UNL     1      15.195  -0.308  50.791  1.00  0.00    -0.206 OA
HETATM   15  O3  UNL     1      15.030  -2.321  52.225  1.00  0.00    -0.206 OA
BRANCH  13  16
HETATM   16  N4  UNL     1      14.649  -0.016  53.385  1.00  0.00    -0.225 NA
HETATM   17  H11 UNL     1      15.043  -0.319  54.291  1.00  0.00     0.136 HD
HETATM   18  H12 UNL     1      13.629  -0.260  53.350  1.00  0.00     0.136 HD
ENDBRANCH  13  16
ENDBRANCH  10  13
ENDBRANCH   4   7
BRANCH   6  19
HETATM   19  N6  UNL     1      23.617  -1.762  56.054  1.00  0.00    -0.230 N 
HETATM   20  H15 UNL     1      23.289  -1.306  56.944  1.00  0.00     0.174 HD
HETATM   21  H16 UNL     1      24.218  -2.572  56.322  1.00  0.00     0.174 HD
ENDBRANCH   6  19
BRANCH   1  22
HETATM   22  P1  UNL     1      25.746  -0.174  54.443  1.00  0.00     0.092 P 
HETATM   23  H7  UNL     1      26.115  -0.755  55.708  1.00  0.00     0.091 HD
BRANCH  22  24
HETATM   24  C6  UNL     1      26.655  -0.933  53.041  1.00  0.00     0.173 C 
HETATM   25  O1  UNL     1      27.197  -2.037  52.985  1.00  0.00    -0.291 OA
BRANCH  24  26
HETATM   26  C5  UNL     1      26.777  -0.141  51.786  1.00  0.00     0.103 C 
BRANCH  26  27
HETATM   27  C4  UNL     1      27.141   1.234  52.127  1.00  0.00     0.075 C 
BRANCH  27  28
HETATM   28  C3  UNL     1      26.462   2.205  51.554  1.00  0.00    -0.163 C 
BRANCH  28  29
HETATM   29  C2  UNL     1      25.757   3.003  50.760  1.00  0.00     0.054 C 
HETATM   30  C1  UNL     1      26.538   3.340  49.553  1.00  0.00     0.032 C 
BRANCH  29  31
HETATM   31  C15 UNL     1      24.424   3.381  51.198  1.00  0.00     0.245 C 
HETATM   32  F1  UNL     1      24.306   3.448  52.546  1.00  0.00    -0.254 F 
ENDBRANCH  29  31
ENDBRANCH  28  29
ENDBRANCH  27  28
ENDBRANCH  26  27
ENDBRANCH  24  26
ENDBRANCH  22  24
ENDBRANCH   1  22
TORSDOF 11
ENDMDL
MODEL 3
REMARK VINA RESULT:      -6.7      6.120      8.586
REMARK  11 active torsions:
REMARK  status: ('A' for Active; 'I' for Inactive)
REMARK    1  A    between atoms: C2_2  and  C3_3 
REMARK    2  A    between atoms: C2_2  and  C15_26 
REMARK    3  A    between atoms: C3_3  and  C4_4 
REMARK    4  A    between atoms: C4_4  and  C5_5 
REMARK    5  A    between atoms: C5_5  and  C6_6 
REMARK    6  A    between atoms: C6_6  and  P1_8 
REMARK    7  A    between atoms: P1_8  and  N1_9 
REMARK    8  A    between atoms: N3_12  and  C8_13 
REMARK    9  A    between atoms: C11_16  and  S1_17 
REMARK   10  A    between atoms: S1_17  and  N4_18 
REMARK   11  A    between atoms: C14_24  and  N6_25 
ROOT
HETATM    1  N1  UNL     1      17.891  -0.184  52.142  1.00  0.00    -0.068 N 
HETATM    2  N2  UNL     1      18.640   0.708  51.333  1.00  0.00    -0.147 NA
HETATM    3  C7  UNL     1      19.901   0.824  51.600  1.00  0.00     0.258 A 
HETATM    4  N3  UNL     1      20.570   0.124  52.637  1.00  0.00    -0.210 N 
HETATM    5  N5  UNL     1      19.806  -0.744  53.412  1.00  0.00     0.027 NA
HETATM    6  C14 UNL     1      18.524  -0.905  53.192  1.00  0.00     0.737 A 
ENDROOT
BRANCH   4   7
HETATM    7  C8  UNL     1      21.955   0.269  52.910  1.00  0.00     0.060 A 
HETATM    8  C9  UNL     1      22.715   1.365  52.565  1.00  0.00     0.033 A 
HETATM    9  C10 UNL     1      24.051   1.500  52.830  1.00  0.00     0.027 A 
HETATM   10  C11 UNL     1      24.714   0.487  53.488  1.00  0.00     0.074 A 
HETATM   11  C12 UNL     1      23.992  -0.615  53.846  1.00  0.00     0.027 A 
HETATM   12  C13 UNL     1      22.644  -0.726  53.566  1.00  0.00     0.033 A 
BRANCH  10  13
HETATM   13  S1  UNL     1      26.422   0.654  53.830  1.00  0.00     0.239 S 
HETATM   14  O2  UNL     1      26.805  -0.101  55.075  1.00  0.00    -0.206 OA
HETATM   15  O3  UNL     1      27.247   0.212  52.659  1.00  0.00    -0.206 OA
BRANCH  13  16
HETATM   16  N4  UNL     1      26.718   2.357  54.045  1.00  0.00    -0.225 NA
HETATM   17  H11 UNL     1      26.902   2.751  53.108  1.00  0.00     0.136 HD
HETATM   18  H12 UNL     1      27.565   2.489  54.650  1.00  0.00     0.136 HD
ENDBRANCH  13  16
ENDBRANCH  10  13
ENDBRANCH   4   7
BRANCH   6  19
HETATM   19  N6  UNL     1      17.755  -1.795  53.991  1.00  0.00    -0.230 N 
HETATM   20  H15 UNL     1      17.798  -2.779  53.622  1.00  0.00     0.174 HD
HETATM   21  H16 UNL     1      17.148  -1.806  54.840  1.00  0.00     0.174 HD
ENDBRANCH   6  19
BRANCH   1  22
HETATM   22  P1  UNL     1      16.144  -0.342  51.767  1.00  0.00     0.092 P 
HETATM   23  H7  UNL     1      15.406  -0.990  52.822  1.00  0.00     0.091 HD
BRANCH  22  24
HETATM   24  C6  UNL     1      15.506   1.342  51.411  1.00  0.00     0.173 C 
HETATM   25  O1  UNL     1      15.435   1.924  50.329  1.00  0.00    -0.291 OA
BRANCH  24  26
HETATM   26  C5  UNL     1      14.997   2.144  52.558  1.00  0.00     0.103 C 
BRANCH  26  27
HETATM   27  C4  UNL     1      13.873   1.437  53.169  1.00  0.00     0.075 C 
BRANCH  27  28
HETATM   28  C3  UNL     1      12.873   2.161  53.627  1.00  0.00    -0.163 C 
BRANCH  28  29
HETATM   29  C2  UNL     1      12.015   2.893  54.327  1.00  0.00     0.054 C 
HETATM   30  C1  UNL     1      11.010   2.023  54.971  1.00  0.00     0.032 C 
BRANCH  29  31
HETATM   31  C15 UNL     1      12.205   4.334  54.332  1.00  0.00     0.245 C 
HETATM   32  F1  UNL     1      13.495   4.700  54.136  1.00  0.00    -0.254 F 
ENDBRANCH  29  31
ENDBRANCH  28  29
ENDBRANCH  27  28
ENDBRANCH  26  27
ENDBRANCH  24  26
ENDBRANCH  22  24
ENDBRANCH   1  22
TORSDOF 11
ENDMDL
MODEL 4
REMARK VINA RESULT:      -6.6      4.154      7.872
REMARK  11 active torsions:
REMARK  status: ('A' for Active; 'I' for Inactive)
REMARK    1  A    between atoms: C2_2  and  C3_3 
REMARK    2  A    between atoms: C2_2  and  C15_26 
REMARK    3  A    between atoms: C3_3  and  C4_4 
REMARK    4  A    between atoms: C4_4  and  C5_5 
REMARK    5  A    between atoms: C5_5  and  C6_6 
REMARK    6  A    between atoms: C6_6  and  P1_8 
REMARK    7  A    between atoms: P1_8  and  N1_9 
REMARK    8  A    between atoms: N3_12  and  C8_13 
REMARK    9  A    between atoms: C11_16  and  S1_17 
REMARK   10  A    between atoms: S1_17  and  N4_18 
REMARK   11  A    between atoms: C14_24  and  N6_25 
ROOT
HETATM    1  N1  UNL     1      23.694   6.156  49.418  1.00  0.00    -0.068 N 
HETATM    2  N2  UNL     1      23.790   4.907  48.752  1.00  0.00    -0.147 NA
HETATM    3  C7  UNL     1      24.233   3.906  49.442  1.00  0.00     0.258 A 
HETATM    4  N3  UNL     1      24.624   3.980  50.804  1.00  0.00    -0.210 N 
HETATM    5  N5  UNL     1      24.518   5.220  51.428  1.00  0.00     0.027 NA
HETATM    6  C14 UNL     1      24.075   6.272  50.783  1.00  0.00     0.737 A 
ENDROOT
BRANCH   4   7
HETATM    7  C8  UNL     1      25.108   2.867  51.539  1.00  0.00     0.060 A 
HETATM    8  C9  UNL     1      26.284   2.200  51.276  1.00  0.00     0.033 A 
HETATM    9  C10 UNL     1      26.746   1.126  51.988  1.00  0.00     0.027 A 
HETATM   10  C11 UNL     1      26.007   0.653  53.050  1.00  0.00     0.074 A 
HETATM   11  C12 UNL     1      24.835   1.290  53.341  1.00  0.00     0.027 A 
HETATM   12  C13 UNL     1      24.392   2.372  52.606  1.00  0.00     0.033 A 
BRANCH  10  13
HETATM   13  S1  UNL     1      26.593  -0.718  53.965  1.00  0.00     0.239 S 
HETATM   14  O2  UNL     1      26.873  -1.894  53.067  1.00  0.00    -0.206 OA
HETATM   15  O3  UNL     1      27.809  -0.349  54.761  1.00  0.00    -0.206 OA
BRANCH  13  16
HETATM   16  N4  UNL     1      25.341  -1.120  55.108  1.00  0.00    -0.225 NA
HETATM   17  H11 UNL     1      24.450  -1.129  54.586  1.00  0.00     0.136 HD
HETATM   18  H12 UNL     1      25.301  -0.381  55.853  1.00  0.00     0.136 HD
ENDBRANCH  13  16
ENDBRANCH  10  13
ENDBRANCH   4   7
BRANCH   6  19
HETATM   19  N6  UNL     1      23.972   7.532  51.432  1.00  0.00    -0.230 N 
HETATM   20  H15 UNL     1      23.149   7.562  52.086  1.00  0.00     0.174 HD
HETATM   21  H16 UNL     1      24.445   8.461  51.483  1.00  0.00     0.174 HD
ENDBRANCH   6  19
BRANCH   1  22
HETATM   22  P1  UNL     1      23.078   7.539  48.457  1.00  0.00     0.092 P 
HETATM   23  H7  UNL     1      22.079   8.303  49.160  1.00  0.00     0.091 HD
BRANCH  22  24
HETATM   24  C6  UNL     1      24.524   8.564  47.983  1.00  0.00     0.173 C 
HETATM   25  O1  UNL     1      24.786   9.722  48.308  1.00  0.00    -0.291 OA
BRANCH  24  26
HETATM   26  C5  UNL     1      25.542   7.950  47.084  1.00  0.00     0.103 C 
BRANCH  26  27
HETATM   27  C4  UNL     1      26.849   8.010  47.738  1.00  0.00     0.075 C 
BRANCH  27  28
HETATM   28  C3  UNL     1      27.508   6.881  47.887  1.00  0.00    -0.163 C 
BRANCH  28  29
HETATM   29  C2  UNL     1      28.316   5.886  48.234  1.00  0.00     0.054 C 
HETATM   30  C1  UNL     1      27.528   4.739  48.727  1.00  0.00     0.032 C 
BRANCH  29  31
HETATM   31  C15 UNL     1      29.746   6.093  48.077  1.00  0.00     0.245 C 
HETATM   32  F1  UNL     1      30.438   4.936  47.939  1.00  0.00    -0.254 F 
ENDBRANCH  29  31
ENDBRANCH  28  29
ENDBRANCH  27  28
ENDBRANCH  26  27
ENDBRANCH  24  26
ENDBRANCH  22  24
ENDBRANCH   1  22
TORSDOF 11
ENDMDL
MODEL 5
REMARK VINA RESULT:      -6.6      1.951      2.261
REMARK  11 active torsions:
REMARK  status: ('A' for Active; 'I' for Inactive)
REMARK    1  A    between atoms: C2_2  and  C3_3 
REMARK    2  A    between atoms: C2_2  and  C15_26 
REMARK    3  A    between atoms: C3_3  and  C4_4 
REMARK    4  A    between atoms: C4_4  and  C5_5 
REMARK    5  A    between atoms: C5_5  and  C6_6 
REMARK    6  A    between atoms: C6_6  and  P1_8 
REMARK    7  A    between atoms: P1_8  and  N1_9 
REMARK    8  A    between atoms: N3_12  and  C8_13 
REMARK    9  A    between atoms: C11_16  and  S1_17 
REMARK   10  A    between atoms: S1_17  and  N4_18 
REMARK   11  A    between atoms: C14_24  and  N6_25 
ROOT
HETATM    1  N1  UNL     1      22.632   3.312  50.772  1.00  0.00    -0.068 N 
HETATM    2  N2  UNL     1      23.414   2.735  49.738  1.00  0.00    -0.147 NA
HETATM    3  C7  UNL     1      24.445   3.407  49.338  1.00  0.00     0.258 A 
HETATM    4  N3  UNL     1      24.835   4.666  49.862  1.00  0.00    -0.210 N 
HETATM    5  N5  UNL     1      24.047   5.204  50.875  1.00  0.00     0.027 NA
HETATM    6  C14 UNL     1      22.990   4.572  51.324  1.00  0.00     0.737 A 
ENDROOT
BRANCH   4   7
HETATM    7  C8  UNL     1      25.972   5.384  49.406  1.00  0.00     0.060 A 
HETATM    8  C9  UNL     1      26.092   6.756  49.411  1.00  0.00     0.033 A 
HETATM    9  C10 UNL     1      27.190   7.443  48.970  1.00  0.00     0.027 A 
HETATM   10  C11 UNL     1      28.271   6.743  48.479  1.00  0.00     0.074 A 
HETATM   11  C12 UNL     1      28.187   5.381  48.458  1.00  0.00     0.027 A 
HETATM   12  C13 UNL     1      27.067   4.712  48.910  1.00  0.00     0.033 A 
BRANCH  10  13
HETATM   13  S1  UNL     1      29.678   7.616  47.913  1.00  0.00     0.239 S 
HETATM   14  O2  UNL     1      30.551   6.743  47.051  1.00  0.00    -0.206 OA
HETATM   15  O3  UNL     1      29.276   8.862  47.182  1.00  0.00    -0.206 OA
BRANCH  13  16
HETATM   16  N4  UNL     1      30.549   8.121  49.335  1.00  0.00    -0.225 NA
HETATM   17  H11 UNL     1      31.463   8.482  49.015  1.00  0.00     0.136 HD
HETATM   18  H12 UNL     1      30.703   7.292  49.960  1.00  0.00     0.136 HD
ENDBRANCH  13  16
ENDBRANCH  10  13
ENDBRANCH   4   7
BRANCH   6  19
HETATM   19  N6  UNL     1      22.193   5.133  52.360  1.00  0.00    -0.230 N 
HETATM   20  H15 UNL     1      21.252   4.665  52.418  1.00  0.00     0.174 HD
HETATM   21  H16 UNL     1      22.223   5.867  53.100  1.00  0.00     0.174 HD
ENDBRANCH   6  19
BRANCH   1  22
HETATM   22  P1  UNL     1      21.204   2.376  51.323  1.00  0.00     0.092 P 
HETATM   23  H7  UNL     1      20.336   1.997  50.237  1.00  0.00     0.091 HD
BRANCH  22  24
HETATM   24  C6  UNL     1      21.829   0.920  52.250  1.00  0.00     0.173 C 
HETATM   25  O1  UNL     1      21.382  -0.227  52.271  1.00  0.00    -0.291 OA
BRANCH  24  26
HETATM   26  C5  UNL     1      23.036   1.109  53.102  1.00  0.00     0.103 C 
BRANCH  26  27
HETATM   27  C4  UNL     1      23.757  -0.160  53.189  1.00  0.00     0.075 C 
BRANCH  27  28
HETATM   28  C3  UNL     1      25.063  -0.132  53.023  1.00  0.00    -0.163 C 
BRANCH  28  29
HETATM   29  C2  UNL     1      26.320  -0.225  52.608  1.00  0.00     0.054 C 
HETATM   30  C1  UNL     1      26.749  -1.638  52.594  1.00  0.00     0.032 C 
BRANCH  29  31
HETATM   31  C15 UNL     1      27.010   1.008  52.265  1.00  0.00     0.245 C 
HETATM   32  F1  UNL     1      26.575   1.554  51.104  1.00  0.00    -0.254 F 
ENDBRANCH  29  31
ENDBRANCH  28  29
ENDBRANCH  27  28
ENDBRANCH  26  27
ENDBRANCH  24  26
ENDBRANCH  22  24
ENDBRANCH   1  22
TORSDOF 11
ENDMDL
MODEL 6
REMARK VINA RESULT:      -6.5      4.054      6.830
REMARK  11 active torsions:
REMARK  status: ('A' for Active; 'I' for Inactive)
REMARK    1  A    between atoms: C2_2  and  C3_3 
REMARK    2  A    between atoms: C2_2  and  C15_26 
REMARK    3  A    between atoms: C3_3  and  C4_4 
REMARK    4  A    between atoms: C4_4  and  C5_5 
REMARK    5  A    between atoms: C5_5  and  C6_6 
REMARK    6  A    between atoms: C6_6  and  P1_8 
REMARK    7  A    between atoms: P1_8  and  N1_9 
REMARK    8  A    between atoms: N3_12  and  C8_13 
REMARK    9  A    between atoms: C11_16  and  S1_17 
REMARK   10  A    between atoms: S1_17  and  N4_18 
REMARK   11  A    between atoms: C14_24  and  N6_25 
ROOT
HETATM    1  N1  UNL     1      21.871   4.073  50.237  1.00  0.00    -0.068 N 
HETATM    2  N2  UNL     1      22.105   2.746  49.795  1.00  0.00    -0.147 NA
HETATM    3  C7  UNL     1      23.084   2.106  50.350  1.00  0.00     0.258 A 
HETATM    4  N3  UNL     1      23.926   2.644  51.357  1.00  0.00    -0.210 N 
HETATM    5  N5  UNL     1      23.669   3.949  51.769  1.00  0.00     0.027 NA
HETATM    6  C14 UNL     1      22.692   4.649  51.246  1.00  0.00     0.737 A 
ENDROOT
BRANCH   4   7
HETATM    7  C8  UNL     1      24.994   1.922  51.950  1.00  0.00     0.060 A 
HETATM    8  C9  UNL     1      24.874   0.685  52.545  1.00  0.00     0.033 A 
HETATM    9  C10 UNL     1      25.908  -0.008  53.115  1.00  0.00     0.027 A 
HETATM   10  C11 UNL     1      27.171   0.541  53.111  1.00  0.00     0.074 A 
HETATM   11  C12 UNL     1      27.328   1.767  52.530  1.00  0.00     0.027 A 
HETATM   12  C13 UNL     1      26.268   2.445  51.961  1.00  0.00     0.033 A 
BRANCH  10  13
HETATM   13  S1  UNL     1      28.497  -0.340  53.838  1.00  0.00     0.239 S 
HETATM   14  O2  UNL     1      28.408  -0.315  55.341  1.00  0.00    -0.206 OA
HETATM   15  O3  UNL     1      28.546  -1.748  53.326  1.00  0.00    -0.206 OA
BRANCH  13  16
HETATM   16  N4  UNL     1      29.959   0.444  53.309  1.00  0.00    -0.225 NA
HETATM   17  H11 UNL     1      29.685   1.148  52.604  1.00  0.00     0.136 HD
HETATM   18  H12 UNL     1      30.592  -0.265  52.864  1.00  0.00     0.136 HD
ENDBRANCH  13  16
ENDBRANCH  10  13
ENDBRANCH   4   7
BRANCH   6  19
HETATM   19  N6  UNL     1      22.441   5.981  51.675  1.00  0.00    -0.230 N 
HETATM   20  H15 UNL     1      23.325   6.549  51.703  1.00  0.00     0.174 HD
HETATM   21  H16 UNL     1      21.660   6.602  51.979  1.00  0.00     0.174 HD
ENDBRANCH   6  19
BRANCH   1  22
HETATM   22  P1  UNL     1      20.512   4.954  49.466  1.00  0.00     0.092 P 
HETATM   23  H7  UNL     1      19.822   5.824  50.385  1.00  0.00     0.091 HD
BRANCH  22  24
HETATM   24  C6  UNL     1      21.197   5.869  48.030  1.00  0.00     0.173 C 
HETATM   25  O1  UNL     1      20.714   6.827  47.427  1.00  0.00    -0.291 OA
BRANCH  24  26
HETATM   26  C5  UNL     1      22.513   5.424  47.491  1.00  0.00     0.103 C 
BRANCH  26  27
HETATM   27  C4  UNL     1      23.493   6.489  47.696  1.00  0.00     0.075 C 
BRANCH  27  28
HETATM   28  C3  UNL     1      24.404   6.308  48.630  1.00  0.00    -0.163 C 
BRANCH  28  29
HETATM   29  C2  UNL     1      25.503   6.166  49.360  1.00  0.00     0.054 C 
HETATM   30  C1  UNL     1      25.646   7.302  50.292  1.00  0.00     0.032 C 
BRANCH  29  31
HETATM   31  C15 UNL     1      26.322   4.988  49.123  1.00  0.00     0.245 C 
HETATM   32  F1  UNL     1      25.594   3.852  48.998  1.00  0.00    -0.254 F 
ENDBRANCH  29  31
ENDBRANCH  28  29
ENDBRANCH  27  28
ENDBRANCH  26  27
ENDBRANCH  24  26
ENDBRANCH  22  24
ENDBRANCH   1  22
TORSDOF 11
ENDMDL
MODEL 7
REMARK VINA RESULT:      -6.5      2.265      2.995
REMARK  11 active torsions:
REMARK  status: ('A' for Active; 'I' for Inactive)
REMARK    1  A    between atoms: C2_2  and  C3_3 
REMARK    2  A    between atoms: C2_2  and  C15_26 
REMARK    3  A    between atoms: C3_3  and  C4_4 
REMARK    4  A    between atoms: C4_4  and  C5_5 
REMARK    5  A    between atoms: C5_5  and  C6_6 
REMARK    6  A    between atoms: C6_6  and  P1_8 
REMARK    7  A    between atoms: P1_8  and  N1_9 
REMARK    8  A    between atoms: N3_12  and  C8_13 
REMARK    9  A    between atoms: C11_16  and  S1_17 
REMARK   10  A    between atoms: S1_17  and  N4_18 
REMARK   11  A    between atoms: C14_24  and  N6_25 
ROOT
HETATM    1  N1  UNL     1      23.579   3.287  50.625  1.00  0.00    -0.068 N 
HETATM    2  N2  UNL     1      24.579   3.123  49.632  1.00  0.00    -0.147 NA
HETATM    3  C7  UNL     1      25.329   4.147  49.380  1.00  0.00     0.258 A 
HETATM    4  N3  UNL     1      25.213   5.405  50.026  1.00  0.00    -0.210 N 
HETATM    5  N5  UNL     1      24.222   5.532  50.995  1.00  0.00     0.027 NA
HETATM    6  C14 UNL     1      23.431   4.532  51.296  1.00  0.00     0.737 A 
ENDROOT
BRANCH   4   7
HETATM    7  C8  UNL     1      26.049   6.514  49.731  1.00  0.00     0.060 A 
HETATM    8  C9  UNL     1      27.054   6.514  48.789  1.00  0.00     0.033 A 
HETATM    9  C10 UNL     1      27.857   7.586  48.509  1.00  0.00     0.027 A 
HETATM   10  C11 UNL     1      27.674   8.765  49.198  1.00  0.00     0.074 A 
HETATM   11  C12 UNL     1      26.686   8.802  50.139  1.00  0.00     0.027 A 
HETATM   12  C13 UNL     1      25.889   7.705  50.404  1.00  0.00     0.033 A 
BRANCH  10  13
HETATM   13  S1  UNL     1      28.697  10.140  48.843  1.00  0.00     0.239 S 
HETATM   14  O2  UNL     1      29.141  10.132  47.405  1.00  0.00    -0.206 OA
HETATM   15  O3  UNL     1      28.002  11.425  49.184  1.00  0.00    -0.206 OA
BRANCH  13  16
HETATM   16  N4  UNL     1      30.076  10.013  49.900  1.00  0.00    -0.225 NA
HETATM   17  H11 UNL     1      30.053  10.836  50.525  1.00  0.00     0.136 HD
HETATM   18  H12 UNL     1      30.956  10.037  49.328  1.00  0.00     0.136 HD
ENDBRANCH  13  16
ENDBRANCH  10  13
ENDBRANCH   4   7
BRANCH   6  19
HETATM   19  N6  UNL     1      22.422   4.675  52.287  1.00  0.00    -0.230 N 
HETATM   20  H15 UNL     1      22.437   3.876  52.971  1.00  0.00     0.174 HD
HETATM   21  H16 UNL     1      21.653   5.318  52.576  1.00  0.00     0.174 HD
ENDBRANCH   6  19
BRANCH   1  22
HETATM   22  P1  UNL     1      22.543   1.863  50.971  1.00  0.00     0.092 P 
HETATM   23  H7  UNL     1      22.284   1.067  49.798  1.00  0.00     0.091 HD
BRANCH  22  24
HETATM   24  C6  UNL     1      23.367   0.896  52.295  1.00  0.00     0.173 C 
HETATM   25  O1  UNL     1      22.995  -0.149  52.828  1.00  0.00    -0.291 OA
BRANCH  24  26
HETATM   26  C5  UNL     1      24.662   1.409  52.822  1.00  0.00     0.103 C 
BRANCH  26  27
HETATM   27  C4  UNL     1      25.755   0.650  52.216  1.00  0.00     0.075 C 
BRANCH  27  28
HETATM   28  C3  UNL     1      26.979   0.906  52.630  1.00  0.00    -0.163 C 
BRANCH  28  29
HETATM   29  C2  UNL     1      28.159   0.961  53.235  1.00  0.00     0.054 C 
HETATM   30  C1  UNL     1      28.512   2.363  53.537  1.00  0.00     0.032 C 
BRANCH  29  31
HETATM   31  C15 UNL     1      28.852  -0.294  53.475  1.00  0.00     0.245 C 
HETATM   32  F1  UNL     1      30.179  -0.133  53.698  1.00  0.00    -0.254 F 
ENDBRANCH  29  31
ENDBRANCH  28  29
ENDBRANCH  27  28
ENDBRANCH  26  27
ENDBRANCH  24  26
ENDBRANCH  22  24
ENDBRANCH   1  22
TORSDOF 11
ENDMDL
MODEL 8
REMARK VINA RESULT:      -6.5      5.351      8.755
REMARK  11 active torsions:
REMARK  status: ('A' for Active; 'I' for Inactive)
REMARK    1  A    between atoms: C2_2  and  C3_3 
REMARK    2  A    between atoms: C2_2  and  C15_26 
REMARK    3  A    between atoms: C3_3  and  C4_4 
REMARK    4  A    between atoms: C4_4  and  C5_5 
REMARK    5  A    between atoms: C5_5  and  C6_6 
REMARK    6  A    between atoms: C6_6  and  P1_8 
REMARK    7  A    between atoms: P1_8  and  N1_9 
REMARK    8  A    between atoms: N3_12  and  C8_13 
REMARK    9  A    between atoms: C11_16  and  S1_17 
REMARK   10  A    between atoms: S1_17  and  N4_18 
REMARK   11  A    between atoms: C14_24  and  N6_25 
ROOT
HETATM    1  N1  UNL     1      23.476   1.272  53.058  1.00  0.00    -0.068 N 
HETATM    2  N2  UNL     1      22.617   2.080  52.270  1.00  0.00    -0.147 NA
HETATM    3  C7  UNL     1      21.410   1.649  52.087  1.00  0.00     0.258 A 
HETATM    4  N3  UNL     1      20.903   0.435  52.617  1.00  0.00    -0.210 N 
HETATM    5  N5  UNL     1      21.771  -0.334  53.386  1.00  0.00     0.027 NA
HETATM    6  C14 UNL     1      23.005   0.048  53.609  1.00  0.00     0.737 A 
ENDROOT
BRANCH   4   7
HETATM    7  C8  UNL     1      19.575  -0.016  52.401  1.00  0.00     0.060 A 
HETATM    8  C9  UNL     1      18.870  -0.831  53.260  1.00  0.00     0.033 A 
HETATM    9  C10 UNL     1      17.589  -1.264  53.046  1.00  0.00     0.027 A 
HETATM   10  C11 UNL     1      16.927  -0.875  51.902  1.00  0.00     0.074 A 
HETATM   11  C12 UNL     1      17.595  -0.066  51.028  1.00  0.00     0.027 A 
HETATM   12  C13 UNL     1      18.888   0.356  51.267  1.00  0.00     0.033 A 
BRANCH  10  13
HETATM   13  S1  UNL     1      15.289  -1.424  51.625  1.00  0.00     0.239 S 
HETATM   14  O2  UNL     1      14.298  -0.312  51.840  1.00  0.00    -0.206 OA
HETATM   15  O3  UNL     1      15.149  -2.011  50.252  1.00  0.00    -0.206 OA
BRANCH  13  16
HETATM   16  N4  UNL     1      15.003  -2.714  52.760  1.00  0.00    -0.225 NA
HETATM   17  H11 UNL     1      14.899  -2.278  53.691  1.00  0.00     0.136 HD
HETATM   18  H12 UNL     1      15.830  -3.359  52.769  1.00  0.00     0.136 HD
ENDBRANCH  13  16
ENDBRANCH  10  13
ENDBRANCH   4   7
BRANCH   6  19
HETATM   19  N6  UNL     1      23.883  -0.747  54.395  1.00  0.00    -0.230 N 
HETATM   20  H15 UNL     1      24.698  -0.185  54.750  1.00  0.00     0.174 HD
HETATM   21  H16 UNL     1      23.997  -1.722  54.750  1.00  0.00     0.174 HD
ENDBRANCH   6  19
BRANCH   1  22
HETATM   22  P1  UNL     1      25.147   1.875  53.310  1.00  0.00     0.092 P 
HETATM   23  H7  UNL     1      25.693   1.481  54.583  1.00  0.00     0.091 HD
BRANCH  22  24
HETATM   24  C6  UNL     1      26.163   1.275  51.905  1.00  0.00     0.173 C 
HETATM   25  O1  UNL     1      26.618   1.914  50.956  1.00  0.00    -0.291 OA
BRANCH  24  26
HETATM   26  C5  UNL     1      26.506  -0.174  51.870  1.00  0.00     0.103 C 
BRANCH  26  27
HETATM   27  C4  UNL     1      26.941  -0.590  53.203  1.00  0.00     0.075 C 
BRANCH  27  28
HETATM   28  C3  UNL     1      28.059  -0.073  53.669  1.00  0.00    -0.163 C 
BRANCH  28  29
HETATM   29  C2  UNL     1      29.269   0.433  53.871  1.00  0.00     0.054 C 
HETATM   30  C1  UNL     1      30.301  -0.574  53.553  1.00  0.00     0.032 C 
BRANCH  29  31
HETATM   31  C15 UNL     1      29.356   1.805  54.342  1.00  0.00     0.245 C 
HETATM   32  F1  UNL     1      28.676   2.679  53.562  1.00  0.00    -0.254 F 
ENDBRANCH  29  31
ENDBRANCH  28  29
ENDBRANCH  27  28
ENDBRANCH  26  27
ENDBRANCH  24  26
ENDBRANCH  22  24
ENDBRANCH   1  22
TORSDOF 11
ENDMDL
MODEL 9
REMARK VINA RESULT:      -6.5      6.540      9.705
REMARK  11 active torsions:
REMARK  status: ('A' for Active; 'I' for Inactive)
REMARK    1  A    between atoms: C2_2  and  C3_3 
REMARK    2  A    between atoms: C2_2  and  C15_26 
REMARK    3  A    between atoms: C3_3  and  C4_4 
REMARK    4  A    between atoms: C4_4  and  C5_5 
REMARK    5  A    between atoms: C5_5  and  C6_6 
REMARK    6  A    between atoms: C6_6  and  P1_8 
REMARK    7  A    between atoms: P1_8  and  N1_9 
REMARK    8  A    between atoms: N3_12  and  C8_13 
REMARK    9  A    between atoms: C11_16  and  S1_17 
REMARK   10  A    between atoms: S1_17  and  N4_18 
REMARK   11  A    between atoms: C14_24  and  N6_25 
ROOT
HETATM    1  N1  UNL     1      31.557   6.764  47.519  1.00  0.00    -0.068 N 
HETATM    2  N2  UNL     1      30.493   7.374  46.807  1.00  0.00    -0.147 NA
HETATM    3  C7  UNL     1      29.290   7.026  47.136  1.00  0.00     0.258 A 
HETATM    4  N3  UNL     1      28.977   6.084  48.150  1.00  0.00    -0.210 N 
HETATM    5  N5  UNL     1      30.044   5.504  48.830  1.00  0.00     0.027 NA
HETATM    6  C14 UNL     1      31.285   5.816  48.543  1.00  0.00     0.737 A 
ENDROOT
BRANCH   4   7
HETATM    7  C8  UNL     1      27.649   5.718  48.492  1.00  0.00     0.060 A 
HETATM    8  C9  UNL     1      27.271   4.483  48.972  1.00  0.00     0.033 A 
HETATM    9  C10 UNL     1      25.989   4.135  49.300  1.00  0.00     0.027 A 
HETATM   10  C11 UNL     1      24.980   5.062  49.153  1.00  0.00     0.074 A 
HETATM   11  C12 UNL     1      25.318   6.297  48.680  1.00  0.00     0.027 A 
HETATM   12  C13 UNL     1      26.620   6.622  48.355  1.00  0.00     0.033 A 
BRANCH  10  13
HETATM   13  S1  UNL     1      23.338   4.623  49.572  1.00  0.00     0.239 S 
HETATM   14  O2  UNL     1      22.573   4.157  48.362  1.00  0.00    -0.206 OA
HETATM   15  O3  UNL     1      23.323   3.582  50.651  1.00  0.00    -0.206 OA
BRANCH  13  16
HETATM   16  N4  UNL     1      22.600   6.054  50.236  1.00  0.00    -0.225 NA
HETATM   17  H11 UNL     1      21.618   6.062  49.914  1.00  0.00     0.136 HD
HETATM   18  H12 UNL     1      23.093   6.903  49.868  1.00  0.00     0.136 HD
ENDBRANCH  13  16
ENDBRANCH  10  13
ENDBRANCH   4   7
BRANCH   6  19
HETATM   19  N6  UNL     1      32.366   5.216  49.245  1.00  0.00    -0.230 N 
HETATM   20  H15 UNL     1      32.895   5.924  49.815  1.00  0.00     0.174 HD
HETATM   21  H16 UNL     1      32.825   4.290  49.391  1.00  0.00     0.174 HD
ENDBRANCH   6  19
BRANCH   1  22
HETATM   22  P1  UNL     1      33.221   7.252  47.060  1.00  0.00     0.092 P 
HETATM   23  H7  UNL     1      34.126   7.263  48.181  1.00  0.00     0.091 HD
BRANCH  22  24
HETATM   24  C6  UNL     1      33.779   6.114  45.732  1.00  0.00     0.173 C 
HETATM   25  O1  UNL     1      34.031   6.371  44.555  1.00  0.00    -0.291 OA
BRANCH  24  26
HETATM   26  C5  UNL     1      33.963   4.679  46.085  1.00  0.00     0.103 C 
BRANCH  26  27
HETATM   27  C4  UNL     1      32.728   3.956  45.787  1.00  0.00     0.075 C 
BRANCH  27  28
HETATM   28  C3  UNL     1      32.577   2.761  46.320  1.00  0.00    -0.163 C 
BRANCH  28  29
HETATM   29  C2  UNL     1      32.596   1.657  47.057  1.00  0.00     0.054 C 
HETATM   30  C1  UNL     1      33.387   1.878  48.285  1.00  0.00     0.032 C 
BRANCH  29  31
HETATM   31  C15 UNL     1      31.878   0.498  46.553  1.00  0.00     0.245 C 
HETATM   32  F1  UNL     1      30.621   0.790  46.140  1.00  0.00    -0.254 F 
ENDBRANCH  29  31
ENDBRANCH  28  29
ENDBRANCH  27  28
ENDBRANCH  26  27
ENDBRANCH  24  26
ENDBRANCH  22  24
ENDBRANCH   1  22
TORSDOF 11
ENDMDL
