MODEL 1
REMARK VINA RESULT:      -7.8      0.000      0.000
REMARK  8 active torsions:
REMARK  status: ('A' for Active; 'I' for Inactive)
REMARK    1  A    between atoms: C2_2  and  C3_3 
REMARK    2  A    between atoms: C2_2  and  C4_5 
REMARK    3  A    between atoms: C3_3  and  O1_4 
REMARK    4  A    between atoms: C4_5  and  C16_21 
REMARK    5  A    between atoms: C5_6  and  C6_7 
REMARK    6  A    between atoms: C8_9  and  N1_10 
REMARK    7  A    between atoms: N1_10  and  C9_11 
REMARK    8  A    between atoms: C16_21  and  O2_22 
ROOT
HETATM    1  C6  UNL     1      25.523   1.633  52.090  1.00  0.00     0.062 A 
HETATM    2  C7  UNL     1      25.612   2.394  50.929  1.00  0.00     0.082 A 
HETATM    3  C8  UNL     1      24.970   3.582  50.681  1.00  0.00     0.131 A 
HETATM    4  N2  UNL     1      24.199   4.008  51.678  1.00  0.00    -0.224 NA
HETATM    5  C15 UNL     1      24.076   3.322  52.815  1.00  0.00     0.235 A 
HETATM    6  N3  UNL     1      24.714   2.168  53.025  1.00  0.00    -0.242 NA
ENDROOT
BRANCH   1   7
HETATM    7  C5  UNL     1      26.243   0.371  52.230  1.00  0.00     0.041 C 
HETATM    8  C4  UNL     1      27.068  -0.120  53.186  1.00  0.00    -0.025 C 
BRANCH   8   9
HETATM    9  C2  UNL     1      27.552  -1.468  52.864  1.00  0.00    -0.036 C 
HETATM   10  C1  UNL     1      26.829  -2.371  52.207  1.00  0.00     0.021 C 
BRANCH   9  11
HETATM   11  C3  UNL     1      28.915  -1.935  53.299  1.00  0.00     0.202 C 
BRANCH  11  12
HETATM   12  O1  UNL     1      28.852  -3.318  53.428  1.00  0.00    -0.396 OA
HETATM   13  H5  UNL     1      28.647  -3.538  54.367  1.00  0.00     0.209 HD
ENDBRANCH  11  12
ENDBRANCH   9  11
ENDBRANCH   8   9
BRANCH   8  14
HETATM   14  C16 UNL     1      27.290   0.759  54.331  1.00  0.00     0.206 C 
BRANCH  14  15
HETATM   15  O2  UNL     1      28.406   1.476  54.451  1.00  0.00    -0.391 OA
HETATM   16  C17 UNL     1      28.803   2.499  53.711  1.00  0.00     0.201 C 
ENDBRANCH  14  15
ENDBRANCH   8  14
ENDBRANCH   1   7
BRANCH   3  17
HETATM   17  N1  UNL     1      25.193   4.210  49.432  1.00  0.00    -0.341 N 
HETATM   18  H8  UNL     1      24.489   4.047  48.660  1.00  0.00     0.167 HD
BRANCH  17  19
HETATM   19  C9  UNL     1      26.259   5.057  49.062  1.00  0.00     0.036 A 
HETATM   20  C10 UNL     1      26.117   6.449  49.063  1.00  0.00     0.029 A 
HETATM   21  C11 UNL     1      27.155   7.273  48.708  1.00  0.00     0.005 A 
HETATM   22  C12 UNL     1      28.387   6.799  48.332  1.00  0.00     0.042 A 
HETATM   23  C13 UNL     1      28.548   5.447  48.326  1.00  0.00     0.118 A 
HETATM   24  F1  UNL     1      29.759   4.963  47.962  1.00  0.00    -0.206 F 
HETATM   25  C14 UNL     1      27.501   4.626  48.683  1.00  0.00     0.071 A 
ENDBRANCH  17  19
ENDBRANCH   3  17
TORSDOF 8
ENDMDL
MODEL 2
REMARK VINA RESULT:      -7.8      4.268      6.525
REMARK  8 active torsions:
REMARK  status: ('A' for Active; 'I' for Inactive)
REMARK    1  A    between atoms: C2_2  and  C3_3 
REMARK    2  A    between atoms: C2_2  and  C4_5 
REMARK    3  A    between atoms: C3_3  and  O1_4 
REMARK    4  A    between atoms: C4_5  and  C16_21 
REMARK    5  A    between atoms: C5_6  and  C6_7 
REMARK    6  A    between atoms: C8_9  and  N1_10 
REMARK    7  A    between atoms: N1_10  and  C9_11 
REMARK    8  A    between atoms: C16_21  and  O2_22 
ROOT
HETATM    1  C6  UNL     1      25.199   0.703  52.300  1.00  0.00     0.062 A 
HETATM    2  C7  UNL     1      23.969   0.421  52.887  1.00  0.00     0.082 A 
HETATM    3  C8  UNL     1      22.819   1.161  52.766  1.00  0.00     0.131 A 
HETATM    4  N2  UNL     1      22.940   2.244  52.003  1.00  0.00    -0.224 NA
HETATM    5  C15 UNL     1      24.094   2.564  51.414  1.00  0.00     0.235 A 
HETATM    6  N3  UNL     1      25.195   1.823  51.552  1.00  0.00    -0.242 NA
ENDROOT
BRANCH   1   7
HETATM    7  C5  UNL     1      26.361  -0.155  52.517  1.00  0.00     0.041 C 
HETATM    8  C4  UNL     1      27.336  -0.167  53.457  1.00  0.00    -0.025 C 
BRANCH   8   9
HETATM    9  C2  UNL     1      28.303  -1.250  53.241  1.00  0.00    -0.036 C 
HETATM   10  C1  UNL     1      29.607  -1.128  53.474  1.00  0.00     0.021 C 
BRANCH   9  11
HETATM   11  C3  UNL     1      27.873  -2.586  52.697  1.00  0.00     0.202 C 
BRANCH  11  12
HETATM   12  O1  UNL     1      28.608  -3.557  53.369  1.00  0.00    -0.396 OA
HETATM   13  H5  UNL     1      28.602  -4.384  52.833  1.00  0.00     0.209 HD
ENDBRANCH  11  12
ENDBRANCH   9  11
ENDBRANCH   8   9
BRANCH   8  14
HETATM   14  C16 UNL     1      27.223   0.862  54.488  1.00  0.00     0.206 C 
BRANCH  14  15
HETATM   15  O2  UNL     1      27.638   2.110  54.273  1.00  0.00    -0.391 OA
HETATM   16  C17 UNL     1      28.725   2.510  53.633  1.00  0.00     0.201 C 
ENDBRANCH  14  15
ENDBRANCH   8  14
ENDBRANCH   1   7
BRANCH   3  17
HETATM   17  N1  UNL     1      21.662   0.705  53.442  1.00  0.00    -0.341 N 
HETATM   18  H8  UNL     1      21.681   0.674  54.498  1.00  0.00     0.167 HD
BRANCH  17  19
HETATM   19  C9  UNL     1      20.440   0.274  52.881  1.00  0.00     0.036 A 
HETATM   20  C10 UNL     1      19.586  -0.589  53.575  1.00  0.00     0.029 A 
HETATM   21  C11 UNL     1      18.396  -1.004  53.034  1.00  0.00     0.005 A 
HETATM   22  C12 UNL     1      17.965  -0.609  51.791  1.00  0.00     0.042 A 
HETATM   23  C13 UNL     1      18.781   0.232  51.098  1.00  0.00     0.118 A 
HETATM   24  F1  UNL     1      18.369   0.635  49.873  1.00  0.00    -0.206 F 
HETATM   25  C14 UNL     1      19.975   0.645  51.650  1.00  0.00     0.071 A 
ENDBRANCH  17  19
ENDBRANCH   3  17
TORSDOF 8
ENDMDL
MODEL 3
REMARK VINA RESULT:      -7.8      1.558      2.161
REMARK  8 active torsions:
REMARK  status: ('A' for Active; 'I' for Inactive)
REMARK    1  A    between atoms: C2_2  and  C3_3 
REMARK    2  A    between atoms: C2_2  and  C4_5 
REMARK    3  A    between atoms: C3_3  and  O1_4 
REMARK    4  A    between atoms: C4_5  and  C16_21 
REMARK    5  A    between atoms: C5_6  and  C6_7 
REMARK    6  A    between atoms: C8_9  and  N1_10 
REMARK    7  A    between atoms: N1_10  and  C9_11 
REMARK    8  A    between atoms: C16_21  and  O2_22 
ROOT
HETATM    1  C6  UNL     1      24.888   0.219  52.744  1.00  0.00     0.062 A 
HETATM    2  C7  UNL     1      24.650   1.148  51.736  1.00  0.00     0.082 A 
HETATM    3  C8  UNL     1      23.489   1.853  51.534  1.00  0.00     0.131 A 
HETATM    4  N2  UNL     1      22.526   1.589  52.413  1.00  0.00    -0.224 NA
HETATM    5  C15 UNL     1      22.696   0.708  53.400  1.00  0.00     0.235 A 
HETATM    6  N3  UNL     1      23.839   0.039  53.570  1.00  0.00    -0.242 NA
ENDROOT
BRANCH   1   7
HETATM    7  C5  UNL     1      26.164  -0.483  52.847  1.00  0.00     0.041 C 
HETATM    8  C4  UNL     1      27.274  -0.275  53.595  1.00  0.00    -0.025 C 
BRANCH   8   9
HETATM    9  C2  UNL     1      28.316  -1.276  53.334  1.00  0.00    -0.036 C 
HETATM   10  C1  UNL     1      29.604  -1.082  53.601  1.00  0.00     0.021 C 
BRANCH   9  11
HETATM   11  C3  UNL     1      27.987  -2.601  52.701  1.00  0.00     0.202 C 
BRANCH  11  12
HETATM   12  O1  UNL     1      28.650  -3.580  53.433  1.00  0.00    -0.396 OA
HETATM   13  H5  UNL     1      29.612  -3.367  53.446  1.00  0.00     0.209 HD
ENDBRANCH  11  12
ENDBRANCH   9  11
ENDBRANCH   8   9
BRANCH   8  14
HETATM   14  C16 UNL     1      27.209   0.865  54.506  1.00  0.00     0.206 C 
BRANCH  14  15
HETATM   15  O2  UNL     1      27.572   2.087  54.118  1.00  0.00    -0.391 OA
HETATM   16  C17 UNL     1      28.726   2.467  53.591  1.00  0.00     0.201 C 
ENDBRANCH  14  15
ENDBRANCH   8  14
ENDBRANCH   1   7
BRANCH   3  17
HETATM   17  N1  UNL     1      23.443   2.761  50.449  1.00  0.00    -0.341 N 
HETATM   18  H8  UNL     1      22.666   2.651  49.740  1.00  0.00     0.167 HD
BRANCH  17  19
HETATM   19  C9  UNL     1      24.319   3.833  50.173  1.00  0.00     0.036 A 
HETATM   20  C10 UNL     1      24.059   5.124  50.645  1.00  0.00     0.029 A 
HETATM   21  C11 UNL     1      24.912   6.165  50.383  1.00  0.00     0.005 A 
HETATM   22  C12 UNL     1      26.063   6.018  49.649  1.00  0.00     0.042 A 
HETATM   23  C13 UNL     1      26.337   4.769  49.181  1.00  0.00     0.118 A 
HETATM   24  F1  UNL     1      27.470   4.606  48.459  1.00  0.00    -0.206 F 
HETATM   25  C14 UNL     1      25.474   3.728  49.449  1.00  0.00     0.071 A 
ENDBRANCH  17  19
ENDBRANCH   3  17
TORSDOF 8
ENDMDL
MODEL 4
REMARK VINA RESULT:      -7.7      3.718      6.043
REMARK  8 active torsions:
REMARK  status: ('A' for Active; 'I' for Inactive)
REMARK    1  A    between atoms: C2_2  and  C3_3 
REMARK    2  A    between atoms: C2_2  and  C4_5 
REMARK    3  A    between atoms: C3_3  and  O1_4 
REMARK    4  A    between atoms: C4_5  and  C16_21 
REMARK    5  A    between atoms: C5_6  and  C6_7 
REMARK    6  A    between atoms: C8_9  and  N1_10 
REMARK    7  A    between atoms: N1_10  and  C9_11 
REMARK    8  A    between atoms: C16_21  and  O2_22 
ROOT
HETATM    1  C6  UNL     1      25.927   1.221  51.710  1.00  0.00     0.062 A 
HETATM    2  C7  UNL     1      24.556   1.060  51.886  1.00  0.00     0.082 A 
HETATM    3  C8  UNL     1      23.580   1.970  51.564  1.00  0.00     0.131 A 
HETATM    4  N2  UNL     1      24.037   3.100  51.032  1.00  0.00    -0.224 NA
HETATM    5  C15 UNL     1      25.340   3.310  50.838  1.00  0.00     0.235 A 
HETATM    6  N3  UNL     1      26.265   2.404  51.164  1.00  0.00    -0.242 NA
ENDROOT
BRANCH   1   7
HETATM    7  C5  UNL     1      26.873   0.183  52.111  1.00  0.00     0.041 C 
HETATM    8  C4  UNL     1      27.548  -0.056  53.261  1.00  0.00    -0.025 C 
BRANCH   8   9
HETATM    9  C2  UNL     1      28.398  -1.250  53.168  1.00  0.00    -0.036 C 
HETATM   10  C1  UNL     1      29.702  -1.245  53.433  1.00  0.00     0.021 C 
BRANCH   9  11
HETATM   11  C3  UNL     1      27.841  -2.575  52.723  1.00  0.00     0.202 C 
BRANCH  11  12
HETATM   12  O1  UNL     1      28.560  -3.564  53.386  1.00  0.00    -0.396 OA
HETATM   13  H5  UNL     1      29.273  -3.136  53.913  1.00  0.00     0.209 HD
ENDBRANCH  11  12
ENDBRANCH   9  11
ENDBRANCH   8   9
BRANCH   8  14
HETATM   14  C16 UNL     1      27.287   0.885  54.346  1.00  0.00     0.206 C 
BRANCH  14  15
HETATM   15  O2  UNL     1      27.955   2.034  54.446  1.00  0.00    -0.391 OA
HETATM   16  C17 UNL     1      28.903   2.500  53.648  1.00  0.00     0.201 C 
ENDBRANCH  14  15
ENDBRANCH   8  14
ENDBRANCH   1   7
BRANCH   3  17
HETATM   17  N1  UNL     1      22.233   1.617  51.818  1.00  0.00    -0.341 N 
HETATM   18  H8  UNL     1      21.475   2.133  51.290  1.00  0.00     0.167 HD
BRANCH  17  19
HETATM   19  C9  UNL     1      21.742   0.637  52.707  1.00  0.00     0.036 A 
HETATM   20  C10 UNL     1      20.430   0.161  52.613  1.00  0.00     0.029 A 
HETATM   21  C11 UNL     1      19.954  -0.795  53.473  1.00  0.00     0.005 A 
HETATM   22  C12 UNL     1      20.719  -1.345  54.472  1.00  0.00     0.042 A 
HETATM   23  C13 UNL     1      22.000  -0.898  54.581  1.00  0.00     0.118 A 
HETATM   24  F1  UNL     1      22.769  -1.433  55.558  1.00  0.00    -0.206 F 
HETATM   25  C14 UNL     1      22.470   0.064  53.713  1.00  0.00     0.071 A 
ENDBRANCH  17  19
ENDBRANCH   3  17
TORSDOF 8
ENDMDL
MODEL 5
REMARK VINA RESULT:      -7.7      3.575      4.596
REMARK  8 active torsions:
REMARK  status: ('A' for Active; 'I' for Inactive)
REMARK    1  A    between atoms: C2_2  and  C3_3 
REMARK    2  A    between atoms: C2_2  and  C4_5 
REMARK    3  A    between atoms: C3_3  and  O1_4 
REMARK    4  A    between atoms: C4_5  and  C16_21 
REMARK    5  A    between atoms: C5_6  and  C6_7 
REMARK    6  A    between atoms: C8_9  and  N1_10 
REMARK    7  A    between atoms: N1_10  and  C9_11 
REMARK    8  A    between atoms: C16_21  and  O2_22 
ROOT
HETATM    1  C6  UNL     1      24.208  -0.615  53.823  1.00  0.00     0.062 A 
HETATM    2  C7  UNL     1      23.543   0.334  53.054  1.00  0.00     0.082 A 
HETATM    3  C8  UNL     1      22.244   0.748  53.213  1.00  0.00     0.131 A 
HETATM    4  N2  UNL     1      21.597   0.155  54.213  1.00  0.00    -0.224 NA
HETATM    5  C15 UNL     1      22.183  -0.762  54.984  1.00  0.00     0.235 A 
HETATM    6  N3  UNL     1      23.450  -1.143  54.803  1.00  0.00    -0.242 NA
ENDROOT
BRANCH   1   7
HETATM    7  C5  UNL     1      25.593  -0.987  53.545  1.00  0.00     0.041 C 
HETATM    8  C4  UNL     1      26.781  -0.407  53.839  1.00  0.00    -0.025 C 
BRANCH   8   9
HETATM    9  C2  UNL     1      27.919  -1.183  53.331  1.00  0.00    -0.036 C 
HETATM   10  C1  UNL     1      29.181  -0.769  53.404  1.00  0.00     0.021 C 
BRANCH   9  11
HETATM   11  C3  UNL     1      27.720  -2.510  52.650  1.00  0.00     0.202 C 
BRANCH  11  12
HETATM   12  O1  UNL     1      28.503  -3.439  53.328  1.00  0.00    -0.396 OA
HETATM   13  H5  UNL     1      28.100  -3.606  54.212  1.00  0.00     0.209 HD
ENDBRANCH  11  12
ENDBRANCH   9  11
ENDBRANCH   8   9
BRANCH   8  14
HETATM   14  C16 UNL     1      26.698   0.835  54.603  1.00  0.00     0.206 C 
BRANCH  14  15
HETATM   15  O2  UNL     1      26.988   2.012  54.050  1.00  0.00    -0.391 OA
HETATM   16  C17 UNL     1      27.168   2.290  52.768  1.00  0.00     0.201 C 
ENDBRANCH  14  15
ENDBRANCH   8  14
ENDBRANCH   1   7
BRANCH   3  17
HETATM   17  N1  UNL     1      21.747   1.734  52.326  1.00  0.00    -0.341 N 
HETATM   18  H8  UNL     1      21.150   2.509  52.728  1.00  0.00     0.167 HD
BRANCH  17  19
HETATM   19  C9  UNL     1      21.947   1.831  50.933  1.00  0.00     0.036 A 
HETATM   20  C10 UNL     1      21.324   0.948  50.045  1.00  0.00     0.029 A 
HETATM   21  C11 UNL     1      21.513   1.045  48.690  1.00  0.00     0.005 A 
HETATM   22  C12 UNL     1      22.315   2.001  48.117  1.00  0.00     0.042 A 
HETATM   23  C13 UNL     1      22.930   2.873  48.962  1.00  0.00     0.118 A 
HETATM   24  F1  UNL     1      23.721   3.825  48.413  1.00  0.00    -0.206 F 
HETATM   25  C14 UNL     1      22.735   2.768  50.323  1.00  0.00     0.071 A 
ENDBRANCH  17  19
ENDBRANCH   3  17
TORSDOF 8
ENDMDL
MODEL 6
REMARK VINA RESULT:      -7.5      5.288      7.635
REMARK  8 active torsions:
REMARK  status: ('A' for Active; 'I' for Inactive)
REMARK    1  A    between atoms: C2_2  and  C3_3 
REMARK    2  A    between atoms: C2_2  and  C4_5 
REMARK    3  A    between atoms: C3_3  and  O1_4 
REMARK    4  A    between atoms: C4_5  and  C16_21 
REMARK    5  A    between atoms: C5_6  and  C6_7 
REMARK    6  A    between atoms: C8_9  and  N1_10 
REMARK    7  A    between atoms: N1_10  and  C9_11 
REMARK    8  A    between atoms: C16_21  and  O2_22 
ROOT
HETATM    1  C6  UNL     1      22.118  -1.098  54.066  1.00  0.00     0.062 A 
HETATM    2  C7  UNL     1      23.239  -0.682  53.356  1.00  0.00     0.082 A 
HETATM    3  C8  UNL     1      24.535  -0.670  53.810  1.00  0.00     0.131 A 
HETATM    4  N2  UNL     1      24.684  -1.109  55.057  1.00  0.00    -0.224 NA
HETATM    5  C15 UNL     1      23.646  -1.522  55.786  1.00  0.00     0.235 A 
HETATM    6  N3  UNL     1      22.397  -1.521  55.314  1.00  0.00    -0.242 NA
ENDROOT
BRANCH   1   7
HETATM    7  C5  UNL     1      20.782  -1.048  53.479  1.00  0.00     0.041 C 
HETATM    8  C4  UNL     1      19.939  -0.028  53.189  1.00  0.00    -0.025 C 
BRANCH   8   9
HETATM    9  C2  UNL     1      18.682  -0.498  52.594  1.00  0.00    -0.036 C 
HETATM   10  C1  UNL     1      18.189  -0.028  51.451  1.00  0.00     0.021 C 
BRANCH   9  11
HETATM   11  C3  UNL     1      17.835  -1.539  53.274  1.00  0.00     0.202 C 
BRANCH  11  12
HETATM   12  O1  UNL     1      16.619  -0.940  53.584  1.00  0.00    -0.396 OA
HETATM   13  H5  UNL     1      16.393  -0.298  52.871  1.00  0.00     0.209 HD
ENDBRANCH  11  12
ENDBRANCH   9  11
ENDBRANCH   8   9
BRANCH   8  14
HETATM   14  C16 UNL     1      20.444   1.307  53.497  1.00  0.00     0.206 C 
BRANCH  14  15
HETATM   15  O2  UNL     1      21.101   2.029  52.590  1.00  0.00    -0.391 OA
HETATM   16  C17 UNL     1      20.658   3.064  51.894  1.00  0.00     0.201 C 
ENDBRANCH  14  15
ENDBRANCH   8  14
ENDBRANCH   1   7
BRANCH   3  17
HETATM   17  N1  UNL     1      25.544  -0.211  52.930  1.00  0.00    -0.341 N 
HETATM   18  H8  UNL     1      25.249   0.156  51.983  1.00  0.00     0.167 HD
BRANCH  17  19
HETATM   19  C9  UNL     1      26.937  -0.170  53.149  1.00  0.00     0.036 A 
HETATM   20  C10 UNL     1      27.600   1.038  53.395  1.00  0.00     0.029 A 
HETATM   21  C11 UNL     1      28.953   1.078  53.613  1.00  0.00     0.005 A 
HETATM   22  C12 UNL     1      29.742  -0.045  53.605  1.00  0.00     0.042 A 
HETATM   23  C13 UNL     1      29.118  -1.232  53.369  1.00  0.00     0.118 A 
HETATM   24  F1  UNL     1      29.882  -2.350  53.363  1.00  0.00    -0.206 F 
HETATM   25  C14 UNL     1      27.758  -1.264  53.150  1.00  0.00     0.071 A 
ENDBRANCH  17  19
ENDBRANCH   3  17
TORSDOF 8
ENDMDL
MODEL 7
REMARK VINA RESULT:      -7.4      1.950      2.409
REMARK  8 active torsions:
REMARK  status: ('A' for Active; 'I' for Inactive)
REMARK    1  A    between atoms: C2_2  and  C3_3 
REMARK    2  A    between atoms: C2_2  and  C4_5 
REMARK    3  A    between atoms: C3_3  and  O1_4 
REMARK    4  A    between atoms: C4_5  and  C16_21 
REMARK    5  A    between atoms: C5_6  and  C6_7 
REMARK    6  A    between atoms: C8_9  and  N1_10 
REMARK    7  A    between atoms: N1_10  and  C9_11 
REMARK    8  A    between atoms: C16_21  and  O2_22 
ROOT
HETATM    1  C6  UNL     1      26.042   1.231  51.600  1.00  0.00     0.062 A 
HETATM    2  C7  UNL     1      26.522   2.343  50.917  1.00  0.00     0.082 A 
HETATM    3  C8  UNL     1      25.774   3.384  50.427  1.00  0.00     0.131 A 
HETATM    4  N2  UNL     1      24.468   3.276  50.652  1.00  0.00    -0.224 NA
HETATM    5  C15 UNL     1      23.950   2.233  51.302  1.00  0.00     0.235 A 
HETATM    6  N3  UNL     1      24.706   1.235  51.767  1.00  0.00    -0.242 NA
ENDROOT
BRANCH   1   7
HETATM    7  C5  UNL     1      26.939   0.173  52.060  1.00  0.00     0.041 C 
HETATM    8  C4  UNL     1      27.571  -0.055  53.236  1.00  0.00    -0.025 C 
BRANCH   8   9
HETATM    9  C2  UNL     1      28.380  -1.279  53.205  1.00  0.00    -0.036 C 
HETATM   10  C1  UNL     1      29.672  -1.314  53.518  1.00  0.00     0.021 C 
BRANCH   9  11
HETATM   11  C3  UNL     1      27.791  -2.595  52.772  1.00  0.00     0.202 C 
BRANCH  11  12
HETATM   12  O1  UNL     1      28.543  -3.598  53.374  1.00  0.00    -0.396 OA
HETATM   13  H5  UNL     1      28.069  -4.455  53.267  1.00  0.00     0.209 HD
ENDBRANCH  11  12
ENDBRANCH   9  11
ENDBRANCH   8   9
BRANCH   8  14
HETATM   14  C16 UNL     1      27.312   0.928  54.285  1.00  0.00     0.206 C 
BRANCH  14  15
HETATM   15  O2  UNL     1      28.157   1.930  54.523  1.00  0.00    -0.391 OA
HETATM   16  C17 UNL     1      28.985   2.519  53.675  1.00  0.00     0.201 C 
ENDBRANCH  14  15
ENDBRANCH   8  14
ENDBRANCH   1   7
BRANCH   3  17
HETATM   17  N1  UNL     1      26.452   4.433  49.759  1.00  0.00    -0.341 N 
HETATM   18  H8  UNL     1      27.404   4.227  49.347  1.00  0.00     0.167 HD
BRANCH  17  19
HETATM   19  C9  UNL     1      26.017   5.760  49.556  1.00  0.00     0.036 A 
HETATM   20  C10 UNL     1      26.407   6.489  48.427  1.00  0.00     0.029 A 
HETATM   21  C11 UNL     1      25.981   7.776  48.226  1.00  0.00     0.005 A 
HETATM   22  C12 UNL     1      25.155   8.433  49.104  1.00  0.00     0.042 A 
HETATM   23  C13 UNL     1      24.761   7.742  50.209  1.00  0.00     0.118 A 
HETATM   24  F1  UNL     1      23.942   8.373  51.083  1.00  0.00    -0.206 F 
HETATM   25  C14 UNL     1      25.194   6.448  50.404  1.00  0.00     0.071 A 
ENDBRANCH  17  19
ENDBRANCH   3  17
TORSDOF 8
ENDMDL
MODEL 8
REMARK VINA RESULT:      -7.4      3.314      7.182
REMARK  8 active torsions:
REMARK  status: ('A' for Active; 'I' for Inactive)
REMARK    1  A    between atoms: C2_2  and  C3_3 
REMARK    2  A    between atoms: C2_2  and  C4_5 
REMARK    3  A    between atoms: C3_3  and  O1_4 
REMARK    4  A    between atoms: C4_5  and  C16_21 
REMARK    5  A    between atoms: C5_6  and  C6_7 
REMARK    6  A    between atoms: C8_9  and  N1_10 
REMARK    7  A    between atoms: N1_10  and  C9_11 
REMARK    8  A    between atoms: C16_21  and  O2_22 
ROOT
HETATM    1  C6  UNL     1      25.630   3.163  50.387  1.00  0.00     0.062 A 
HETATM    2  C7  UNL     1      26.144   2.451  51.466  1.00  0.00     0.082 A 
HETATM    3  C8  UNL     1      25.466   1.540  52.238  1.00  0.00     0.131 A 
HETATM    4  N2  UNL     1      24.199   1.353  51.882  1.00  0.00    -0.224 NA
HETATM    5  C15 UNL     1      23.652   2.007  50.856  1.00  0.00     0.235 A 
HETATM    6  N3  UNL     1      24.339   2.887  50.124  1.00  0.00    -0.242 NA
ENDROOT
BRANCH   1   7
HETATM    7  C5  UNL     1      26.448   4.123  49.650  1.00  0.00     0.041 C 
HETATM    8  C4  UNL     1      26.197   5.357  49.150  1.00  0.00    -0.025 C 
BRANCH   8   9
HETATM    9  C2  UNL     1      27.367   5.931  48.474  1.00  0.00    -0.036 C 
HETATM   10  C1  UNL     1      27.391   7.158  47.961  1.00  0.00     0.021 C 
BRANCH   9  11
HETATM   11  C3  UNL     1      28.630   5.135  48.284  1.00  0.00     0.202 C 
BRANCH  11  12
HETATM   12  O1  UNL     1      29.596   5.696  49.113  1.00  0.00    -0.396 OA
HETATM   13  H5  UNL     1      30.476   5.606  48.678  1.00  0.00     0.209 HD
ENDBRANCH  11  12
ENDBRANCH   9  11
ENDBRANCH   8   9
BRANCH   8  14
HETATM   14  C16 UNL     1      24.852   5.869  49.394  1.00  0.00     0.206 C 
BRANCH  14  15
HETATM   15  O2  UNL     1      24.580   6.633  50.452  1.00  0.00    -0.391 OA
HETATM   16  C17 UNL     1      24.588   7.955  50.527  1.00  0.00     0.201 C 
ENDBRANCH  14  15
ENDBRANCH   8  14
ENDBRANCH   1   7
BRANCH   3  17
HETATM   17  N1  UNL     1      26.168   0.913  53.296  1.00  0.00    -0.341 N 
HETATM   18  H8  UNL     1      26.013   1.272  54.278  1.00  0.00     0.167 HD
BRANCH  17  19
HETATM   19  C9  UNL     1      27.076  -0.165  53.219  1.00  0.00     0.036 A 
HETATM   20  C10 UNL     1      26.673  -1.424  52.761  1.00  0.00     0.029 A 
HETATM   21  C11 UNL     1      27.556  -2.470  52.681  1.00  0.00     0.005 A 
HETATM   22  C12 UNL     1      28.876  -2.360  53.040  1.00  0.00     0.042 A 
HETATM   23  C13 UNL     1      29.291  -1.143  53.487  1.00  0.00     0.118 A 
HETATM   24  F1  UNL     1      30.591  -1.016  53.841  1.00  0.00    -0.206 F 
HETATM   25  C14 UNL     1      28.398  -0.097  53.565  1.00  0.00     0.071 A 
ENDBRANCH  17  19
ENDBRANCH   3  17
TORSDOF 8
ENDMDL
MODEL 9
REMARK VINA RESULT:      -7.2      3.321      4.975
REMARK  8 active torsions:
REMARK  status: ('A' for Active; 'I' for Inactive)
REMARK    1  A    between atoms: C2_2  and  C3_3 
REMARK    2  A    between atoms: C2_2  and  C4_5 
REMARK    3  A    between atoms: C3_3  and  O1_4 
REMARK    4  A    between atoms: C4_5  and  C16_21 
REMARK    5  A    between atoms: C5_6  and  C6_7 
REMARK    6  A    between atoms: C8_9  and  N1_10 
REMARK    7  A    between atoms: N1_10  and  C9_11 
REMARK    8  A    between atoms: C16_21  and  O2_22 
ROOT
HETATM    1  C6  UNL     1      24.837  -0.260  54.151  1.00  0.00     0.062 A 
HETATM    2  C7  UNL     1      24.007   0.564  53.398  1.00  0.00     0.082 A 
HETATM    3  C8  UNL     1      22.635   0.523  53.360  1.00  0.00     0.131 A 
HETATM    4  N2  UNL     1      22.091  -0.411  54.136  1.00  0.00    -0.224 NA
HETATM    5  C15 UNL     1      22.836  -1.228  54.880  1.00  0.00     0.235 A 
HETATM    6  N3  UNL     1      24.170  -1.163  54.895  1.00  0.00    -0.242 NA
ENDROOT
BRANCH   1   7
HETATM    7  C5  UNL     1      26.291  -0.132  54.095  1.00  0.00     0.041 C 
HETATM    8  C4  UNL     1      27.145   0.278  53.127  1.00  0.00    -0.025 C 
BRANCH   8   9
HETATM    9  C2  UNL     1      28.546   0.226  53.563  1.00  0.00    -0.036 C 
HETATM   10  C1  UNL     1      29.304  -0.863  53.470  1.00  0.00     0.021 C 
BRANCH   9  11
HETATM   11  C3  UNL     1      29.216   1.419  54.189  1.00  0.00     0.202 C 
BRANCH  11  12
HETATM   12  O1  UNL     1      29.181   2.446  53.253  1.00  0.00    -0.396 OA
HETATM   13  H5  UNL     1      29.765   2.203  52.497  1.00  0.00     0.209 HD
ENDBRANCH  11  12
ENDBRANCH   9  11
ENDBRANCH   8   9
BRANCH   8  14
HETATM   14  C16 UNL     1      26.517   0.701  51.879  1.00  0.00     0.206 C 
BRANCH  14  15
HETATM   15  O2  UNL     1      27.013   1.706  51.156  1.00  0.00    -0.391 OA
HETATM   16  C17 UNL     1      26.486   2.903  50.954  1.00  0.00     0.201 C 
ENDBRANCH  14  15
ENDBRANCH   8  14
ENDBRANCH   1   7
BRANCH   3  17
HETATM   17  N1  UNL     1      21.965   1.453  52.528  1.00  0.00    -0.341 N 
HETATM   18  H8  UNL     1      21.299   2.137  52.982  1.00  0.00     0.167 HD
BRANCH  17  19
HETATM   19  C9  UNL     1      22.069   1.602  51.129  1.00  0.00     0.036 A 
HETATM   20  C10 UNL     1      21.330   0.797  50.255  1.00  0.00     0.029 A 
HETATM   21  C11 UNL     1      21.426   0.944  48.895  1.00  0.00     0.005 A 
HETATM   22  C12 UNL     1      22.242   1.876  48.302  1.00  0.00     0.042 A 
HETATM   23  C13 UNL     1      22.970   2.671  49.134  1.00  0.00     0.118 A 
HETATM   24  F1  UNL     1      23.776   3.598  48.566  1.00  0.00    -0.206 F 
HETATM   25  C14 UNL     1      22.868   2.516  50.499  1.00  0.00     0.071 A 
ENDBRANCH  17  19
ENDBRANCH   3  17
TORSDOF 8
ENDMDL
