MODEL 1
REMARK VINA RESULT:      -8.5      0.000      0.000
REMARK  2 active torsions:
REMARK  status: ('A' for Active; 'I' for Inactive)
REMARK    1  A    between atoms: C7_8  and  N2_9 
REMARK    2  A    between atoms: N2_9  and  C8_10 
ROOT
HETATM    1  C1  UNL     1      29.199   6.641  47.680  1.00  0.00     0.026 C 
HETATM    2  C2  UNL     1      28.059   6.253  48.228  1.00  0.00    -0.003 A 
HETATM    3  C3  UNL     1      27.703   4.896  48.620  1.00  0.00     0.025 A 
HETATM    4  C4  UNL     1      26.461   4.848  49.150  1.00  0.00    -0.000 A 
HETATM    5  C5  UNL     1      25.657   3.740  49.685  1.00  0.00     0.191 C 
HETATM    6  N1  UNL     1      24.388   3.524  49.047  1.00  0.00    -0.279 NA
HETATM    7  C6  UNL     1      23.311   3.709  49.694  1.00  0.00     0.129 C 
HETATM    8  C7  UNL     1      23.454   3.862  50.982  1.00  0.00     0.160 C 
HETATM    9  N3  UNL     1      24.187   5.113  50.977  1.00  0.00    -0.222 NA
HETATM   10  C14 UNL     1      23.361   6.127  51.117  1.00  0.00     0.237 C 
HETATM   11  N4  UNL     1      23.737   7.519  51.156  1.00  0.00    -0.230 NA
HETATM   12  C15 UNL     1      24.576   7.902  50.221  1.00  0.00     0.260 C 
HETATM   13  O1  UNL     1      24.747   6.684  49.544  1.00  0.00    -0.300 OA
HETATM   14  C16 UNL     1      25.974   6.218  49.112  1.00  0.00     0.124 A 
HETATM   15  C17 UNL     1      26.879   7.030  48.587  1.00  0.00     0.160 A 
HETATM   16  F1  UNL     1      26.883   8.377  48.345  1.00  0.00    -0.202 F 
ENDROOT
BRANCH   8  17
HETATM   17  N2  UNL     1      23.126   3.216  52.208  1.00  0.00    -0.339 N 
HETATM   18  H6  UNL     1      22.486   3.800  52.795  1.00  0.00     0.167 HD
BRANCH  17  19
HETATM   19  C8  UNL     1      23.553   1.946  52.682  1.00  0.00     0.035 A 
HETATM   20  C9  UNL     1      24.876   1.575  52.646  1.00  0.00     0.029 A 
HETATM   21  C10 UNL     1      25.219   0.333  53.121  1.00  0.00     0.004 A 
HETATM   22  C11 UNL     1      24.314  -0.568  53.631  1.00  0.00     0.019 A 
HETATM   23  C12 UNL     1      22.988  -0.188  53.663  1.00  0.00     0.013 A 
HETATM   24 BR1  UNL     1      21.688  -1.412  54.367  1.00  0.00    -0.051 Br
HETATM   25  C13 UNL     1      22.628   1.057  53.191  1.00  0.00     0.048 A 
ENDBRANCH  17  19
ENDBRANCH   8  17
TORSDOF 2
ENDMDL
MODEL 2
REMARK VINA RESULT:      -8.5      4.132      7.727
REMARK  2 active torsions:
REMARK  status: ('A' for Active; 'I' for Inactive)
REMARK    1  A    between atoms: C7_8  and  N2_9 
REMARK    2  A    between atoms: N2_9  and  C8_10 
ROOT
HETATM    1  C1  UNL     1      22.485  -1.290  55.003  1.00  0.00     0.026 C 
HETATM    2  C2  UNL     1      23.030  -0.459  54.128  1.00  0.00    -0.003 A 
HETATM    3  C3  UNL     1      22.380   0.675  53.488  1.00  0.00     0.025 A 
HETATM    4  C4  UNL     1      23.222   1.315  52.648  1.00  0.00    -0.000 A 
HETATM    5  C5  UNL     1      23.053   2.491  51.783  1.00  0.00     0.191 C 
HETATM    6  N1  UNL     1      23.299   2.279  50.383  1.00  0.00    -0.279 NA
HETATM    7  C6  UNL     1      24.277   2.858  49.815  1.00  0.00     0.129 C 
HETATM    8  C7  UNL     1      24.850   3.799  50.513  1.00  0.00     0.160 C 
HETATM    9  N3  UNL     1      25.384   2.983  51.588  1.00  0.00    -0.222 NA
HETATM   10  C14 UNL     1      26.629   2.647  51.329  1.00  0.00     0.237 C 
HETATM   11  N4  UNL     1      27.475   1.839  52.174  1.00  0.00    -0.230 NA
HETATM   12  C15 UNL     1      26.924   0.741  52.637  1.00  0.00     0.260 C 
HETATM   13  O1  UNL     1      25.651   0.851  52.055  1.00  0.00    -0.300 OA
HETATM   14  C16 UNL     1      24.477   0.583  52.732  1.00  0.00     0.124 A 
HETATM   15  C17 UNL     1      24.379  -0.433  53.575  1.00  0.00     0.160 A 
HETATM   16  F1  UNL     1      25.271  -1.388  53.979  1.00  0.00    -0.202 F 
ENDROOT
BRANCH   8  17
HETATM   17  N2  UNL     1      25.058   5.208  50.498  1.00  0.00    -0.339 N 
HETATM   18  H6  UNL     1      24.420   5.701  51.164  1.00  0.00     0.167 HD
BRANCH  17  19
HETATM   19  C8  UNL     1      25.982   5.958  49.721  1.00  0.00     0.035 A 
HETATM   20  C9  UNL     1      26.911   5.340  48.918  1.00  0.00     0.029 A 
HETATM   21  C10 UNL     1      27.773   6.126  48.193  1.00  0.00     0.004 A 
HETATM   22  C11 UNL     1      27.764   7.500  48.223  1.00  0.00     0.019 A 
HETATM   23  C12 UNL     1      26.829   8.112  49.031  1.00  0.00     0.013 A 
HETATM   24 BR1  UNL     1      26.778  10.029  49.106  1.00  0.00    -0.051 Br
HETATM   25  C13 UNL     1      25.956   7.336  49.765  1.00  0.00     0.048 A 
ENDBRANCH  17  19
ENDBRANCH   8  17
TORSDOF 2
ENDMDL
MODEL 3
REMARK VINA RESULT:      -8.3      4.119      7.788
REMARK  2 active torsions:
REMARK  status: ('A' for Active; 'I' for Inactive)
REMARK    1  A    between atoms: C7_8  and  N2_9 
REMARK    2  A    between atoms: N2_9  and  C8_10 
ROOT
HETATM    1  C1  UNL     1      21.445  -1.950  54.569  1.00  0.00     0.026 C 
HETATM    2  C2  UNL     1      21.887  -0.941  53.835  1.00  0.00    -0.003 A 
HETATM    3  C3  UNL     1      23.215  -0.346  53.889  1.00  0.00     0.025 A 
HETATM    4  C4  UNL     1      23.335   0.667  53.003  1.00  0.00    -0.000 A 
HETATM    5  C5  UNL     1      24.450   1.567  52.677  1.00  0.00     0.191 C 
HETATM    6  N1  UNL     1      24.189   2.971  52.838  1.00  0.00    -0.279 NA
HETATM    7  C6  UNL     1      24.177   3.736  51.824  1.00  0.00     0.129 C 
HETATM    8  C7  UNL     1      24.643   3.211  50.724  1.00  0.00     0.160 C 
HETATM    9  N3  UNL     1      23.631   2.192  50.520  1.00  0.00    -0.222 NA
HETATM   10  C14 UNL     1      22.692   2.636  49.713  1.00  0.00     0.237 C 
HETATM   11  N4  UNL     1      21.529   1.896  49.287  1.00  0.00    -0.230 NA
HETATM   12  C15 UNL     1      20.878   1.273  50.242  1.00  0.00     0.260 C 
HETATM   13  O1  UNL     1      21.670   1.634  51.344  1.00  0.00    -0.300 OA
HETATM   14  C16 UNL     1      22.046   0.750  52.336  1.00  0.00     0.124 A 
HETATM   15  C17 UNL     1      21.209  -0.165  52.803  1.00  0.00     0.160 A 
HETATM   16  F1  UNL     1      19.912  -0.473  52.497  1.00  0.00    -0.202 F 
ENDROOT
BRANCH   8  17
HETATM   17  N2  UNL     1      25.724   3.357  49.809  1.00  0.00    -0.339 N 
HETATM   18  H6  UNL     1      26.162   2.436  49.576  1.00  0.00     0.167 HD
BRANCH  17  19
HETATM   19  C8  UNL     1      26.232   4.547  49.221  1.00  0.00     0.035 A 
HETATM   20  C9  UNL     1      25.415   5.622  48.959  1.00  0.00     0.029 A 
HETATM   21  C10 UNL     1      25.973   6.741  48.390  1.00  0.00     0.004 A 
HETATM   22  C11 UNL     1      27.304   6.852  48.065  1.00  0.00     0.019 A 
HETATM   23  C12 UNL     1      28.115   5.769  48.331  1.00  0.00     0.013 A 
HETATM   24 BR1  UNL     1      29.981   5.877  47.894  1.00  0.00    -0.051 Br
HETATM   25  C13 UNL     1      27.571   4.638  48.902  1.00  0.00     0.048 A 
ENDBRANCH  17  19
ENDBRANCH   8  17
TORSDOF 2
ENDMDL
MODEL 4
REMARK VINA RESULT:      -8.3      4.159      7.464
REMARK  2 active torsions:
REMARK  status: ('A' for Active; 'I' for Inactive)
REMARK    1  A    between atoms: C7_8  and  N2_9 
REMARK    2  A    between atoms: N2_9  and  C8_10 
ROOT
HETATM    1  C1  UNL     1      21.886  -1.752  54.198  1.00  0.00     0.026 C 
HETATM    2  C2  UNL     1      21.995  -0.530  53.699  1.00  0.00    -0.003 A 
HETATM    3  C3  UNL     1      23.223   0.126  53.274  1.00  0.00     0.025 A 
HETATM    4  C4  UNL     1      22.980   1.373  52.813  1.00  0.00    -0.000 A 
HETATM    5  C5  UNL     1      23.862   2.420  52.280  1.00  0.00     0.191 C 
HETATM    6  N1  UNL     1      23.838   3.675  52.979  1.00  0.00    -0.279 NA
HETATM    7  C6  UNL     1      23.395   4.716  52.402  1.00  0.00     0.129 C 
HETATM    8  C7  UNL     1      23.210   4.604  51.115  1.00  0.00     0.160 C 
HETATM    9  N3  UNL     1      22.145   3.619  51.129  1.00  0.00    -0.222 NA
HETATM   10  C14 UNL     1      20.973   4.214  51.077  1.00  0.00     0.237 C 
HETATM   11  N4  UNL     1      19.691   3.551  51.074  1.00  0.00    -0.230 NA
HETATM   12  C15 UNL     1      19.544   2.607  51.974  1.00  0.00     0.260 C 
HETATM   13  O1  UNL     1      20.804   2.669  52.591  1.00  0.00    -0.300 OA
HETATM   14  C16 UNL     1      21.541   1.553  52.934  1.00  0.00     0.124 A 
HETATM   15  C17 UNL     1      20.968   0.471  53.440  1.00  0.00     0.160 A 
HETATM   16  F1  UNL     1      19.667   0.167  53.735  1.00  0.00    -0.202 F 
ENDROOT
BRANCH   8  17
HETATM   17  N2  UNL     1      23.707   5.119  49.884  1.00  0.00    -0.339 N 
HETATM   18  H6  UNL     1      22.939   5.494  49.282  1.00  0.00     0.167 HD
BRANCH  17  19
HETATM   19  C8  UNL     1      25.051   5.169  49.424  1.00  0.00     0.035 A 
HETATM   20  C9  UNL     1      25.902   4.101  49.579  1.00  0.00     0.029 A 
HETATM   21  C10 UNL     1      27.188   4.218  49.110  1.00  0.00     0.004 A 
HETATM   22  C11 UNL     1      27.678   5.344  48.493  1.00  0.00     0.019 A 
HETATM   23  C12 UNL     1      26.818   6.411  48.342  1.00  0.00     0.013 A 
HETATM   24 BR1  UNL     1      27.456   8.006  47.486  1.00  0.00    -0.051 Br
HETATM   25  C13 UNL     1      25.523   6.309  48.807  1.00  0.00     0.048 A 
ENDBRANCH  17  19
ENDBRANCH   8  17
TORSDOF 2
ENDMDL
MODEL 5
REMARK VINA RESULT:      -7.8      4.192      7.631
REMARK  2 active torsions:
REMARK  status: ('A' for Active; 'I' for Inactive)
REMARK    1  A    between atoms: C7_8  and  N2_9 
REMARK    2  A    between atoms: N2_9  and  C8_10 
ROOT
HETATM    1  C1  UNL     1      22.415  -1.219  54.874  1.00  0.00     0.026 C 
HETATM    2  C2  UNL     1      23.030  -0.402  54.034  1.00  0.00    -0.003 A 
HETATM    3  C3  UNL     1      22.454   0.765  53.381  1.00  0.00     0.025 A 
HETATM    4  C4  UNL     1      23.357   1.378  52.586  1.00  0.00    -0.000 A 
HETATM    5  C5  UNL     1      23.273   2.570  51.730  1.00  0.00     0.191 C 
HETATM    6  N1  UNL     1      23.569   2.363  50.339  1.00  0.00    -0.279 NA
HETATM    7  C6  UNL     1      24.593   2.907  49.819  1.00  0.00     0.129 C 
HETATM    8  C7  UNL     1      25.174   3.816  50.553  1.00  0.00     0.160 C 
HETATM    9  N3  UNL     1      25.629   2.967  51.638  1.00  0.00    -0.222 NA
HETATM   10  C14 UNL     1      26.868   2.581  51.427  1.00  0.00     0.237 C 
HETATM   11  N4  UNL     1      27.644   1.730  52.297  1.00  0.00    -0.230 NA
HETATM   12  C15 UNL     1      27.030   0.651  52.722  1.00  0.00     0.260 C 
HETATM   13  O1  UNL     1      25.788   0.820  52.089  1.00  0.00    -0.300 OA
HETATM   14  C16 UNL     1      24.576   0.594  52.713  1.00  0.00     0.124 A 
HETATM   15  C17 UNL     1      24.401  -0.427  53.538  1.00  0.00     0.160 A 
HETATM   16  F1  UNL     1      25.236  -1.423  53.967  1.00  0.00    -0.202 F 
ENDROOT
BRANCH   8  17
HETATM   17  N2  UNL     1      25.440   5.214  50.564  1.00  0.00    -0.339 N 
HETATM   18  H6  UNL     1      26.362   5.431  51.008  1.00  0.00     0.167 HD
BRANCH  17  19
HETATM   19  C8  UNL     1      24.632   6.273  50.067  1.00  0.00     0.035 A 
HETATM   20  C9  UNL     1      23.624   6.821  50.823  1.00  0.00     0.029 A 
HETATM   21  C10 UNL     1      22.882   7.842  50.281  1.00  0.00     0.004 A 
HETATM   22  C11 UNL     1      23.089   8.352  49.021  1.00  0.00     0.019 A 
HETATM   23  C12 UNL     1      24.103   7.797  48.269  1.00  0.00     0.013 A 
HETATM   24 BR1  UNL     1      24.429   8.475  46.504  1.00  0.00    -0.051 Br
HETATM   25  C13 UNL     1      24.856   6.771  48.800  1.00  0.00     0.048 A 
ENDBRANCH  17  19
ENDBRANCH   8  17
TORSDOF 2
ENDMDL
MODEL 6
REMARK VINA RESULT:      -7.8      3.007      4.095
REMARK  2 active torsions:
REMARK  status: ('A' for Active; 'I' for Inactive)
REMARK    1  A    between atoms: C7_8  and  N2_9 
REMARK    2  A    between atoms: N2_9  and  C8_10 
ROOT
HETATM    1  C1  UNL     1      23.195   8.187  46.940  1.00  0.00     0.026 C 
HETATM    2  C2  UNL     1      23.631   7.132  47.611  1.00  0.00    -0.003 A 
HETATM    3  C3  UNL     1      24.911   7.007  48.293  1.00  0.00     0.025 A 
HETATM    4  C4  UNL     1      25.038   5.797  48.880  1.00  0.00    -0.000 A 
HETATM    5  C5  UNL     1      26.118   5.191  49.672  1.00  0.00     0.191 C 
HETATM    6  N1  UNL     1      26.662   3.966  49.155  1.00  0.00    -0.279 NA
HETATM    7  C6  UNL     1      26.513   2.881  49.799  1.00  0.00     0.129 C 
HETATM    8  C7  UNL     1      26.069   3.014  51.018  1.00  0.00     0.160 C 
HETATM    9  N3  UNL     1      24.748   3.534  50.718  1.00  0.00    -0.222 NA
HETATM   10  C14 UNL     1      23.870   2.556  50.682  1.00  0.00     0.237 C 
HETATM   11  N4  UNL     1      22.460   2.700  50.412  1.00  0.00    -0.230 NA
HETATM   12  C15 UNL     1      22.159   3.453  49.379  1.00  0.00     0.260 C 
HETATM   13  O1  UNL     1      23.452   3.812  48.963  1.00  0.00    -0.300 OA
HETATM   14  C16 UNL     1      23.802   5.092  48.580  1.00  0.00     0.124 A 
HETATM   15  C17 UNL     1      22.989   5.846  47.855  1.00  0.00     0.160 A 
HETATM   16  F1  UNL     1      21.741   5.627  47.338  1.00  0.00    -0.202 F 
ENDROOT
BRANCH   8  17
HETATM   17  N2  UNL     1      26.480   2.812  52.367  1.00  0.00    -0.339 N 
HETATM   18  H6  UNL     1      26.051   3.513  53.013  1.00  0.00     0.167 HD
BRANCH  17  19
HETATM   19  C8  UNL     1      27.358   1.821  52.885  1.00  0.00     0.035 A 
HETATM   20  C9  UNL     1      28.449   2.159  53.649  1.00  0.00     0.029 A 
HETATM   21  C10 UNL     1      29.255   1.151  54.119  1.00  0.00     0.004 A 
HETATM   22  C11 UNL     1      29.035  -0.183  53.868  1.00  0.00     0.019 A 
HETATM   23  C12 UNL     1      27.938  -0.514  53.101  1.00  0.00     0.013 A 
HETATM   24 BR1  UNL     1      27.590  -2.363  52.725  1.00  0.00    -0.051 Br
HETATM   25  C13 UNL     1      27.119   0.488  52.623  1.00  0.00     0.048 A 
ENDBRANCH  17  19
ENDBRANCH   8  17
TORSDOF 2
ENDMDL
MODEL 7
REMARK VINA RESULT:      -7.7      2.200      2.840
REMARK  2 active torsions:
REMARK  status: ('A' for Active; 'I' for Inactive)
REMARK    1  A    between atoms: C7_8  and  N2_9 
REMARK    2  A    between atoms: N2_9  and  C8_10 
ROOT
HETATM    1  C1  UNL     1      27.340   5.366  48.596  1.00  0.00     0.026 C 
HETATM    2  C2  UNL     1      26.151   4.956  49.008  1.00  0.00    -0.003 A 
HETATM    3  C3  UNL     1      25.838   3.666  49.606  1.00  0.00     0.025 A 
HETATM    4  C4  UNL     1      24.526   3.572  49.913  1.00  0.00    -0.000 A 
HETATM    5  C5  UNL     1      23.727   2.498  50.520  1.00  0.00     0.191 C 
HETATM    6  N1  UNL     1      22.626   2.015  49.733  1.00  0.00    -0.279 NA
HETATM    7  C6  UNL     1      21.433   2.191  50.132  1.00  0.00     0.129 C 
HETATM    8  C7  UNL     1      21.313   2.601  51.364  1.00  0.00     0.160 C 
HETATM    9  N3  UNL     1      21.929   3.907  51.225  1.00  0.00    -0.222 NA
HETATM   10  C14 UNL     1      21.011   4.823  51.007  1.00  0.00     0.237 C 
HETATM   11  N4  UNL     1      21.257   6.232  50.819  1.00  0.00    -0.230 NA
HETATM   12  C15 UNL     1      22.226   6.528  49.983  1.00  0.00     0.260 C 
HETATM   13  O1  UNL     1      22.624   5.233  49.615  1.00  0.00    -0.300 OA
HETATM   14  C16 UNL     1      23.945   4.842  49.507  1.00  0.00     0.124 A 
HETATM   15  C17 UNL     1      24.865   5.641  48.988  1.00  0.00     0.160 A 
HETATM   16  F1  UNL     1      24.805   6.909  48.476  1.00  0.00    -0.202 F 
ENDROOT
BRANCH   8  17
HETATM   17  N2  UNL     1      20.808   2.165  52.623  1.00  0.00    -0.339 N 
HETATM   18  H6  UNL     1      20.382   2.952  53.163  1.00  0.00     0.167 HD
BRANCH  17  19
HETATM   19  C8  UNL     1      20.827   0.857  53.179  1.00  0.00     0.035 A 
HETATM   20  C9  UNL     1      21.964   0.339  53.752  1.00  0.00     0.029 A 
HETATM   21  C10 UNL     1      21.911  -0.932  54.272  1.00  0.00     0.004 A 
HETATM   22  C11 UNL     1      20.785  -1.720  54.252  1.00  0.00     0.019 A 
HETATM   23  C12 UNL     1      19.649  -1.193  53.675  1.00  0.00     0.013 A 
HETATM   24 BR1  UNL     1      18.053  -2.256  53.624  1.00  0.00    -0.051 Br
HETATM   25  C13 UNL     1      19.686   0.082  53.150  1.00  0.00     0.048 A 
ENDBRANCH  17  19
ENDBRANCH   8  17
TORSDOF 2
ENDMDL
MODEL 8
REMARK VINA RESULT:      -7.7      3.197      4.023
REMARK  2 active torsions:
REMARK  status: ('A' for Active; 'I' for Inactive)
REMARK    1  A    between atoms: C7_8  and  N2_9 
REMARK    2  A    between atoms: N2_9  and  C8_10 
ROOT
HETATM    1  C1  UNL     1      21.879   3.659  45.486  1.00  0.00     0.026 C 
HETATM    2  C2  UNL     1      22.173   3.786  46.770  1.00  0.00    -0.003 A 
HETATM    3  C3  UNL     1      22.388   2.705  47.722  1.00  0.00     0.025 A 
HETATM    4  C4  UNL     1      22.670   3.184  48.953  1.00  0.00    -0.000 A 
HETATM    5  C5  UNL     1      22.961   2.517  50.230  1.00  0.00     0.191 C 
HETATM    6  N1  UNL     1      22.082   2.842  51.319  1.00  0.00    -0.279 NA
HETATM    7  C6  UNL     1      22.527   3.466  52.332  1.00  0.00     0.129 C 
HETATM    8  C7  UNL     1      23.826   3.558  52.402  1.00  0.00     0.160 C 
HETATM    9  N3  UNL     1      24.053   4.391  51.236  1.00  0.00    -0.222 NA
HETATM   10  C14 UNL     1      24.110   5.658  51.584  1.00  0.00     0.237 C 
HETATM   11  N4  UNL     1      24.323   6.768  50.687  1.00  0.00    -0.230 NA
HETATM   12  C15 UNL     1      23.594   6.757  49.595  1.00  0.00     0.260 C 
HETATM   13  O1  UNL     1      22.872   5.571  49.805  1.00  0.00    -0.300 OA
HETATM   14  C16 UNL     1      22.644   4.632  48.818  1.00  0.00     0.124 A 
HETATM   15  C17 UNL     1      22.360   4.988  47.574  1.00  0.00     0.160 A 
HETATM   16  F1  UNL     1      22.225   6.209  46.970  1.00  0.00    -0.202 F 
ENDROOT
BRANCH   8  17
HETATM   17  N2  UNL     1      24.918   3.121  53.206  1.00  0.00    -0.339 N 
HETATM   18  H6  UNL     1      25.274   3.884  53.825  1.00  0.00     0.167 HD
BRANCH  17  19
HETATM   19  C8  UNL     1      25.529   1.838  53.246  1.00  0.00     0.035 A 
HETATM   20  C9  UNL     1      24.796   0.689  53.066  1.00  0.00     0.029 A 
HETATM   21  C10 UNL     1      25.450  -0.517  53.117  1.00  0.00     0.004 A 
HETATM   22  C11 UNL     1      26.801  -0.646  53.339  1.00  0.00     0.019 A 
HETATM   23  C12 UNL     1      27.529   0.511  53.519  1.00  0.00     0.013 A 
HETATM   24 BR1  UNL     1      29.418   0.382  53.832  1.00  0.00    -0.051 Br
HETATM   25  C13 UNL     1      26.886   1.731  53.470  1.00  0.00     0.048 A 
ENDBRANCH  17  19
ENDBRANCH   8  17
TORSDOF 2
ENDMDL
MODEL 9
REMARK VINA RESULT:      -7.6      5.439      7.673
REMARK  2 active torsions:
REMARK  status: ('A' for Active; 'I' for Inactive)
REMARK    1  A    between atoms: C7_8  and  N2_9 
REMARK    2  A    between atoms: N2_9  and  C8_10 
ROOT
HETATM    1  C1  UNL     1      27.255   0.093  52.991  1.00  0.00     0.026 C 
HETATM    2  C2  UNL     1      25.937   0.217  53.001  1.00  0.00    -0.003 A 
HETATM    3  C3  UNL     1      25.121   0.879  51.993  1.00  0.00     0.025 A 
HETATM    4  C4  UNL     1      23.809   0.825  52.310  1.00  0.00    -0.000 A 
HETATM    5  C5  UNL     1      22.606   1.333  51.635  1.00  0.00     0.191 C 
HETATM    6  N1  UNL     1      21.801   2.248  52.396  1.00  0.00    -0.279 NA
HETATM    7  C6  UNL     1      20.626   1.919  52.749  1.00  0.00     0.129 C 
HETATM    8  C7  UNL     1      20.154   0.844  52.181  1.00  0.00     0.160 C 
HETATM    9  N3  UNL     1      21.073  -0.127  52.744  1.00  0.00    -0.222 NA
HETATM   10  C14 UNL     1      20.555  -0.672  53.824  1.00  0.00     0.237 C 
HETATM   11  N4  UNL     1      21.186  -1.677  54.644  1.00  0.00    -0.230 NA
HETATM   12  C15 UNL     1      22.438  -1.441  54.960  1.00  0.00     0.260 C 
HETATM   13  O1  UNL     1      22.620  -0.212  54.304  1.00  0.00    -0.300 OA
HETATM   14  C16 UNL     1      23.748   0.101  53.571  1.00  0.00     0.124 A 
HETATM   15  C17 UNL     1      24.959  -0.252  53.975  1.00  0.00     0.160 A 
HETATM   16  F1  UNL     1      25.404  -0.932  55.076  1.00  0.00    -0.202 F 
ENDROOT
BRANCH   8  17
HETATM   17  N2  UNL     1      19.125   0.436  51.285  1.00  0.00    -0.339 N 
HETATM   18  H6  UNL     1      19.499   0.229  50.331  1.00  0.00     0.167 HD
BRANCH  17  19
HETATM   19  C8  UNL     1      17.734   0.292  51.542  1.00  0.00     0.035 A 
HETATM   20  C9  UNL     1      16.893   1.379  51.564  1.00  0.00     0.029 A 
HETATM   21  C10 UNL     1      15.560   1.167  51.817  1.00  0.00     0.004 A 
HETATM   22  C11 UNL     1      15.013  -0.072  52.052  1.00  0.00     0.019 A 
HETATM   23  C12 UNL     1      15.863  -1.157  52.027  1.00  0.00     0.013 A 
HETATM   24 BR1  UNL     1      15.145  -2.908  52.349  1.00  0.00    -0.051 Br
HETATM   25  C13 UNL     1      17.204  -0.961  51.774  1.00  0.00     0.048 A 
ENDBRANCH  17  19
ENDBRANCH   8  17
TORSDOF 2
ENDMDL
