MODEL 1
REMARK VINA RESULT:      -8.7      0.000      0.000
REMARK  8 active torsions:
REMARK  status: ('A' for Active; 'I' for Inactive)
REMARK    1  A    between atoms: N1_7  and  C6_8 
REMARK    2  A    between atoms: C6_8  and  C7_9 
REMARK    3  A    between atoms: C7_9  and  O2_10 
REMARK    4  A    between atoms: C7_9  and  C8_11 
REMARK    5  A    between atoms: C8_11  and  O3_12 
REMARK    6  A    between atoms: O3_12  and  C9_13 
REMARK    7  A    between atoms: C14_20  and  N4_21 
REMARK    8  A    between atoms: N4_21  and  C15_22 
ROOT
HETATM    1  C9  UNL     1      24.462  -0.507  53.709  1.00  0.00     0.070 A 
HETATM    2  C10 UNL     1      25.166  -0.514  54.887  1.00  0.00     0.039 A 
HETATM    3  C11 UNL     1      26.326   0.158  55.163  1.00  0.00     0.035 A 
HETATM    4  C12 UNL     1      26.851   0.932  54.152  1.00  0.00     0.072 A 
HETATM    5  N2  UNL     1      27.999   1.596  54.420  1.00  0.00    -0.241 NA
HETATM    6  C13 UNL     1      28.577   2.372  53.481  1.00  0.00     0.236 A 
HETATM    7  N3  UNL     1      27.984   2.468  52.278  1.00  0.00    -0.224 NA
HETATM    8  C14 UNL     1      26.846   1.814  52.000  1.00  0.00     0.142 A 
HETATM    9  C21 UNL     1      26.213   1.010  52.915  1.00  0.00     0.041 A 
HETATM   10  C22 UNL     1      25.040   0.296  52.718  1.00  0.00     0.054 A 
ENDROOT
BRANCH   1  11
HETATM   11  O3  UNL     1      23.342  -1.059  53.190  1.00  0.00    -0.349 OA
BRANCH  11  12
HETATM   12  C8  UNL     1      22.118  -1.204  53.818  1.00  0.00     0.209 C 
BRANCH  12  13
HETATM   13  C7  UNL     1      21.297   0.062  53.740  1.00  0.00     0.160 C 
BRANCH  13  14
HETATM   14  C6  UNL     1      20.240  -0.074  52.657  1.00  0.00     0.151 C 
BRANCH  14  15
HETATM   15  N1  UNL     1      20.410   0.918  51.652  1.00  0.00    -0.402 N 
HETATM   16  C2  UNL     1      21.563   1.745  51.816  1.00  0.00     0.099 C 
HETATM   17  C1  UNL     1      22.427   1.604  50.565  1.00  0.00     0.034 C 
HETATM   18  C3  UNL     1      21.251   3.192  52.022  1.00  0.00     0.192 C 
HETATM   19  O1  UNL     1      20.021   3.360  52.610  1.00  0.00    -0.388 OA
HETATM   20  C4  UNL     1      18.982   2.928  51.794  1.00  0.00     0.187 C 
HETATM   21  C5  UNL     1      19.224   1.570  51.192  1.00  0.00     0.143 C 
ENDBRANCH  14  15
ENDBRANCH  13  14
BRANCH  13  22
HETATM   22  O2  UNL     1      20.671   0.292  54.996  1.00  0.00    -0.392 OA
HETATM   23  H14 UNL     1      20.250   1.182  54.969  1.00  0.00     0.210 HD
ENDBRANCH  13  22
ENDBRANCH  12  13
ENDBRANCH  11  12
ENDBRANCH   1  11
BRANCH   8  24
HETATM   24  N4  UNL     1      26.245   1.933  50.719  1.00  0.00    -0.340 N 
HETATM   25  H20 UNL     1      25.929   1.208  50.067  1.00  0.00     0.167 HD
BRANCH  24  26
HETATM   26  C15 UNL     1      26.073   3.289  50.322  1.00  0.00     0.035 A 
HETATM   27  C16 UNL     1      26.835   3.917  49.361  1.00  0.00     0.032 A 
HETATM   28  C17 UNL     1      26.712   5.218  48.928  1.00  0.00     0.046 A 
HETATM   29  C18 UNL     1      25.715   5.974  49.525  1.00  0.00     0.138 A 
HETATM   30  F1  UNL     1      25.558   7.265  49.127  1.00  0.00    -0.204 F 
HETATM   31  C19 UNL     1      24.904   5.434  50.493  1.00  0.00     0.074 A 
HETATM   32 CL1  UNL     1      23.670   6.450  51.192  1.00  0.00    -0.081 Cl
HETATM   33  C20 UNL     1      25.107   4.112  50.862  1.00  0.00     0.056 A 
ENDBRANCH  24  26
ENDBRANCH   8  24
TORSDOF 8
ENDMDL
MODEL 2
REMARK VINA RESULT:      -8.4      2.535      5.723
REMARK  8 active torsions:
REMARK  status: ('A' for Active; 'I' for Inactive)
REMARK    1  A    between atoms: N1_7  and  C6_8 
REMARK    2  A    between atoms: C6_8  and  C7_9 
REMARK    3  A    between atoms: C7_9  and  O2_10 
REMARK    4  A    between atoms: C7_9  and  C8_11 
REMARK    5  A    between atoms: C8_11  and  O3_12 
REMARK    6  A    between atoms: O3_12  and  C9_13 
REMARK    7  A    between atoms: C14_20  and  N4_21 
REMARK    8  A    between atoms: N4_21  and  C15_22 
ROOT
HETATM    1  C9  UNL     1      23.072   1.067  52.347  1.00  0.00     0.070 A 
HETATM    2  C10 UNL     1      22.025   0.561  51.617  1.00  0.00     0.039 A 
HETATM    3  C11 UNL     1      21.364   1.170  50.585  1.00  0.00     0.035 A 
HETATM    4  C12 UNL     1      21.790   2.431  50.232  1.00  0.00     0.072 A 
HETATM    5  N2  UNL     1      21.138   3.038  49.214  1.00  0.00    -0.241 NA
HETATM    6  C13 UNL     1      21.494   4.275  48.813  1.00  0.00     0.236 A 
HETATM    7  N3  UNL     1      22.510   4.884  49.447  1.00  0.00    -0.224 NA
HETATM    8  C14 UNL     1      23.165   4.293  50.457  1.00  0.00     0.142 A 
HETATM    9  C21 UNL     1      22.847   3.037  50.909  1.00  0.00     0.041 A 
HETATM   10  C22 UNL     1      23.464   2.350  51.946  1.00  0.00     0.054 A 
ENDROOT
BRANCH   1  11
HETATM   11  O3  UNL     1      23.868   0.696  53.375  1.00  0.00    -0.349 OA
BRANCH  11  12
HETATM   12  C8  UNL     1      23.879  -0.528  54.020  1.00  0.00     0.209 C 
BRANCH  12  13
HETATM   13  C7  UNL     1      25.254  -0.868  54.548  1.00  0.00     0.160 C 
BRANCH  13  14
HETATM   14  C6  UNL     1      26.089   0.396  54.667  1.00  0.00     0.151 C 
BRANCH  14  15
HETATM   15  N1  UNL     1      27.176   0.377  53.751  1.00  0.00    -0.402 N 
HETATM   16  C2  UNL     1      28.375  -0.213  54.256  1.00  0.00     0.099 C 
HETATM   17  C1  UNL     1      28.748  -1.378  53.345  1.00  0.00     0.034 C 
HETATM   18  C3  UNL     1      29.533   0.728  54.330  1.00  0.00     0.192 C 
HETATM   19  O1  UNL     1      29.114   2.026  54.497  1.00  0.00    -0.388 OA
HETATM   20  C4  UNL     1      28.398   2.495  53.403  1.00  0.00     0.187 C 
HETATM   21  C5  UNL     1      27.338   1.536  52.930  1.00  0.00     0.143 C 
ENDBRANCH  14  15
ENDBRANCH  13  14
BRANCH  13  22
HETATM   22  O2  UNL     1      25.127  -1.482  55.823  1.00  0.00    -0.392 OA
HETATM   23  H14 UNL     1      26.017  -1.504  56.242  1.00  0.00     0.210 HD
ENDBRANCH  13  22
ENDBRANCH  12  13
ENDBRANCH  11  12
ENDBRANCH   1  11
BRANCH   8  24
HETATM   24  N4  UNL     1      24.234   4.964  51.109  1.00  0.00    -0.340 N 
HETATM   25  H20 UNL     1      24.315   5.295  52.076  1.00  0.00     0.167 HD
BRANCH  24  26
HETATM   26  C15 UNL     1      25.343   5.189  50.247  1.00  0.00     0.035 A 
HETATM   27  C16 UNL     1      26.177   4.196  49.781  1.00  0.00     0.032 A 
HETATM   28  C17 UNL     1      27.256   4.348  48.941  1.00  0.00     0.046 A 
HETATM   29  C18 UNL     1      27.531   5.640  48.520  1.00  0.00     0.138 A 
HETATM   30  F1  UNL     1      28.589   5.838  47.687  1.00  0.00    -0.204 F 
HETATM   31  C19 UNL     1      26.755   6.697  48.930  1.00  0.00     0.074 A 
HETATM   32 CL1  UNL     1      27.165   8.292  48.353  1.00  0.00    -0.081 Cl
HETATM   33  C20 UNL     1      25.688   6.441  49.779  1.00  0.00     0.056 A 
ENDBRANCH  24  26
ENDBRANCH   8  24
TORSDOF 8
ENDMDL
MODEL 3
REMARK VINA RESULT:      -8.4      3.329      5.673
REMARK  8 active torsions:
REMARK  status: ('A' for Active; 'I' for Inactive)
REMARK    1  A    between atoms: N1_7  and  C6_8 
REMARK    2  A    between atoms: C6_8  and  C7_9 
REMARK    3  A    between atoms: C7_9  and  O2_10 
REMARK    4  A    between atoms: C7_9  and  C8_11 
REMARK    5  A    between atoms: C8_11  and  O3_12 
REMARK    6  A    between atoms: O3_12  and  C9_13 
REMARK    7  A    between atoms: C14_20  and  N4_21 
REMARK    8  A    between atoms: N4_21  and  C15_22 
ROOT
HETATM    1  C9  UNL     1      20.623   0.327  51.742  1.00  0.00     0.070 A 
HETATM    2  C10 UNL     1      19.883  -0.249  52.745  1.00  0.00     0.039 A 
HETATM    3  C11 UNL     1      20.352  -0.805  53.905  1.00  0.00     0.035 A 
HETATM    4  C12 UNL     1      21.716  -0.786  54.096  1.00  0.00     0.072 A 
HETATM    5  N2  UNL     1      22.184  -1.335  55.240  1.00  0.00    -0.241 NA
HETATM    6  C13 UNL     1      23.507  -1.358  55.498  1.00  0.00     0.236 A 
HETATM    7  N3  UNL     1      24.343  -0.822  54.594  1.00  0.00    -0.224 NA
HETATM    8  C14 UNL     1      23.892  -0.274  53.456  1.00  0.00     0.142 A 
HETATM    9  C21 UNL     1      22.558  -0.222  53.139  1.00  0.00     0.041 A 
HETATM   10  C22 UNL     1      22.001   0.320  51.989  1.00  0.00     0.054 A 
ENDROOT
BRANCH   1  11
HETATM   11  O3  UNL     1      20.422   0.920  50.543  1.00  0.00    -0.349 OA
BRANCH  11  12
HETATM   12  C8  UNL     1      21.312   0.979  49.486  1.00  0.00     0.209 C 
BRANCH  12  13
HETATM   13  C7  UNL     1      21.482   2.393  48.978  1.00  0.00     0.160 C 
BRANCH  13  14
HETATM   14  C6  UNL     1      22.943   2.653  48.652  1.00  0.00     0.151 C 
BRANCH  14  15
HETATM   15  N1  UNL     1      23.445   3.754  49.398  1.00  0.00    -0.402 N 
HETATM   16  C2  UNL     1      24.855   3.730  49.626  1.00  0.00     0.099 C 
HETATM   17  C1  UNL     1      25.451   5.006  49.037  1.00  0.00     0.034 C 
HETATM   18  C3  UNL     1      25.237   3.644  51.068  1.00  0.00     0.192 C 
HETATM   19  O1  UNL     1      24.268   3.010  51.807  1.00  0.00    -0.388 OA
HETATM   20  C4  UNL     1      23.077   3.725  51.841  1.00  0.00     0.187 C 
HETATM   21  C5  UNL     1      22.635   4.209  50.485  1.00  0.00     0.143 C 
ENDBRANCH  14  15
ENDBRANCH  13  14
BRANCH  13  22
HETATM   22  O2  UNL     1      20.690   2.569  47.811  1.00  0.00    -0.392 OA
HETATM   23  H14 UNL     1      19.764   2.746  48.093  1.00  0.00     0.210 HD
ENDBRANCH  13  22
ENDBRANCH  12  13
ENDBRANCH  11  12
ENDBRANCH   1  11
BRANCH   8  24
HETATM   24  N4  UNL     1      24.802   0.283  52.518  1.00  0.00    -0.340 N 
HETATM   25  H20 UNL     1      24.624   0.821  51.664  1.00  0.00     0.167 HD
BRANCH  24  26
HETATM   26  C15 UNL     1      26.160   0.030  52.860  1.00  0.00     0.035 A 
HETATM   27  C16 UNL     1      26.789  -1.184  52.689  1.00  0.00     0.032 A 
HETATM   28  C17 UNL     1      28.097  -1.487  52.990  1.00  0.00     0.046 A 
HETATM   29  C18 UNL     1      28.861  -0.460  53.522  1.00  0.00     0.138 A 
HETATM   30  F1  UNL     1      30.160  -0.715  53.834  1.00  0.00    -0.204 F 
HETATM   31  C19 UNL     1      28.322   0.787  53.729  1.00  0.00     0.074 A 
HETATM   32 CL1  UNL     1      29.349   2.027  54.399  1.00  0.00    -0.081 Cl
HETATM   33  C20 UNL     1      26.991   0.994  53.393  1.00  0.00     0.056 A 
ENDBRANCH  24  26
ENDBRANCH   8  24
TORSDOF 8
ENDMDL
MODEL 4
REMARK VINA RESULT:      -8.3      3.339      5.519
REMARK  8 active torsions:
REMARK  status: ('A' for Active; 'I' for Inactive)
REMARK    1  A    between atoms: N1_7  and  C6_8 
REMARK    2  A    between atoms: C6_8  and  C7_9 
REMARK    3  A    between atoms: C7_9  and  O2_10 
REMARK    4  A    between atoms: C7_9  and  C8_11 
REMARK    5  A    between atoms: C8_11  and  O3_12 
REMARK    6  A    between atoms: O3_12  and  C9_13 
REMARK    7  A    between atoms: C14_20  and  N4_21 
REMARK    8  A    between atoms: N4_21  and  C15_22 
ROOT
HETATM    1  C9  UNL     1      20.696   0.443  51.827  1.00  0.00     0.070 A 
HETATM    2  C10 UNL     1      19.954  -0.174  52.804  1.00  0.00     0.039 A 
HETATM    3  C11 UNL     1      20.420  -0.776  53.942  1.00  0.00     0.035 A 
HETATM    4  C12 UNL     1      21.783  -0.764  54.137  1.00  0.00     0.072 A 
HETATM    5  N2  UNL     1      22.249  -1.360  55.259  1.00  0.00    -0.241 NA
HETATM    6  C13 UNL     1      23.571  -1.393  55.519  1.00  0.00     0.236 A 
HETATM    7  N3  UNL     1      24.410  -0.819  54.640  1.00  0.00    -0.224 NA
HETATM    8  C14 UNL     1      23.961  -0.226  53.524  1.00  0.00     0.142 A 
HETATM    9  C21 UNL     1      22.628  -0.162  53.206  1.00  0.00     0.041 A 
HETATM   10  C22 UNL     1      22.073   0.426  52.077  1.00  0.00     0.054 A 
ENDROOT
BRANCH   1  11
HETATM   11  O3  UNL     1      20.498   1.084  50.653  1.00  0.00    -0.349 OA
BRANCH  11  12
HETATM   12  C8  UNL     1      19.800   2.261  50.454  1.00  0.00     0.209 C 
BRANCH  12  13
HETATM   13  C7  UNL     1      20.024   3.240  51.584  1.00  0.00     0.160 C 
BRANCH  13  14
HETATM   14  C6  UNL     1      20.705   4.491  51.056  1.00  0.00     0.151 C 
BRANCH  14  15
HETATM   15  N1  UNL     1      22.107   4.296  50.933  1.00  0.00    -0.402 N 
HETATM   16  C2  UNL     1      22.889   4.897  51.968  1.00  0.00     0.099 C 
HETATM   17  C1  UNL     1      23.695   3.796  52.652  1.00  0.00     0.034 C 
HETATM   18  C3  UNL     1      23.831   5.951  51.484  1.00  0.00     0.192 C 
HETATM   19  O1  UNL     1      23.364   6.554  50.341  1.00  0.00    -0.388 OA
HETATM   20  C4  UNL     1      23.301   5.674  49.268  1.00  0.00     0.187 C 
HETATM   21  C5  UNL     1      22.648   4.362  49.612  1.00  0.00     0.143 C 
ENDBRANCH  14  15
ENDBRANCH  13  14
BRANCH  13  22
HETATM   22  O2  UNL     1      18.771   3.583  52.162  1.00  0.00    -0.392 OA
HETATM   23  H14 UNL     1      18.131   2.864  51.953  1.00  0.00     0.210 HD
ENDBRANCH  13  22
ENDBRANCH  12  13
ENDBRANCH  11  12
ENDBRANCH   1  11
BRANCH   8  24
HETATM   24  N4  UNL     1      24.873   0.370  52.612  1.00  0.00    -0.340 N 
HETATM   25  H20 UNL     1      24.698   0.953  51.788  1.00  0.00     0.167 HD
BRANCH  24  26
HETATM   26  C15 UNL     1      26.229   0.084  52.933  1.00  0.00     0.035 A 
HETATM   27  C16 UNL     1      26.840  -1.132  52.713  1.00  0.00     0.032 A 
HETATM   28  C17 UNL     1      28.145  -1.465  52.992  1.00  0.00     0.046 A 
HETATM   29  C18 UNL     1      28.928  -0.469  53.556  1.00  0.00     0.138 A 
HETATM   30  F1  UNL     1      30.225  -0.754  53.848  1.00  0.00    -0.204 F 
HETATM   31  C19 UNL     1      28.409   0.777  53.813  1.00  0.00     0.074 A 
HETATM   32 CL1  UNL     1      29.460   1.976  54.520  1.00  0.00    -0.081 Cl
HETATM   33  C20 UNL     1      27.079   1.015  53.495  1.00  0.00     0.056 A 
ENDBRANCH  24  26
ENDBRANCH   8  24
TORSDOF 8
ENDMDL
MODEL 5
REMARK VINA RESULT:      -8.1      3.590      5.681
REMARK  8 active torsions:
REMARK  status: ('A' for Active; 'I' for Inactive)
REMARK    1  A    between atoms: N1_7  and  C6_8 
REMARK    2  A    between atoms: C6_8  and  C7_9 
REMARK    3  A    between atoms: C7_9  and  O2_10 
REMARK    4  A    between atoms: C7_9  and  C8_11 
REMARK    5  A    between atoms: C8_11  and  O3_12 
REMARK    6  A    between atoms: O3_12  and  C9_13 
REMARK    7  A    between atoms: C14_20  and  N4_21 
REMARK    8  A    between atoms: N4_21  and  C15_22 
ROOT
HETATM    1  C9  UNL     1      20.850   0.183  52.097  1.00  0.00     0.070 A 
HETATM    2  C10 UNL     1      20.223  -0.516  53.098  1.00  0.00     0.039 A 
HETATM    3  C11 UNL     1      20.802  -1.082  54.202  1.00  0.00     0.035 A 
HETATM    4  C12 UNL     1      22.165  -0.938  54.331  1.00  0.00     0.072 A 
HETATM    5  N2  UNL     1      22.742  -1.498  55.419  1.00  0.00    -0.241 NA
HETATM    6  C13 UNL     1      24.072  -1.403  55.614  1.00  0.00     0.236 A 
HETATM    7  N3  UNL     1      24.806  -0.740  54.704  1.00  0.00    -0.224 NA
HETATM    8  C14 UNL     1      24.246  -0.181  53.622  1.00  0.00     0.142 A 
HETATM    9  C21 UNL     1      22.899  -0.245  53.370  1.00  0.00     0.041 A 
HETATM   10  C22 UNL     1      22.234   0.299  52.280  1.00  0.00     0.054 A 
ENDROOT
BRANCH   1  11
HETATM   11  O3  UNL     1      20.533   0.815  50.944  1.00  0.00    -0.349 OA
BRANCH  11  12
HETATM   12  C8  UNL     1      21.385   1.108  49.894  1.00  0.00     0.209 C 
BRANCH  12  13
HETATM   13  C7  UNL     1      20.979   2.380  49.186  1.00  0.00     0.160 C 
BRANCH  13  14
HETATM   14  C6  UNL     1      22.213   3.205  48.859  1.00  0.00     0.151 C 
BRANCH  14  15
HETATM   15  N1  UNL     1      23.011   3.409  50.017  1.00  0.00    -0.402 N 
HETATM   16  C2  UNL     1      22.628   4.527  50.820  1.00  0.00     0.099 C 
HETATM   17  C1  UNL     1      22.307   4.015  52.222  1.00  0.00     0.034 C 
HETATM   18  C3  UNL     1      23.674   5.588  50.926  1.00  0.00     0.192 C 
HETATM   19  O1  UNL     1      24.486   5.604  49.817  1.00  0.00    -0.388 OA
HETATM   20  C4  UNL     1      25.233   4.439  49.693  1.00  0.00     0.187 C 
HETATM   21  C5  UNL     1      24.416   3.187  49.871  1.00  0.00     0.143 C 
ENDBRANCH  14  15
ENDBRANCH  13  14
BRANCH  13  22
HETATM   22  O2  UNL     1      20.291   2.049  47.987  1.00  0.00    -0.392 OA
HETATM   23  H14 UNL     1      19.615   2.745  47.820  1.00  0.00     0.210 HD
ENDBRANCH  13  22
ENDBRANCH  12  13
ENDBRANCH  11  12
ENDBRANCH   1  11
BRANCH   8  24
HETATM   24  N4  UNL     1      25.049   0.512  52.676  1.00  0.00    -0.340 N 
HETATM   25  H20 UNL     1      24.776   1.091  51.876  1.00  0.00     0.167 HD
BRANCH  24  26
HETATM   26  C15 UNL     1      26.441   0.350  52.920  1.00  0.00     0.035 A 
HETATM   27  C16 UNL     1      27.310   1.388  53.176  1.00  0.00     0.032 A 
HETATM   28  C17 UNL     1      28.659   1.295  53.428  1.00  0.00     0.046 A 
HETATM   29  C18 UNL     1      29.200   0.019  53.422  1.00  0.00     0.138 A 
HETATM   30  F1  UNL     1      30.531  -0.121  53.667  1.00  0.00    -0.204 F 
HETATM   31  C19 UNL     1      28.414  -1.081  53.177  1.00  0.00     0.074 A 
HETATM   32 CL1  UNL     1      29.169  -2.653  53.191  1.00  0.00    -0.081 Cl
HETATM   33  C20 UNL     1      27.062  -0.882  52.934  1.00  0.00     0.056 A 
ENDBRANCH  24  26
ENDBRANCH   8  24
TORSDOF 8
ENDMDL
MODEL 6
REMARK VINA RESULT:      -7.8      4.220      7.731
REMARK  8 active torsions:
REMARK  status: ('A' for Active; 'I' for Inactive)
REMARK    1  A    between atoms: N1_7  and  C6_8 
REMARK    2  A    between atoms: C6_8  and  C7_9 
REMARK    3  A    between atoms: C7_9  and  O2_10 
REMARK    4  A    between atoms: C7_9  and  C8_11 
REMARK    5  A    between atoms: C8_11  and  O3_12 
REMARK    6  A    between atoms: O3_12  and  C9_13 
REMARK    7  A    between atoms: C14_20  and  N4_21 
REMARK    8  A    between atoms: N4_21  and  C15_22 
ROOT
HETATM    1  C9  UNL     1      23.766   3.183  49.311  1.00  0.00     0.070 A 
HETATM    2  C10 UNL     1      22.704   2.564  48.699  1.00  0.00     0.039 A 
HETATM    3  C11 UNL     1      21.874   1.618  49.237  1.00  0.00     0.035 A 
HETATM    4  C12 UNL     1      22.123   1.240  50.537  1.00  0.00     0.072 A 
HETATM    5  N2  UNL     1      21.307   0.304  51.073  1.00  0.00    -0.241 NA
HETATM    6  C13 UNL     1      21.488  -0.121  52.339  1.00  0.00     0.236 A 
HETATM    7  N3  UNL     1      22.496   0.410  53.052  1.00  0.00    -0.224 NA
HETATM    8  C14 UNL     1      23.313   1.339  52.533  1.00  0.00     0.142 A 
HETATM    9  C21 UNL     1      23.177   1.809  51.251  1.00  0.00     0.041 A 
HETATM   10  C22 UNL     1      23.972   2.762  50.631  1.00  0.00     0.054 A 
ENDROOT
BRANCH   1  11
HETATM   11  O3  UNL     1      24.710   4.107  49.021  1.00  0.00    -0.349 OA
BRANCH  11  12
HETATM   12  C8  UNL     1      26.054   4.054  49.348  1.00  0.00     0.209 C 
BRANCH  12  13
HETATM   13  C7  UNL     1      26.779   5.312  48.930  1.00  0.00     0.160 C 
BRANCH  13  14
HETATM   14  C6  UNL     1      26.182   6.513  49.644  1.00  0.00     0.151 C 
BRANCH  14  15
HETATM   15  N1  UNL     1      26.399   7.707  48.904  1.00  0.00    -0.402 N 
HETATM   16  C2  UNL     1      26.685   7.509  47.518  1.00  0.00     0.099 C 
HETATM   17  C1  UNL     1      25.630   8.254  46.706  1.00  0.00     0.034 C 
HETATM   18  C3  UNL     1      28.037   7.987  47.101  1.00  0.00     0.192 C 
HETATM   19  O1  UNL     1      28.928   7.943  48.145  1.00  0.00    -0.388 OA
HETATM   20  C4  UNL     1      28.588   8.820  49.168  1.00  0.00     0.187 C 
HETATM   21  C5  UNL     1      27.136   8.741  49.561  1.00  0.00     0.143 C 
ENDBRANCH  14  15
ENDBRANCH  13  14
BRANCH  13  22
HETATM   22  O2  UNL     1      28.156   5.192  49.263  1.00  0.00    -0.392 OA
HETATM   23  H14 UNL     1      28.220   4.785  50.156  1.00  0.00     0.210 HD
ENDBRANCH  13  22
ENDBRANCH  12  13
ENDBRANCH  11  12
ENDBRANCH   1  11
BRANCH   8  24
HETATM   24  N4  UNL     1      24.371   1.879  53.312  1.00  0.00    -0.340 N 
HETATM   25  H20 UNL     1      24.403   2.727  53.886  1.00  0.00     0.167 HD
BRANCH  24  26
HETATM   26  C15 UNL     1      25.550   1.085  53.256  1.00  0.00     0.035 A 
HETATM   27  C16 UNL     1      25.623  -0.153  52.654  1.00  0.00     0.032 A 
HETATM   28  C17 UNL     1      26.731  -0.963  52.559  1.00  0.00     0.046 A 
HETATM   29  C18 UNL     1      27.898  -0.480  53.131  1.00  0.00     0.138 A 
HETATM   30  F1  UNL     1      29.019  -1.247  53.060  1.00  0.00    -0.204 F 
HETATM   31  C19 UNL     1      27.925   0.745  53.754  1.00  0.00     0.074 A 
HETATM   32 CL1  UNL     1      29.432   1.284  54.445  1.00  0.00    -0.081 Cl
HETATM   33  C20 UNL     1      26.753   1.488  53.797  1.00  0.00     0.056 A 
ENDBRANCH  24  26
ENDBRANCH   8  24
TORSDOF 8
ENDMDL
MODEL 7
REMARK VINA RESULT:      -7.6      5.149      8.749
REMARK  8 active torsions:
REMARK  status: ('A' for Active; 'I' for Inactive)
REMARK    1  A    between atoms: N1_7  and  C6_8 
REMARK    2  A    between atoms: C6_8  and  C7_9 
REMARK    3  A    between atoms: C7_9  and  O2_10 
REMARK    4  A    between atoms: C7_9  and  C8_11 
REMARK    5  A    between atoms: C8_11  and  O3_12 
REMARK    6  A    between atoms: O3_12  and  C9_13 
REMARK    7  A    between atoms: C14_20  and  N4_21 
REMARK    8  A    between atoms: N4_21  and  C15_22 
ROOT
HETATM    1  C9  UNL     1      25.533   3.962  49.569  1.00  0.00     0.070 A 
HETATM    2  C10 UNL     1      24.347   3.583  48.989  1.00  0.00     0.039 A 
HETATM    3  C11 UNL     1      23.361   2.814  49.547  1.00  0.00     0.035 A 
HETATM    4  C12 UNL     1      23.573   2.368  50.832  1.00  0.00     0.072 A 
HETATM    5  N2  UNL     1      22.603   1.607  51.386  1.00  0.00    -0.241 NA
HETATM    6  C13 UNL     1      22.738   1.129  52.640  1.00  0.00     0.236 A 
HETATM    7  N3  UNL     1      23.856   1.430  53.321  1.00  0.00    -0.224 NA
HETATM    8  C14 UNL     1      24.826   2.184  52.783  1.00  0.00     0.142 A 
HETATM    9  C21 UNL     1      24.745   2.697  51.513  1.00  0.00     0.041 A 
HETATM   10  C22 UNL     1      25.695   3.482  50.874  1.00  0.00     0.054 A 
ENDROOT
BRANCH   1  11
HETATM   11  O3  UNL     1      26.635   4.680  49.255  1.00  0.00    -0.349 OA
BRANCH  11  12
HETATM   12  C8  UNL     1      26.677   5.883  48.573  1.00  0.00     0.209 C 
BRANCH  12  13
HETATM   13  C7  UNL     1      28.098   6.312  48.286  1.00  0.00     0.160 C 
BRANCH  13  14
HETATM   14  C6  UNL     1      28.290   7.765  48.688  1.00  0.00     0.151 C 
BRANCH  14  15
HETATM   15  N1  UNL     1      29.150   8.436  47.777  1.00  0.00    -0.402 N 
HETATM   16  C2  UNL     1      30.533   8.418  48.136  1.00  0.00     0.099 C 
HETATM   17  C1  UNL     1      31.309   7.762  46.997  1.00  0.00     0.034 C 
HETATM   18  C3  UNL     1      31.114   9.771  48.392  1.00  0.00     0.192 C 
HETATM   19  O1  UNL     1      30.155  10.652  48.831  1.00  0.00    -0.388 OA
HETATM   20  C4  UNL     1      29.188  10.905  47.867  1.00  0.00     0.187 C 
HETATM   21  C5  UNL     1      28.658   9.655  47.215  1.00  0.00     0.143 C 
ENDBRANCH  14  15
ENDBRANCH  13  14
BRANCH  13  22
HETATM   22  O2  UNL     1      28.993   5.488  49.022  1.00  0.00    -0.392 OA
HETATM   23  H14 UNL     1      28.622   5.364  49.925  1.00  0.00     0.210 HD
ENDBRANCH  13  22
ENDBRANCH  12  13
ENDBRANCH  11  12
ENDBRANCH   1  11
BRANCH   8  24
HETATM   24  N4  UNL     1      25.999   2.483  53.527  1.00  0.00    -0.340 N 
HETATM   25  H20 UNL     1      26.232   3.308  54.089  1.00  0.00     0.167 HD
BRANCH  24  26
HETATM   26  C15 UNL     1      26.971   1.447  53.452  1.00  0.00     0.035 A 
HETATM   27  C16 UNL     1      28.304   1.611  53.759  1.00  0.00     0.032 A 
HETATM   28  C17 UNL     1      29.287   0.650  53.715  1.00  0.00     0.046 A 
HETATM   29  C18 UNL     1      28.892  -0.618  53.319  1.00  0.00     0.138 A 
HETATM   30  F1  UNL     1      29.832  -1.601  53.261  1.00  0.00    -0.204 F 
HETATM   31  C19 UNL     1      27.583  -0.880  52.992  1.00  0.00     0.074 A 
HETATM   32 CL1  UNL     1      27.165  -2.502  52.506  1.00  0.00    -0.081 Cl
HETATM   33  C20 UNL     1      26.665   0.158  53.068  1.00  0.00     0.056 A 
ENDBRANCH  24  26
ENDBRANCH   8  24
TORSDOF 8
ENDMDL
MODEL 8
REMARK VINA RESULT:      -7.6      5.059      7.899
REMARK  8 active torsions:
REMARK  status: ('A' for Active; 'I' for Inactive)
REMARK    1  A    between atoms: N1_7  and  C6_8 
REMARK    2  A    between atoms: C6_8  and  C7_9 
REMARK    3  A    between atoms: C7_9  and  O2_10 
REMARK    4  A    between atoms: C7_9  and  C8_11 
REMARK    5  A    between atoms: C8_11  and  O3_12 
REMARK    6  A    between atoms: O3_12  and  C9_13 
REMARK    7  A    between atoms: C14_20  and  N4_21 
REMARK    8  A    between atoms: N4_21  and  C15_22 
ROOT
HETATM    1  C9  UNL     1      26.053   5.670  48.708  1.00  0.00     0.070 A 
HETATM    2  C10 UNL     1      25.510   6.709  47.992  1.00  0.00     0.039 A 
HETATM    3  C11 UNL     1      26.175   7.769  47.438  1.00  0.00     0.035 A 
HETATM    4  C12 UNL     1      27.541   7.805  47.611  1.00  0.00     0.072 A 
HETATM    5  N2  UNL     1      28.202   8.852  47.067  1.00  0.00    -0.241 NA
HETATM    6  C13 UNL     1      29.539   8.961  47.196  1.00  0.00     0.236 A 
HETATM    7  N3  UNL     1      30.195   8.005  47.875  1.00  0.00    -0.224 NA
HETATM    8  C14 UNL     1      29.551   6.962  48.420  1.00  0.00     0.142 A 
HETATM    9  C21 UNL     1      28.192   6.798  48.321  1.00  0.00     0.041 A 
HETATM   10  C22 UNL     1      27.443   5.758  48.852  1.00  0.00     0.054 A 
ENDROOT
BRANCH   1  11
HETATM   11  O3  UNL     1      25.643   4.549  49.342  1.00  0.00    -0.349 OA
BRANCH  11  12
HETATM   12  C8  UNL     1      26.432   3.652  50.040  1.00  0.00     0.209 C 
BRANCH  12  13
HETATM   13  C7  UNL     1      25.638   2.913  51.093  1.00  0.00     0.160 C 
BRANCH  13  14
HETATM   14  C6  UNL     1      26.575   2.087  51.960  1.00  0.00     0.151 C 
BRANCH  14  15
HETATM   15  N1  UNL     1      26.000   0.824  52.271  1.00  0.00    -0.402 N 
HETATM   16  C2  UNL     1      25.289   0.780  53.510  1.00  0.00     0.099 C 
HETATM   17  C1  UNL     1      23.851   0.361  53.215  1.00  0.00     0.034 C 
HETATM   18  C3  UNL     1      25.868  -0.167  54.510  1.00  0.00     0.192 C 
HETATM   19  O1  UNL     1      27.220  -0.327  54.324  1.00  0.00    -0.388 OA
HETATM   20  C4  UNL     1      27.518  -0.934  53.111  1.00  0.00     0.187 C 
HETATM   21  C5  UNL     1      26.779  -0.329  51.946  1.00  0.00     0.143 C 
ENDBRANCH  14  15
ENDBRANCH  13  14
BRANCH  13  22
HETATM   22  O2  UNL     1      24.942   3.853  51.900  1.00  0.00    -0.392 OA
HETATM   23  H14 UNL     1      24.255   4.285  51.343  1.00  0.00     0.210 HD
ENDBRANCH  13  22
ENDBRANCH  12  13
ENDBRANCH  11  12
ENDBRANCH   1  11
BRANCH   8  24
HETATM   24  N4  UNL     1      30.272   5.968  49.135  1.00  0.00    -0.340 N 
HETATM   25  H20 UNL     1      30.058   5.509  50.026  1.00  0.00     0.167 HD
BRANCH  24  26
HETATM   26  C15 UNL     1      31.469   5.579  48.470  1.00  0.00     0.035 A 
HETATM   27  C16 UNL     1      31.506   4.834  47.312  1.00  0.00     0.032 A 
HETATM   28  C17 UNL     1      32.626   4.436  46.620  1.00  0.00     0.046 A 
HETATM   29  C18 UNL     1      33.847   4.827  47.147  1.00  0.00     0.138 A 
HETATM   30  F1  UNL     1      34.982   4.456  46.495  1.00  0.00    -0.204 F 
HETATM   31  C19 UNL     1      33.913   5.573  48.299  1.00  0.00     0.074 A 
HETATM   32 CL1  UNL     1      35.487   6.028  48.896  1.00  0.00    -0.081 Cl
HETATM   33  C20 UNL     1      32.725   5.925  48.924  1.00  0.00     0.056 A 
ENDBRANCH  24  26
ENDBRANCH   8  24
TORSDOF 8
ENDMDL
MODEL 9
REMARK VINA RESULT:      -7.4      3.981      7.080
REMARK  8 active torsions:
REMARK  status: ('A' for Active; 'I' for Inactive)
REMARK    1  A    between atoms: N1_7  and  C6_8 
REMARK    2  A    between atoms: C6_8  and  C7_9 
REMARK    3  A    between atoms: C7_9  and  O2_10 
REMARK    4  A    between atoms: C7_9  and  C8_11 
REMARK    5  A    between atoms: C8_11  and  O3_12 
REMARK    6  A    between atoms: O3_12  and  C9_13 
REMARK    7  A    between atoms: C14_20  and  N4_21 
REMARK    8  A    between atoms: N4_21  and  C15_22 
ROOT
HETATM    1  C9  UNL     1      24.858   3.579  49.880  1.00  0.00     0.070 A 
HETATM    2  C10 UNL     1      23.899   3.290  48.941  1.00  0.00     0.039 A 
HETATM    3  C11 UNL     1      22.843   2.429  49.073  1.00  0.00     0.035 A 
HETATM    4  C12 UNL     1      22.721   1.777  50.280  1.00  0.00     0.072 A 
HETATM    5  N2  UNL     1      21.680   0.924  50.415  1.00  0.00    -0.241 NA
HETATM    6  C13 UNL     1      21.494   0.245  51.565  1.00  0.00     0.236 A 
HETATM    7  N3  UNL     1      22.366   0.440  52.569  1.00  0.00    -0.224 NA
HETATM    8  C14 UNL     1      23.401   1.283  52.448  1.00  0.00     0.142 A 
HETATM    9  C21 UNL     1      23.641   2.000  51.303  1.00  0.00     0.041 A 
HETATM   10  C22 UNL     1      24.684   2.890  51.086  1.00  0.00     0.054 A 
ENDROOT
BRANCH   1  11
HETATM   11  O3  UNL     1      25.961   4.351  50.002  1.00  0.00    -0.349 OA
BRANCH  11  12
HETATM   12  C8  UNL     1      26.640   5.000  48.986  1.00  0.00     0.209 C 
BRANCH  12  13
HETATM   13  C7  UNL     1      26.439   6.497  49.049  1.00  0.00     0.160 C 
BRANCH  13  14
HETATM   14  C6  UNL     1      25.211   6.888  48.244  1.00  0.00     0.151 C 
BRANCH  14  15
HETATM   15  N1  UNL     1      24.254   7.548  49.062  1.00  0.00    -0.402 N 
HETATM   16  C2  UNL     1      23.028   6.837  49.243  1.00  0.00     0.099 C 
HETATM   17  C1  UNL     1      22.829   6.609  50.739  1.00  0.00     0.034 C 
HETATM   18  C3  UNL     1      21.828   7.546  48.703  1.00  0.00     0.192 C 
HETATM   19  O1  UNL     1      22.162   8.369  47.655  1.00  0.00    -0.388 OA
HETATM   20  C4  UNL     1      22.991   9.412  48.046  1.00  0.00     0.187 C 
HETATM   21  C5  UNL     1      24.147   8.964  48.902  1.00  0.00     0.143 C 
ENDBRANCH  14  15
ENDBRANCH  13  14
BRANCH  13  22
HETATM   22  O2  UNL     1      26.270   6.890  50.405  1.00  0.00    -0.392 OA
HETATM   23  H14 UNL     1      25.347   7.212  50.516  1.00  0.00     0.210 HD
ENDBRANCH  13  22
ENDBRANCH  12  13
ENDBRANCH  11  12
ENDBRANCH   1  11
BRANCH   8  24
HETATM   24  N4  UNL     1      24.307   1.467  53.527  1.00  0.00    -0.340 N 
HETATM   25  H20 UNL     1      24.236   2.065  54.356  1.00  0.00     0.167 HD
BRANCH  24  26
HETATM   26  C15 UNL     1      25.481   0.673  53.394  1.00  0.00     0.035 A 
HETATM   27  C16 UNL     1      25.496  -0.612  52.897  1.00  0.00     0.032 A 
HETATM   28  C17 UNL     1      26.595  -1.423  52.736  1.00  0.00     0.046 A 
HETATM   29  C18 UNL     1      27.817  -0.889  53.115  1.00  0.00     0.138 A 
HETATM   30  F1  UNL     1      28.931  -1.656  52.972  1.00  0.00    -0.204 F 
HETATM   31  C19 UNL     1      27.903   0.386  53.621  1.00  0.00     0.074 A 
HETATM   32 CL1  UNL     1      29.477   0.987  54.071  1.00  0.00    -0.081 Cl
HETATM   33  C20 UNL     1      26.736   1.126  53.745  1.00  0.00     0.056 A 
ENDBRANCH  24  26
ENDBRANCH   8  24
TORSDOF 8
ENDMDL
