MODEL 1
REMARK VINA RESULT:      -7.8      0.000      0.000
REMARK  5 active torsions:
REMARK  status: ('A' for Active; 'I' for Inactive)
REMARK    1  A    between atoms: C7_7  and  N1_8 
REMARK    2  A    between atoms: N1_8  and  C8_9 
REMARK    3  A    between atoms: C12_16  and  C13_17 
REMARK    4  A    between atoms: C13_17  and  N5_18 
REMARK    5  A    between atoms: C16_21  and  N6_22 
ROOT
HETATM    1  C1  UNL     1      25.649   6.893  48.220  1.00  0.00     0.018 C 
HETATM    2  C2  UNL     1      25.277   6.223  49.144  1.00  0.00    -0.078 C 
HETATM    3  C3  UNL     1      24.807   5.425  50.239  1.00  0.00     0.019 A 
HETATM    4  C4  UNL     1      23.972   5.853  51.231  1.00  0.00     0.021 A 
HETATM    5  C5  UNL     1      23.569   4.997  52.219  1.00  0.00     0.004 A 
HETATM    6  C6  UNL     1      23.991   3.691  52.241  1.00  0.00     0.029 A 
HETATM    7  C7  UNL     1      24.835   3.162  51.285  1.00  0.00     0.035 A 
HETATM    8  C19 UNL     1      25.196   4.113  50.312  1.00  0.00     0.050 A 
ENDROOT
BRANCH   7   9
HETATM    9  N1  UNL     1      25.293   1.795  51.184  1.00  0.00    -0.339 N 
HETATM   10  H5  UNL     1      24.860   1.417  50.325  1.00  0.00     0.167 HD
BRANCH   9  11
HETATM   11  C8  UNL     1      26.132   1.598  52.306  1.00  0.00     0.159 A 
HETATM   12  N2  UNL     1      27.299   2.282  52.172  1.00  0.00    -0.220 NA
HETATM   13  C9  UNL     1      28.205   2.151  53.185  1.00  0.00     0.258 A 
HETATM   14  N3  UNL     1      27.950   1.390  54.245  1.00  0.00    -0.161 NA
HETATM   15  N4  UNL     1      26.830   0.713  54.409  1.00  0.00    -0.240 N 
HETATM   16  C10 UNL     1      26.315  -0.112  55.323  1.00  0.00     0.119 A 
HETATM   17  C18 UNL     1      25.944   0.840  53.425  1.00  0.00     0.112 A 
HETATM   18  C11 UNL     1      25.074  -0.475  54.849  1.00  0.00     0.030 A 
HETATM   19  C12 UNL     1      24.790   0.131  53.603  1.00  0.00     0.004 A 
BRANCH  19  20
HETATM   20  C13 UNL     1      23.449  -0.125  53.061  1.00  0.00     0.313 C 
BRANCH  20  21
HETATM   21  N5  UNL     1      22.395   0.677  53.594  1.00  0.00     0.094 N 
HETATM   22  C14 UNL     1      21.458   1.277  52.708  1.00  0.00     0.275 C 
HETATM   23  C15 UNL     1      20.500   0.137  52.347  1.00  0.00     0.067 C 
HETATM   24  C16 UNL     1      20.668  -0.846  53.517  1.00  0.00     0.247 C 
HETATM   25  C17 UNL     1      21.485  -0.045  54.491  1.00  0.00     0.307 C 
BRANCH  24  26
HETATM   26  N6  UNL     1      19.331  -1.117  54.020  1.00  0.00     0.084 N 
HETATM   27  H16 UNL     1      18.604  -0.544  53.517  1.00  0.00     0.313 HD
HETATM   28  H17 UNL     1      19.304  -0.958  55.052  1.00  0.00     0.313 HD
ENDBRANCH  24  26
ENDBRANCH  20  21
ENDBRANCH  19  20
ENDBRANCH   9  11
ENDBRANCH   7   9
TORSDOF 5
ENDMDL
MODEL 2
REMARK VINA RESULT:      -7.7      1.924      5.178
REMARK  5 active torsions:
REMARK  status: ('A' for Active; 'I' for Inactive)
REMARK    1  A    between atoms: C7_7  and  N1_8 
REMARK    2  A    between atoms: N1_8  and  C8_9 
REMARK    3  A    between atoms: C12_16  and  C13_17 
REMARK    4  A    between atoms: C13_17  and  N5_18 
REMARK    5  A    between atoms: C16_21  and  N6_22 
ROOT
HETATM    1  C1  UNL     1      29.760  -2.373  53.518  1.00  0.00     0.018 C 
HETATM    2  C2  UNL     1      29.250  -1.289  53.440  1.00  0.00    -0.078 C 
HETATM    3  C3  UNL     1      28.664   0.015  53.333  1.00  0.00     0.019 A 
HETATM    4  C4  UNL     1      29.134   1.147  53.936  1.00  0.00     0.021 A 
HETATM    5  C5  UNL     1      28.505   2.348  53.748  1.00  0.00     0.004 A 
HETATM    6  C6  UNL     1      27.391   2.447  52.953  1.00  0.00     0.029 A 
HETATM    7  C7  UNL     1      26.839   1.363  52.301  1.00  0.00     0.035 A 
HETATM    8  C19 UNL     1      27.550   0.174  52.552  1.00  0.00     0.050 A 
ENDROOT
BRANCH   7   9
HETATM    9  N1  UNL     1      25.708   1.367  51.402  1.00  0.00    -0.339 N 
HETATM   10  H5  UNL     1      25.307   0.416  51.450  1.00  0.00     0.167 HD
BRANCH   9  11
HETATM   11  C8  UNL     1      25.659   2.677  50.868  1.00  0.00     0.159 A 
HETATM   12  N2  UNL     1      26.687   2.893  50.005  1.00  0.00    -0.220 NA
HETATM   13  C9  UNL     1      26.762   4.134  49.440  1.00  0.00     0.258 A 
HETATM   14  N3  UNL     1      25.870   5.077  49.727  1.00  0.00    -0.161 NA
HETATM   15  N4  UNL     1      24.862   4.904  50.558  1.00  0.00    -0.240 N 
HETATM   16  C10 UNL     1      23.854   5.639  51.035  1.00  0.00     0.119 A 
HETATM   17  C18 UNL     1      24.784   3.696  51.109  1.00  0.00     0.112 A 
HETATM   18  C11 UNL     1      23.160   4.818  51.895  1.00  0.00     0.030 A 
HETATM   19  C12 UNL     1      23.738   3.529  51.971  1.00  0.00     0.004 A 
BRANCH  19  20
HETATM   20  C13 UNL     1      23.013   2.553  52.796  1.00  0.00     0.313 C 
BRANCH  20  21
HETATM   21  N5  UNL     1      21.947   1.858  52.150  1.00  0.00     0.094 N 
HETATM   22  C14 UNL     1      22.190   0.576  51.585  1.00  0.00     0.275 C 
HETATM   23  C15 UNL     1      22.172  -0.374  52.788  1.00  0.00     0.067 C 
HETATM   24  C16 UNL     1      21.354   0.401  53.834  1.00  0.00     0.247 C 
HETATM   25  C17 UNL     1      20.812   1.547  53.029  1.00  0.00     0.307 C 
BRANCH  24  26
HETATM   26  N6  UNL     1      20.301  -0.498  54.278  1.00  0.00     0.084 N 
HETATM   27  H16 UNL     1      19.904  -1.057  53.478  1.00  0.00     0.313 HD
HETATM   28  H17 UNL     1      19.561   0.044  54.776  1.00  0.00     0.313 HD
ENDBRANCH  24  26
ENDBRANCH  20  21
ENDBRANCH  19  20
ENDBRANCH   9  11
ENDBRANCH   7   9
TORSDOF 5
ENDMDL
MODEL 3
REMARK VINA RESULT:      -7.7      1.700      2.236
REMARK  5 active torsions:
REMARK  status: ('A' for Active; 'I' for Inactive)
REMARK    1  A    between atoms: C7_7  and  N1_8 
REMARK    2  A    between atoms: N1_8  and  C8_9 
REMARK    3  A    between atoms: C12_16  and  C13_17 
REMARK    4  A    between atoms: C13_17  and  N5_18 
REMARK    5  A    between atoms: C16_21  and  N6_22 
ROOT
HETATM    1  C1  UNL     1      21.850   5.079  49.664  1.00  0.00     0.018 C 
HETATM    2  C2  UNL     1      22.900   4.560  49.926  1.00  0.00    -0.078 C 
HETATM    3  C3  UNL     1      24.167   3.963  50.234  1.00  0.00     0.019 A 
HETATM    4  C4  UNL     1      25.212   3.826  49.364  1.00  0.00     0.021 A 
HETATM    5  C5  UNL     1      26.386   3.257  49.773  1.00  0.00     0.004 A 
HETATM    6  C6  UNL     1      26.548   2.811  51.061  1.00  0.00     0.029 A 
HETATM    7  C7  UNL     1      25.553   2.903  52.014  1.00  0.00     0.035 A 
HETATM    8  C19 UNL     1      24.384   3.499  51.505  1.00  0.00     0.050 A 
ENDROOT
BRANCH   7   9
HETATM    9  N1  UNL     1      25.637   2.516  53.404  1.00  0.00    -0.339 N 
HETATM   10  H5  UNL     1      24.806   2.929  53.861  1.00  0.00     0.167 HD
BRANCH   9  11
HETATM   11  C8  UNL     1      26.817   1.742  53.507  1.00  0.00     0.159 A 
HETATM   12  N2  UNL     1      27.877   2.511  53.871  1.00  0.00    -0.220 NA
HETATM   13  C9  UNL     1      29.083   1.879  53.981  1.00  0.00     0.258 A 
HETATM   14  N3  UNL     1      29.203   0.576  53.740  1.00  0.00    -0.161 NA
HETATM   15  N4  UNL     1      28.198  -0.199  53.385  1.00  0.00    -0.240 N 
HETATM   16  C10 UNL     1      28.022  -1.486  53.076  1.00  0.00     0.119 A 
HETATM   17  C18 UNL     1      27.022   0.413  53.279  1.00  0.00     0.112 A 
HETATM   18  C11 UNL     1      26.684  -1.626  52.782  1.00  0.00     0.030 A 
HETATM   19  C12 UNL     1      25.989  -0.400  52.906  1.00  0.00     0.004 A 
BRANCH  19  20
HETATM   20  C13 UNL     1      24.536  -0.468  52.701  1.00  0.00     0.313 C 
BRANCH  20  21
HETATM   21  N5  UNL     1      23.731   0.098  53.736  1.00  0.00     0.094 N 
HETATM   22  C14 UNL     1      22.622   0.917  53.389  1.00  0.00     0.275 C 
HETATM   23  C15 UNL     1      21.529  -0.081  52.991  1.00  0.00     0.067 C 
HETATM   24  C16 UNL     1      21.959  -1.374  53.703  1.00  0.00     0.247 C 
HETATM   25  C17 UNL     1      23.069  -0.893  54.593  1.00  0.00     0.307 C 
BRANCH  24  26
HETATM   26  N6  UNL     1      20.806  -1.825  54.465  1.00  0.00     0.084 N 
HETATM   27  H16 UNL     1      20.925  -1.640  55.495  1.00  0.00     0.313 HD
HETATM   28  H17 UNL     1      20.628  -2.835  54.270  1.00  0.00     0.313 HD
ENDBRANCH  24  26
ENDBRANCH  20  21
ENDBRANCH  19  20
ENDBRANCH   9  11
ENDBRANCH   7   9
TORSDOF 5
ENDMDL
MODEL 4
REMARK VINA RESULT:      -7.6      1.994      6.247
REMARK  5 active torsions:
REMARK  status: ('A' for Active; 'I' for Inactive)
REMARK    1  A    between atoms: C7_7  and  N1_8 
REMARK    2  A    between atoms: N1_8  and  C8_9 
REMARK    3  A    between atoms: C12_16  and  C13_17 
REMARK    4  A    between atoms: C13_17  and  N5_18 
REMARK    5  A    between atoms: C16_21  and  N6_22 
ROOT
HETATM    1  C1  UNL     1      21.539  -1.946  54.407  1.00  0.00     0.018 C 
HETATM    2  C2  UNL     1      21.705  -1.048  53.627  1.00  0.00    -0.078 C 
HETATM    3  C3  UNL     1      21.875   0.030  52.697  1.00  0.00     0.019 A 
HETATM    4  C4  UNL     1      21.309   0.104  51.456  1.00  0.00     0.021 A 
HETATM    5  C5  UNL     1      21.525   1.193  50.658  1.00  0.00     0.004 A 
HETATM    6  C6  UNL     1      22.311   2.237  51.079  1.00  0.00     0.029 A 
HETATM    7  C7  UNL     1      22.927   2.257  52.314  1.00  0.00     0.035 A 
HETATM    8  C19 UNL     1      22.650   1.099  53.064  1.00  0.00     0.050 A 
ENDROOT
BRANCH   7   9
HETATM    9  N1  UNL     1      23.725   3.324  52.874  1.00  0.00    -0.339 N 
HETATM   10  H5  UNL     1      23.801   3.117  53.884  1.00  0.00     0.167 HD
BRANCH   9  11
HETATM   11  C8  UNL     1      24.046   4.164  51.783  1.00  0.00     0.159 A 
HETATM   12  N2  UNL     1      23.187   5.215  51.703  1.00  0.00    -0.220 NA
HETATM   13  C9  UNL     1      23.380   6.088  50.671  1.00  0.00     0.258 A 
HETATM   14  N3  UNL     1      24.362   5.910  49.793  1.00  0.00    -0.161 NA
HETATM   15  N4  UNL     1      25.214   4.905  49.838  1.00  0.00    -0.240 N 
HETATM   16  C10 UNL     1      26.252   4.473  49.118  1.00  0.00     0.119 A 
HETATM   17  C18 UNL     1      25.029   4.053  50.843  1.00  0.00     0.112 A 
HETATM   18  C11 UNL     1      26.690   3.324  49.736  1.00  0.00     0.030 A 
HETATM   19  C12 UNL     1      25.914   3.013  50.878  1.00  0.00     0.004 A 
BRANCH  19  20
HETATM   20  C13 UNL     1      26.364   1.852  51.657  1.00  0.00     0.313 C 
BRANCH  20  21
HETATM   21  N5  UNL     1      26.998   2.142  52.903  1.00  0.00     0.094 N 
HETATM   22  C14 UNL     1      26.330   1.822  54.117  1.00  0.00     0.275 C 
HETATM   23  C15 UNL     1      26.550   0.314  54.279  1.00  0.00     0.067 C 
HETATM   24  C16 UNL     1      27.803   0.049  53.429  1.00  0.00     0.247 C 
HETATM   25  C17 UNL     1      28.270   1.440  53.109  1.00  0.00     0.307 C 
BRANCH  24  26
HETATM   26  N6  UNL     1      28.740  -0.655  54.290  1.00  0.00     0.084 N 
HETATM   27  H16 UNL     1      29.047  -1.569  53.864  1.00  0.00     0.313 HD
HETATM   28  H17 UNL     1      28.317  -0.791  55.234  1.00  0.00     0.313 HD
ENDBRANCH  24  26
ENDBRANCH  20  21
ENDBRANCH  19  20
ENDBRANCH   9  11
ENDBRANCH   7   9
TORSDOF 5
ENDMDL
MODEL 5
REMARK VINA RESULT:      -7.5      1.200      4.598
REMARK  5 active torsions:
REMARK  status: ('A' for Active; 'I' for Inactive)
REMARK    1  A    between atoms: C7_7  and  N1_8 
REMARK    2  A    between atoms: N1_8  and  C8_9 
REMARK    3  A    between atoms: C12_16  and  C13_17 
REMARK    4  A    between atoms: C13_17  and  N5_18 
REMARK    5  A    between atoms: C16_21  and  N6_22 
ROOT
HETATM    1  C1  UNL     1      24.916   6.234  48.256  1.00  0.00     0.018 C 
HETATM    2  C2  UNL     1      24.633   5.667  49.276  1.00  0.00    -0.078 C 
HETATM    3  C3  UNL     1      24.269   4.996  50.490  1.00  0.00     0.019 A 
HETATM    4  C4  UNL     1      23.784   5.601  51.615  1.00  0.00     0.021 A 
HETATM    5  C5  UNL     1      23.449   4.859  52.713  1.00  0.00     0.004 A 
HETATM    6  C6  UNL     1      23.589   3.493  52.716  1.00  0.00     0.029 A 
HETATM    7  C7  UNL     1      24.070   2.789  51.631  1.00  0.00     0.035 A 
HETATM    8  C19 UNL     1      24.389   3.633  50.550  1.00  0.00     0.050 A 
ENDROOT
BRANCH   7   9
HETATM    9  N1  UNL     1      24.204   1.355  51.509  1.00  0.00    -0.339 N 
HETATM   10  H5  UNL     1      25.071   1.199  50.968  1.00  0.00     0.167 HD
BRANCH   9  11
HETATM   11  C8  UNL     1      23.089   0.816  52.193  1.00  0.00     0.159 A 
HETATM   12  N2  UNL     1      21.922   1.240  51.640  1.00  0.00    -0.220 NA
HETATM   13  C9  UNL     1      20.770   0.804  52.230  1.00  0.00     0.258 A 
HETATM   14  N3  UNL     1      20.800   0.005  53.292  1.00  0.00    -0.161 NA
HETATM   15  N4  UNL     1      21.911  -0.426  53.855  1.00  0.00    -0.240 N 
HETATM   16  C10 UNL     1      22.242  -1.194  54.896  1.00  0.00     0.119 A 
HETATM   17  C18 UNL     1      23.035  -0.005  53.282  1.00  0.00     0.112 A 
HETATM   18  C11 UNL     1      23.619  -1.222  54.923  1.00  0.00     0.030 A 
HETATM   19  C12 UNL     1      24.180  -0.454  53.876  1.00  0.00     0.004 A 
BRANCH  19  20
HETATM   20  C13 UNL     1      25.645  -0.497  53.768  1.00  0.00     0.313 C 
BRANCH  20  21
HETATM   21  N5  UNL     1      26.364   0.331  54.683  1.00  0.00     0.094 N 
HETATM   22  C14 UNL     1      27.723   0.032  54.974  1.00  0.00     0.275 C 
HETATM   23  C15 UNL     1      28.494   0.578  53.768  1.00  0.00     0.067 C 
HETATM   24  C16 UNL     1      27.538   1.634  53.189  1.00  0.00     0.247 C 
HETATM   25  C17 UNL     1      26.487   1.731  54.257  1.00  0.00     0.307 C 
BRANCH  24  26
HETATM   26  N6  UNL     1      28.308   2.861  53.069  1.00  0.00     0.084 N 
HETATM   27  H16 UNL     1      29.158   2.728  52.461  1.00  0.00     0.313 HD
HETATM   28  H17 UNL     1      28.562   3.212  54.019  1.00  0.00     0.313 HD
ENDBRANCH  24  26
ENDBRANCH  20  21
ENDBRANCH  19  20
ENDBRANCH   9  11
ENDBRANCH   7   9
TORSDOF 5
ENDMDL
MODEL 6
REMARK VINA RESULT:      -7.5      2.295      5.049
REMARK  5 active torsions:
REMARK  status: ('A' for Active; 'I' for Inactive)
REMARK    1  A    between atoms: C7_7  and  N1_8 
REMARK    2  A    between atoms: N1_8  and  C8_9 
REMARK    3  A    between atoms: C12_16  and  C13_17 
REMARK    4  A    between atoms: C13_17  and  N5_18 
REMARK    5  A    between atoms: C16_21  and  N6_22 
ROOT
HETATM    1  C1  UNL     1      27.335   8.661  48.190  1.00  0.00     0.018 C 
HETATM    2  C2  UNL     1      27.063   7.546  48.542  1.00  0.00    -0.078 C 
HETATM    3  C3  UNL     1      26.763   6.212  48.972  1.00  0.00     0.019 A 
HETATM    4  C4  UNL     1      27.412   5.081  48.563  1.00  0.00     0.021 A 
HETATM    5  C5  UNL     1      27.054   3.857  49.056  1.00  0.00     0.004 A 
HETATM    6  C6  UNL     1      26.039   3.731  49.972  1.00  0.00     0.029 A 
HETATM    7  C7  UNL     1      25.323   4.811  50.448  1.00  0.00     0.035 A 
HETATM    8  C19 UNL     1      25.758   6.026  49.885  1.00  0.00     0.050 A 
ENDROOT
BRANCH   7   9
HETATM    9  N1  UNL     1      24.279   4.796  51.447  1.00  0.00    -0.339 N 
HETATM   10  H5  UNL     1      24.677   5.264  52.277  1.00  0.00     0.167 HD
BRANCH   9  11
HETATM   11  C8  UNL     1      23.181   4.150  50.830  1.00  0.00     0.159 A 
HETATM   12  N2  UNL     1      22.521   4.996  49.994  1.00  0.00    -0.220 NA
HETATM   13  C9  UNL     1      21.424   4.493  49.355  1.00  0.00     0.258 A 
HETATM   14  N3  UNL     1      21.027   3.239  49.549  1.00  0.00    -0.161 NA
HETATM   15  N4  UNL     1      21.641   2.392  50.351  1.00  0.00    -0.240 N 
HETATM   16  C10 UNL     1      21.475   1.126  50.743  1.00  0.00     0.119 A 
HETATM   17  C18 UNL     1      22.711   2.877  50.973  1.00  0.00     0.112 A 
HETATM   18  C11 UNL     1      22.498   0.867  51.627  1.00  0.00     0.030 A 
HETATM   19  C12 UNL     1      23.336   1.992  51.805  1.00  0.00     0.004 A 
BRANCH  19  20
HETATM   20  C13 UNL     1      24.511   1.783  52.663  1.00  0.00     0.313 C 
BRANCH  20  21
HETATM   21  N5  UNL     1      25.237   0.573  52.445  1.00  0.00     0.094 N 
HETATM   22  C14 UNL     1      26.520   0.629  51.835  1.00  0.00     0.275 C 
HETATM   23  C15 UNL     1      27.455   1.066  52.967  1.00  0.00     0.067 C 
HETATM   24  C16 UNL     1      26.685   0.658  54.234  1.00  0.00     0.247 C 
HETATM   25  C17 UNL     1      25.561  -0.164  53.672  1.00  0.00     0.307 C 
BRANCH  24  26
HETATM   26  N6  UNL     1      27.601  -0.143  55.030  1.00  0.00     0.084 N 
HETATM   27  H16 UNL     1      28.210   0.458  55.644  1.00  0.00     0.313 HD
HETATM   28  H17 UNL     1      28.169  -0.756  54.403  1.00  0.00     0.313 HD
ENDBRANCH  24  26
ENDBRANCH  20  21
ENDBRANCH  19  20
ENDBRANCH   9  11
ENDBRANCH   7   9
TORSDOF 5
ENDMDL
MODEL 7
REMARK VINA RESULT:      -7.4      2.421      6.438
REMARK  5 active torsions:
REMARK  status: ('A' for Active; 'I' for Inactive)
REMARK    1  A    between atoms: C7_7  and  N1_8 
REMARK    2  A    between atoms: N1_8  and  C8_9 
REMARK    3  A    between atoms: C12_16  and  C13_17 
REMARK    4  A    between atoms: C13_17  and  N5_18 
REMARK    5  A    between atoms: C16_21  and  N6_22 
ROOT
HETATM    1  C1  UNL     1      28.705   2.445  53.569  1.00  0.00     0.018 C 
HETATM    2  C2  UNL     1      27.634   1.914  53.460  1.00  0.00    -0.078 C 
HETATM    3  C3  UNL     1      26.356   1.272  53.357  1.00  0.00     0.019 A 
HETATM    4  C4  UNL     1      26.122  -0.062  53.532  1.00  0.00     0.021 A 
HETATM    5  C5  UNL     1      24.854  -0.565  53.430  1.00  0.00     0.004 A 
HETATM    6  C6  UNL     1      23.787   0.253  53.151  1.00  0.00     0.029 A 
HETATM    7  C7  UNL     1      23.919   1.613  52.957  1.00  0.00     0.035 A 
HETATM    8  C19 UNL     1      25.255   2.040  53.079  1.00  0.00     0.050 A 
ENDROOT
BRANCH   7   9
HETATM    9  N1  UNL     1      22.862   2.568  52.713  1.00  0.00    -0.339 N 
HETATM   10  H5  UNL     1      23.122   3.417  53.242  1.00  0.00     0.167 HD
BRANCH   9  11
HETATM   11  C8  UNL     1      21.951   1.907  51.855  1.00  0.00     0.159 A 
HETATM   12  N2  UNL     1      20.997   1.249  52.565  1.00  0.00    -0.220 NA
HETATM   13  C9  UNL     1      20.070   0.551  51.845  1.00  0.00     0.258 A 
HETATM   14  N3  UNL     1      20.109   0.520  50.517  1.00  0.00    -0.161 NA
HETATM   15  N4  UNL     1      21.018   1.145  49.795  1.00  0.00    -0.240 N 
HETATM   16  C10 UNL     1      21.310   1.282  48.499  1.00  0.00     0.119 A 
HETATM   17  C18 UNL     1      21.921   1.828  50.493  1.00  0.00     0.112 A 
HETATM   18  C11 UNL     1      22.428   2.083  48.445  1.00  0.00     0.030 A 
HETATM   19  C12 UNL     1      22.862   2.467  49.736  1.00  0.00     0.004 A 
BRANCH  19  20
HETATM   20  C13 UNL     1      23.997   3.399  49.775  1.00  0.00     0.313 C 
BRANCH  20  21
HETATM   21  N5  UNL     1      23.720   4.739  49.366  1.00  0.00     0.094 N 
HETATM   22  C14 UNL     1      22.476   5.333  49.714  1.00  0.00     0.275 C 
HETATM   23  C15 UNL     1      22.655   5.745  51.179  1.00  0.00     0.067 C 
HETATM   24  C16 UNL     1      24.181   5.851  51.330  1.00  0.00     0.247 C 
HETATM   25  C17 UNL     1      24.650   5.737  49.907  1.00  0.00     0.307 C 
BRANCH  24  26
HETATM   26  N6  UNL     1      24.447   7.167  51.888  1.00  0.00     0.084 N 
HETATM   27  H16 UNL     1      25.233   7.140  52.589  1.00  0.00     0.313 HD
HETATM   28  H17 UNL     1      23.572   7.558  52.302  1.00  0.00     0.313 HD
ENDBRANCH  24  26
ENDBRANCH  20  21
ENDBRANCH  19  20
ENDBRANCH   9  11
ENDBRANCH   7   9
TORSDOF 5
ENDMDL
MODEL 8
REMARK VINA RESULT:      -7.4      1.618      4.869
REMARK  5 active torsions:
REMARK  status: ('A' for Active; 'I' for Inactive)
REMARK    1  A    between atoms: C7_7  and  N1_8 
REMARK    2  A    between atoms: N1_8  and  C8_9 
REMARK    3  A    between atoms: C12_16  and  C13_17 
REMARK    4  A    between atoms: C13_17  and  N5_18 
REMARK    5  A    between atoms: C16_21  and  N6_22 
ROOT
HETATM    1  C1  UNL     1      23.303   8.089  49.273  1.00  0.00     0.018 C 
HETATM    2  C2  UNL     1      23.815   7.035  49.534  1.00  0.00    -0.078 C 
HETATM    3  C3  UNL     1      24.451   5.788  49.846  1.00  0.00     0.019 A 
HETATM    4  C4  UNL     1      25.344   5.132  49.047  1.00  0.00     0.021 A 
HETATM    5  C5  UNL     1      25.907   3.954  49.455  1.00  0.00     0.004 A 
HETATM    6  C6  UNL     1      25.592   3.402  50.672  1.00  0.00     0.029 A 
HETATM    7  C7  UNL     1      24.702   3.986  51.550  1.00  0.00     0.035 A 
HETATM    8  C19 UNL     1      24.173   5.191  51.047  1.00  0.00     0.050 A 
ENDROOT
BRANCH   7   9
HETATM    9  N1  UNL     1      24.343   3.520  52.870  1.00  0.00    -0.339 N 
HETATM   10  H5  UNL     1      24.888   4.099  53.530  1.00  0.00     0.167 HD
BRANCH   9  11
HETATM   11  C8  UNL     1      23.402   2.485  52.658  1.00  0.00     0.159 A 
HETATM   12  N2  UNL     1      22.278   2.959  52.058  1.00  0.00    -0.220 NA
HETATM   13  C9  UNL     1      21.282   2.055  51.821  1.00  0.00     0.258 A 
HETATM   14  N3  UNL     1      21.414   0.778  52.166  1.00  0.00    -0.161 NA
HETATM   15  N4  UNL     1      22.488   0.283  52.749  1.00  0.00    -0.240 N 
HETATM   16  C10 UNL     1      22.889  -0.906  53.206  1.00  0.00     0.119 A 
HETATM   17  C18 UNL     1      23.461   1.160  52.979  1.00  0.00     0.112 A 
HETATM   18  C11 UNL     1      24.151  -0.708  53.720  1.00  0.00     0.030 A 
HETATM   19  C12 UNL     1      24.566   0.638  53.588  1.00  0.00     0.004 A 
BRANCH  19  20
HETATM   20  C13 UNL     1      25.939   0.927  54.025  1.00  0.00     0.313 C 
BRANCH  20  21
HETATM   21  N5  UNL     1      26.925   0.983  52.995  1.00  0.00     0.094 N 
HETATM   22  C14 UNL     1      27.971   1.943  53.081  1.00  0.00     0.275 C 
HETATM   23  C15 UNL     1      28.956   1.335  54.084  1.00  0.00     0.067 C 
HETATM   24  C16 UNL     1      28.634  -0.168  54.026  1.00  0.00     0.247 C 
HETATM   25  C17 UNL     1      27.710  -0.249  52.845  1.00  0.00     0.307 C 
BRANCH  24  26
HETATM   26  N6  UNL     1      29.895  -0.847  53.778  1.00  0.00     0.084 N 
HETATM   27  H16 UNL     1      30.244  -1.344  54.639  1.00  0.00     0.313 HD
HETATM   28  H17 UNL     1      30.597  -0.166  53.413  1.00  0.00     0.313 HD
ENDBRANCH  24  26
ENDBRANCH  20  21
ENDBRANCH  19  20
ENDBRANCH   9  11
ENDBRANCH   7   9
TORSDOF 5
ENDMDL
MODEL 9
REMARK VINA RESULT:      -7.3      2.376      6.686
REMARK  5 active torsions:
REMARK  status: ('A' for Active; 'I' for Inactive)
REMARK    1  A    between atoms: C7_7  and  N1_8 
REMARK    2  A    between atoms: N1_8  and  C8_9 
REMARK    3  A    between atoms: C12_16  and  C13_17 
REMARK    4  A    between atoms: C13_17  and  N5_18 
REMARK    5  A    between atoms: C16_21  and  N6_22 
ROOT
HETATM    1  C1  UNL     1      22.691  -1.519  55.332  1.00  0.00     0.018 C 
HETATM    2  C2  UNL     1      21.954  -1.150  54.459  1.00  0.00    -0.078 C 
HETATM    3  C3  UNL     1      21.063  -0.692  53.433  1.00  0.00     0.019 A 
HETATM    4  C4  UNL     1      19.702  -0.802  53.458  1.00  0.00     0.021 A 
HETATM    5  C5  UNL     1      18.946  -0.309  52.430  1.00  0.00     0.004 A 
HETATM    6  C6  UNL     1      19.531   0.307  51.352  1.00  0.00     0.029 A 
HETATM    7  C7  UNL     1      20.896   0.467  51.233  1.00  0.00     0.035 A 
HETATM    8  C19 UNL     1      21.592  -0.069  52.333  1.00  0.00     0.050 A 
ENDROOT
BRANCH   7   9
HETATM    9  N1  UNL     1      21.607   1.145  50.172  1.00  0.00    -0.339 N 
HETATM   10  H5  UNL     1      21.971   0.399  49.556  1.00  0.00     0.167 HD
BRANCH   9  11
HETATM   11  C8  UNL     1      21.477   2.525  50.457  1.00  0.00     0.159 A 
HETATM   12  N2  UNL     1      20.243   2.982  50.115  1.00  0.00    -0.220 NA
HETATM   13  C9  UNL     1      20.004   4.311  50.322  1.00  0.00     0.258 A 
HETATM   14  N3  UNL     1      20.937   5.109  50.831  1.00  0.00    -0.161 NA
HETATM   15  N4  UNL     1      22.143   4.701  51.174  1.00  0.00    -0.240 N 
HETATM   16  C10 UNL     1      23.251   5.250  51.677  1.00  0.00     0.119 A 
HETATM   17  C18 UNL     1      22.379   3.407  50.976  1.00  0.00     0.112 A 
HETATM   18  C11 UNL     1      24.168   4.227  51.779  1.00  0.00     0.030 A 
HETATM   19  C12 UNL     1      23.633   2.997  51.330  1.00  0.00     0.004 A 
BRANCH  19  20
HETATM   20  C13 UNL     1      24.509   1.827  51.487  1.00  0.00     0.313 C 
BRANCH  20  21
HETATM   21  N5  UNL     1      25.519   1.932  52.490  1.00  0.00     0.094 N 
HETATM   22  C14 UNL     1      25.285   1.371  53.776  1.00  0.00     0.275 C 
HETATM   23  C15 UNL     1      25.536  -0.128  53.583  1.00  0.00     0.067 C 
HETATM   24  C16 UNL     1      26.439  -0.175  52.339  1.00  0.00     0.247 C 
HETATM   25  C17 UNL     1      26.784   1.273  52.142  1.00  0.00     0.307 C 
BRANCH  24  26
HETATM   26  N6  UNL     1      27.601  -0.967  52.707  1.00  0.00     0.084 N 
HETATM   27  H16 UNL     1      28.155  -1.261  51.860  1.00  0.00     0.313 HD
HETATM   28  H17 UNL     1      27.302  -1.788  53.279  1.00  0.00     0.313 HD
ENDBRANCH  24  26
ENDBRANCH  20  21
ENDBRANCH  19  20
ENDBRANCH   9  11
ENDBRANCH   7   9
TORSDOF 5
ENDMDL
