MODEL 1
REMARK VINA RESULT:      -9.2      0.000      0.000
REMARK  0 active torsions:
REMARK  status: ('A' for Active; 'I' for Inactive)
ROOT
HETATM    1  C1  UNL     1      22.710   1.364  51.139  1.00  0.00     0.023 C 
HETATM    2  C2  UNL     1      23.081   0.260  52.297  1.00  0.00    -0.134 C 
HETATM    3  C3  UNL     1      23.327  -0.522  53.140  1.00  0.00     0.039 A 
HETATM    4  C4  UNL     1      22.023  -0.750  53.621  1.00  0.00     0.022 A 
HETATM    5  C5  UNL     1      22.338  -1.188  55.048  1.00  0.00     0.002 A 
HETATM    6  C6  UNL     1      23.383  -1.319  55.675  1.00  0.00     0.003 A 
HETATM    7  C7  UNL     1      24.651  -1.042  54.989  1.00  0.00     0.038 A 
HETATM    8  C8  UNL     1      24.565  -0.606  53.614  1.00  0.00     0.089 A 
HETATM    9  O1  UNL     1      25.822  -0.298  52.934  1.00  0.00    -0.317 OA
HETATM   10  C9  UNL     1      26.881   0.008  53.802  1.00  0.00     0.300 A 
HETATM   11  N1  UNL     1      27.825  -1.086  54.001  1.00  0.00    -0.263 NA
HETATM   12  C10 UNL     1      28.960  -0.578  53.807  1.00  0.00     0.116 A 
HETATM   13  C11 UNL     1      29.023   0.861  53.438  1.00  0.00     0.048 A 
HETATM   14  C12 UNL     1      27.711   1.160  53.449  1.00  0.00     0.057 A 
HETATM   15  N2  UNL     1      27.408   2.594  53.185  1.00  0.00    -0.389 N 
HETATM   16  C13 UNL     1      27.159   2.639  51.677  1.00  0.00     0.125 C 
HETATM   17  C14 UNL     1      25.900   1.776  51.576  1.00  0.00     0.037 C 
HETATM   18  C15 UNL     1      25.029   2.823  50.699  1.00  0.00    -0.017 C 
HETATM   19  C16 UNL     1      23.543   3.012  50.038  1.00  0.00    -0.003 C 
HETATM   20  C17 UNL     1      22.447   2.218  50.272  1.00  0.00     0.066 C 
HETATM   21  H8  UNL     1      27.467   3.117  54.105  1.00  0.00     0.159 HD
ENDROOT
TORSDOF 0
ENDMDL
MODEL 2
REMARK VINA RESULT:      -8.9      1.226      4.345
REMARK  0 active torsions:
REMARK  status: ('A' for Active; 'I' for Inactive)
ROOT
HETATM    1  C1  UNL     1      22.303   1.200  52.163  1.00  0.00     0.023 C 
HETATM    2  C2  UNL     1      23.548   2.145  51.657  1.00  0.00    -0.134 C 
HETATM    3  C3  UNL     1      24.433   2.816  51.271  1.00  0.00     0.039 A 
HETATM    4  C4  UNL     1      23.855   3.279  50.073  1.00  0.00     0.022 A 
HETATM    5  C5  UNL     1      25.116   3.571  49.264  1.00  0.00     0.002 A 
HETATM    6  C6  UNL     1      26.312   3.453  49.503  1.00  0.00     0.003 A 
HETATM    7  C7  UNL     1      26.718   2.960  50.825  1.00  0.00     0.038 A 
HETATM    8  C8  UNL     1      25.658   2.621  51.747  1.00  0.00     0.089 A 
HETATM    9  O1  UNL     1      26.053   2.099  53.053  1.00  0.00    -0.317 OA
HETATM   10  C9  UNL     1      27.340   1.539  53.079  1.00  0.00     0.300 A 
HETATM   11  N1  UNL     1      28.357   2.407  53.664  1.00  0.00    -0.263 NA
HETATM   12  C10 UNL     1      28.952   1.689  54.509  1.00  0.00     0.116 A 
HETATM   13  C11 UNL     1      28.484   0.289  54.683  1.00  0.00     0.048 A 
HETATM   14  C12 UNL     1      27.490   0.262  53.776  1.00  0.00     0.057 A 
HETATM   15  N2  UNL     1      26.830  -1.064  53.631  1.00  0.00    -0.389 N 
HETATM   16  C13 UNL     1      25.635  -0.980  54.581  1.00  0.00     0.125 C 
HETATM   17  C14 UNL     1      24.819   0.125  53.909  1.00  0.00     0.037 C 
HETATM   18  C15 UNL     1      23.412  -0.675  53.880  1.00  0.00    -0.017 C 
HETATM   19  C16 UNL     1      21.864  -0.525  53.369  1.00  0.00    -0.003 C 
HETATM   20  C17 UNL     1      21.376   0.464  52.548  1.00  0.00     0.066 C 
HETATM   21  H8  UNL     1      27.389  -1.635  52.935  1.00  0.00     0.159 HD
ENDROOT
TORSDOF 0
ENDMDL
MODEL 3
REMARK VINA RESULT:      -8.5      2.092      4.801
REMARK  0 active torsions:
REMARK  status: ('A' for Active; 'I' for Inactive)
ROOT
HETATM    1  C1  UNL     1      23.850  -0.540  53.451  1.00  0.00     0.023 C 
HETATM    2  C2  UNL     1      25.390  -0.014  53.226  1.00  0.00    -0.134 C 
HETATM    3  C3  UNL     1      26.495   0.363  53.089  1.00  0.00     0.039 A 
HETATM    4  C4  UNL     1      27.083  -0.261  54.206  1.00  0.00     0.022 A 
HETATM    5  C5  UNL     1      28.262   0.678  54.447  1.00  0.00     0.002 A 
HETATM    6  C6  UNL     1      28.648   1.700  53.892  1.00  0.00     0.003 A 
HETATM    7  C7  UNL     1      27.901   2.189  52.726  1.00  0.00     0.038 A 
HETATM    8  C8  UNL     1      26.735   1.431  52.335  1.00  0.00     0.089 A 
HETATM    9  O1  UNL     1      25.967   1.930  51.196  1.00  0.00    -0.317 OA
HETATM   10  C9  UNL     1      26.151   3.297  50.938  1.00  0.00     0.300 A 
HETATM   11  N1  UNL     1      27.054   3.579  49.827  1.00  0.00    -0.263 NA
HETATM   12  C10 UNL     1      26.431   4.396  49.099  1.00  0.00     0.116 A 
HETATM   13  C11 UNL     1      25.062   4.794  49.518  1.00  0.00     0.048 A 
HETATM   14  C12 UNL     1      24.950   4.081  50.654  1.00  0.00     0.057 A 
HETATM   15  N2  UNL     1      23.680   4.311  51.398  1.00  0.00    -0.389 N 
HETATM   16  C13 UNL     1      22.759   3.199  50.894  1.00  0.00     0.125 C 
HETATM   17  C14 UNL     1      23.497   1.966  51.418  1.00  0.00     0.037 C 
HETATM   18  C15 UNL     1      22.218   1.275  52.131  1.00  0.00    -0.017 C 
HETATM   19  C16 UNL     1      21.804  -0.028  53.032  1.00  0.00    -0.003 C 
HETATM   20  C17 UNL     1      22.675  -0.913  53.622  1.00  0.00     0.066 C 
HETATM   21  H8  UNL     1      23.813   5.157  52.021  1.00  0.00     0.159 HD
ENDROOT
TORSDOF 0
ENDMDL
MODEL 4
REMARK VINA RESULT:      -8.4      2.548      4.986
REMARK  0 active torsions:
REMARK  status: ('A' for Active; 'I' for Inactive)
ROOT
HETATM    1  C1  UNL     1      25.317  -0.683  53.466  1.00  0.00     0.023 C 
HETATM    2  C2  UNL     1      23.729  -0.364  53.740  1.00  0.00    -0.134 C 
HETATM    3  C3  UNL     1      22.587  -0.160  53.929  1.00  0.00     0.039 A 
HETATM    4  C4  UNL     1      22.211  -1.427  54.415  1.00  0.00     0.022 A 
HETATM    5  C5  UNL     1      20.729  -1.424  54.050  1.00  0.00     0.002 A 
HETATM    6  C6  UNL     1      20.005  -0.611  53.489  1.00  0.00     0.003 A 
HETATM    7  C7  UNL     1      20.585   0.668  53.063  1.00  0.00     0.038 A 
HETATM    8  C8  UNL     1      21.994   0.861  53.320  1.00  0.00     0.089 A 
HETATM    9  O1  UNL     1      22.586   2.119  52.870  1.00  0.00    -0.317 OA
HETATM   10  C9  UNL     1      21.870   2.753  51.844  1.00  0.00     0.300 A 
HETATM   11  N1  UNL     1      21.044   3.870  52.293  1.00  0.00    -0.263 NA
HETATM   12  C10 UNL     1      21.333   4.821  51.520  1.00  0.00     0.116 A 
HETATM   13  C11 UNL     1      22.359   4.578  50.473  1.00  0.00     0.048 A 
HETATM   14  C12 UNL     1      22.650   3.289  50.728  1.00  0.00     0.057 A 
HETATM   15  N2  UNL     1      23.626   2.683  49.781  1.00  0.00    -0.389 N 
HETATM   16  C13 UNL     1      24.973   2.874  50.477  1.00  0.00     0.125 C 
HETATM   17  C14 UNL     1      24.777   1.995  51.713  1.00  0.00     0.037 C 
HETATM   18  C15 UNL     1      26.152   1.153  51.562  1.00  0.00    -0.017 C 
HETATM   19  C16 UNL     1      26.987  -0.070  52.259  1.00  0.00    -0.003 C 
HETATM   20  C17 UNL     1      26.518  -0.917  53.234  1.00  0.00     0.066 C 
HETATM   21  H8  UNL     1      23.089   2.325  48.940  1.00  0.00     0.159 HD
ENDROOT
TORSDOF 0
ENDMDL
MODEL 5
REMARK VINA RESULT:      -8.2      1.745      2.434
REMARK  0 active torsions:
REMARK  status: ('A' for Active; 'I' for Inactive)
ROOT
HETATM    1  C1  UNL     1      21.500   1.527  49.421  1.00  0.00     0.023 C 
HETATM    2  C2  UNL     1      21.430   0.652  50.810  1.00  0.00    -0.134 C 
HETATM    3  C3  UNL     1      21.358   0.037  51.809  1.00  0.00     0.039 A 
HETATM    4  C4  UNL     1      19.962  -0.141  51.861  1.00  0.00     0.022 A 
HETATM    5  C5  UNL     1      19.771  -0.316  53.365  1.00  0.00     0.002 A 
HETATM    6  C6  UNL     1      20.543  -0.304  54.316  1.00  0.00     0.003 A 
HETATM    7  C7  UNL     1      21.975  -0.115  54.054  1.00  0.00     0.038 A 
HETATM    8  C8  UNL     1      22.365   0.073  52.675  1.00  0.00     0.089 A 
HETATM    9  O1  UNL     1      23.785   0.294  52.409  1.00  0.00    -0.317 OA
HETATM   10  C9  UNL     1      24.504   0.778  53.513  1.00  0.00     0.300 A 
HETATM   11  N1  UNL     1      25.294  -0.237  54.202  1.00  0.00    -0.263 NA
HETATM   12  C10 UNL     1      26.444   0.262  54.311  1.00  0.00     0.116 A 
HETATM   13  C11 UNL     1      26.670   1.615  53.739  1.00  0.00     0.048 A 
HETATM   14  C12 UNL     1      25.439   1.874  53.261  1.00  0.00     0.057 A 
HETATM   15  N2  UNL     1      25.286   3.231  52.667  1.00  0.00    -0.389 N 
HETATM   16  C13 UNL     1      25.554   3.005  51.178  1.00  0.00     0.125 C 
HETATM   17  C14 UNL     1      24.375   2.101  50.816  1.00  0.00     0.037 C 
HETATM   18  C15 UNL     1      23.877   2.953  49.531  1.00  0.00    -0.017 C 
HETATM   19  C16 UNL     1      22.702   2.982  48.391  1.00  0.00    -0.003 C 
HETATM   20  C17 UNL     1      21.566   2.208  48.381  1.00  0.00     0.066 C 
HETATM   21  H8  UNL     1      25.052   3.907  53.448  1.00  0.00     0.159 HD
ENDROOT
TORSDOF 0
ENDMDL
MODEL 6
REMARK VINA RESULT:      -8.1      2.460      4.963
REMARK  0 active torsions:
REMARK  status: ('A' for Active; 'I' for Inactive)
ROOT
HETATM    1  C1  UNL     1      26.060   3.260  50.452  1.00  0.00     0.023 C 
HETATM    2  C2  UNL     1      26.070   2.093  51.608  1.00  0.00    -0.134 C 
HETATM    3  C3  UNL     1      26.096   1.245  52.423  1.00  0.00     0.039 A 
HETATM    4  C4  UNL     1      27.464   0.918  52.361  1.00  0.00     0.022 A 
HETATM    5  C5  UNL     1      27.415  -0.525  52.855  1.00  0.00     0.002 A 
HETATM    6  C6  UNL     1      26.502  -1.262  53.208  1.00  0.00     0.003 A 
HETATM    7  C7  UNL     1      25.134  -0.728  53.215  1.00  0.00     0.038 A 
HETATM    8  C8  UNL     1      24.967   0.638  52.773  1.00  0.00     0.089 A 
HETATM    9  O1  UNL     1      23.605   1.167  52.746  1.00  0.00    -0.317 OA
HETATM   10  C9  UNL     1      22.610   0.180  52.675  1.00  0.00     0.300 A 
HETATM   11  N1  UNL     1      21.953  -0.099  53.948  1.00  0.00    -0.263 NA
HETATM   12  C10 UNL     1      20.721  -0.044  53.699  1.00  0.00     0.116 A 
HETATM   13  C11 UNL     1      20.308   0.284  52.309  1.00  0.00     0.048 A 
HETATM   14  C12 UNL     1      21.517   0.412  51.732  1.00  0.00     0.057 A 
HETATM   15  N2  UNL     1      21.470   0.675  50.267  1.00  0.00    -0.389 N 
HETATM   16  C13 UNL     1      21.531   2.200  50.172  1.00  0.00     0.125 C 
HETATM   17  C14 UNL     1      22.927   2.461  50.741  1.00  0.00     0.037 C 
HETATM   18  C15 UNL     1      23.446   3.405  49.532  1.00  0.00    -0.017 C 
HETATM   19  C16 UNL     1      24.771   4.223  49.026  1.00  0.00    -0.003 C 
HETATM   20  C17 UNL     1      26.032   4.131  49.563  1.00  0.00     0.066 C 
HETATM   21  H8  UNL     1      21.405  -0.257  49.767  1.00  0.00     0.159 HD
ENDROOT
TORSDOF 0
ENDMDL
MODEL 7
REMARK VINA RESULT:      -8.0      3.317      6.573
REMARK  0 active torsions:
REMARK  status: ('A' for Active; 'I' for Inactive)
ROOT
HETATM    1  C1  UNL     1      25.438   1.233  53.171  1.00  0.00     0.023 C 
HETATM    2  C2  UNL     1      24.270   2.124  52.435  1.00  0.00    -0.134 C 
HETATM    3  C3  UNL     1      23.443   2.781  51.920  1.00  0.00     0.039 A 
HETATM    4  C4  UNL     1      24.138   4.004  51.856  1.00  0.00     0.022 A 
HETATM    5  C5  UNL     1      22.963   4.978  51.835  1.00  0.00     0.002 A 
HETATM    6  C6  UNL     1      21.748   4.828  51.873  1.00  0.00     0.003 A 
HETATM    7  C7  UNL     1      21.211   3.463  51.927  1.00  0.00     0.038 A 
HETATM    8  C8  UNL     1      22.175   2.386  51.957  1.00  0.00     0.089 A 
HETATM    9  O1  UNL     1      21.649   1.025  52.044  1.00  0.00    -0.317 OA
HETATM   10  C9  UNL     1      20.350   0.946  52.569  1.00  0.00     0.300 A 
HETATM   11  N1  UNL     1      19.310   0.760  51.563  1.00  0.00    -0.263 NA
HETATM   12  C10 UNL     1      18.622  -0.208  51.980  1.00  0.00     0.116 A 
HETATM   13  C11 UNL     1      19.033  -0.854  53.254  1.00  0.00     0.048 A 
HETATM   14  C12 UNL     1      20.103  -0.098  53.562  1.00  0.00     0.057 A 
HETATM   15  N2  UNL     1      20.736  -0.438  54.867  1.00  0.00    -0.389 N 
HETATM   16  C13 UNL     1      21.843  -1.422  54.486  1.00  0.00     0.125 C 
HETATM   17  C14 UNL     1      22.746  -0.518  53.647  1.00  0.00     0.037 C 
HETATM   18  C15 UNL     1      24.128  -0.873  54.414  1.00  0.00    -0.017 C 
HETATM   19  C16 UNL     1      25.718  -0.488  54.429  1.00  0.00    -0.003 C 
HETATM   20  C17 UNL     1      26.305   0.551  53.748  1.00  0.00     0.066 C 
HETATM   21  H8  UNL     1      20.226   0.094  55.628  1.00  0.00     0.159 HD
ENDROOT
TORSDOF 0
ENDMDL
MODEL 8
REMARK VINA RESULT:      -7.9      4.088      7.954
REMARK  0 active torsions:
REMARK  status: ('A' for Active; 'I' for Inactive)
ROOT
HETATM    1  C1  UNL     1      26.579   2.520  50.783  1.00  0.00     0.023 C 
HETATM    2  C2  UNL     1      26.517   3.764  49.712  1.00  0.00    -0.134 C 
HETATM    3  C3  UNL     1      26.495   4.662  48.953  1.00  0.00     0.039 A 
HETATM    4  C4  UNL     1      27.872   4.752  48.674  1.00  0.00     0.022 A 
HETATM    5  C5  UNL     1      27.967   6.220  48.268  1.00  0.00     0.002 A 
HETATM    6  C6  UNL     1      27.145   7.125  48.193  1.00  0.00     0.003 A 
HETATM    7  C7  UNL     1      25.744   6.828  48.517  1.00  0.00     0.038 A 
HETATM    8  C8  UNL     1      25.445   5.476  48.931  1.00  0.00     0.089 A 
HETATM    9  O1  UNL     1      24.058   5.180  49.286  1.00  0.00    -0.317 OA
HETATM   10  C9  UNL     1      23.309   6.310  49.651  1.00  0.00     0.300 A 
HETATM   11  N1  UNL     1      22.421   6.801  48.603  1.00  0.00    -0.263 NA
HETATM   12  C10 UNL     1      21.299   6.930  49.159  1.00  0.00     0.116 A 
HETATM   13  C11 UNL     1      21.189   6.558  50.594  1.00  0.00     0.048 A 
HETATM   14  C12 UNL     1      22.458   6.182  50.834  1.00  0.00     0.057 A 
HETATM   15  N2  UNL     1      22.727   5.805  52.250  1.00  0.00    -0.389 N 
HETATM   16  C13 UNL     1      22.530   4.289  52.264  1.00  0.00     0.125 C 
HETATM   17  C14 UNL     1      23.671   3.850  51.344  1.00  0.00     0.037 C 
HETATM   18  C15 UNL     1      24.291   2.732  52.339  1.00  0.00    -0.017 C 
HETATM   19  C16 UNL     1      25.527   1.666  52.453  1.00  0.00    -0.003 C 
HETATM   20  C17 UNL     1      26.613   1.593  51.613  1.00  0.00     0.066 C 
HETATM   21  H8  UNL     1      22.958   6.689  52.787  1.00  0.00     0.159 HD
ENDROOT
TORSDOF 0
ENDMDL
MODEL 9
REMARK VINA RESULT:      -7.8      2.839      5.250
REMARK  0 active torsions:
REMARK  status: ('A' for Active; 'I' for Inactive)
ROOT
HETATM    1  C1  UNL     1      23.789   4.453  51.786  1.00  0.00     0.023 C 
HETATM    2  C2  UNL     1      24.547   3.091  52.305  1.00  0.00    -0.134 C 
HETATM    3  C3  UNL     1      25.104   2.116  52.655  1.00  0.00     0.039 A 
HETATM    4  C4  UNL     1      26.379   2.383  52.120  1.00  0.00     0.022 A 
HETATM    5  C5  UNL     1      26.904   0.959  51.960  1.00  0.00     0.002 A 
HETATM    6  C6  UNL     1      26.423  -0.144  52.190  1.00  0.00     0.003 A 
HETATM    7  C7  UNL     1      25.073  -0.214  52.763  1.00  0.00     0.038 A 
HETATM    8  C8  UNL     1      24.397   1.043  52.991  1.00  0.00     0.089 A 
HETATM    9  O1  UNL     1      23.040   0.980  53.531  1.00  0.00    -0.317 OA
HETATM   10  C9  UNL     1      22.392  -0.244  53.307  1.00  0.00     0.300 A 
HETATM   11  N1  UNL     1      22.369  -1.129  54.467  1.00  0.00    -0.263 NA
HETATM   12  C10 UNL     1      21.167  -1.485  54.582  1.00  0.00     0.116 A 
HETATM   13  C11 UNL     1      20.185  -0.939  53.610  1.00  0.00     0.048 A 
HETATM   14  C12 UNL     1      21.002  -0.182  52.855  1.00  0.00     0.057 A 
HETATM   15  N2  UNL     1      20.333   0.475  51.699  1.00  0.00    -0.389 N 
HETATM   16  C13 UNL     1      19.949   1.854  52.238  1.00  0.00     0.125 C 
HETATM   17  C14 UNL     1      21.334   2.450  52.493  1.00  0.00     0.037 C 
HETATM   18  C15 UNL     1      21.084   3.841  51.701  1.00  0.00    -0.017 C 
HETATM   19  C16 UNL     1      21.849   5.222  51.268  1.00  0.00    -0.003 C 
HETATM   20  C17 UNL     1      23.196   5.470  51.381  1.00  0.00     0.066 C 
HETATM   21  H8  UNL     1      20.330  -0.209  50.889  1.00  0.00     0.159 HD
ENDROOT
TORSDOF 0
ENDMDL
