MODEL 1
REMARK VINA RESULT:      -8.8      0.000      0.000
REMARK  6 active torsions:
REMARK  status: ('A' for Active; 'I' for Inactive)
REMARK    1  A    between atoms: N1_2  and  C2_3 
REMARK    2  A    between atoms: N1_2  and  C21_28 
REMARK    3  A    between atoms: C3_4  and  C4_5 
REMARK    4  A    between atoms: C5_6  and  C6_7 
REMARK    5  A    between atoms: C6_7  and  N2_8 
REMARK    6  A    between atoms: N2_8  and  C7_9 
ROOT
HETATM    1  C7  UNL     1      24.516   2.433  51.324  1.00  0.00     0.041 C 
HETATM    2  C8  UNL     1      23.206   2.316  51.212  1.00  0.00     0.045 C 
HETATM    3  C9  UNL     1      22.262   1.520  52.014  1.00  0.00     0.012 A 
HETATM    4  C10 UNL     1      20.938   1.765  51.816  1.00  0.00     0.130 A 
HETATM    5  N3  UNL     1      20.011   1.075  52.516  1.00  0.00    -0.271 NA
HETATM    6  C11 UNL     1      20.340   0.128  53.426  1.00  0.00     0.141 A 
HETATM    7  C12 UNL     1      21.676  -0.162  53.668  1.00  0.00     0.089 A 
HETATM    8  C13 UNL     1      22.060  -1.160  54.626  1.00  0.00     0.103 C 
HETATM    9  N4  UNL     1      22.351  -1.971  55.396  1.00  0.00    -0.191 NA
HETATM   10  C14 UNL     1      22.613   0.550  52.948  1.00  0.00     0.067 A 
HETATM   11  N5  UNL     1      23.915   0.112  53.333  1.00  0.00    -0.353 N 
HETATM   12  C15 UNL     1      25.170   0.766  53.193  1.00  0.00     0.047 A 
HETATM   13  C16 UNL     1      26.160   0.301  54.031  1.00  0.00     0.057 A 
HETATM   14  C17 UNL     1      27.408   0.884  53.956  1.00  0.00     0.074 A 
HETATM   15 CL1  UNL     1      28.657   0.276  55.033  1.00  0.00    -0.081 Cl
HETATM   16  C18 UNL     1      27.651   1.916  53.054  1.00  0.00     0.139 A 
HETATM   17  F1  UNL     1      28.890   2.477  52.997  1.00  0.00    -0.204 F 
HETATM   18  C19 UNL     1      26.656   2.393  52.202  1.00  0.00     0.060 A 
HETATM   19  C20 UNL     1      25.413   1.801  52.287  1.00  0.00     0.020 A 
HETATM   20  H14 UNL     1      23.982  -0.825  53.788  1.00  0.00     0.166 HD
ENDROOT
BRANCH   1  21
HETATM   21  N2  UNL     1      25.042   3.302  50.348  1.00  0.00    -0.386 N 
HETATM   22  H10 UNL     1      25.921   2.748  50.128  1.00  0.00     0.160 HD
BRANCH  21  23
HETATM   23  C6  UNL     1      24.683   4.554  49.716  1.00  0.00     0.147 C 
BRANCH  23  24
HETATM   24  C5  UNL     1      25.964   5.189  49.311  1.00  0.00    -0.007 C 
HETATM   25  C4  UNL     1      27.004   4.477  48.923  1.00  0.00    -0.001 C 
BRANCH  25  26
HETATM   26  C3  UNL     1      28.274   5.075  48.519  1.00  0.00     0.017 C 
HETATM   27  C2  UNL     1      28.423   6.313  48.076  1.00  0.00     0.087 C 
BRANCH  27  28
HETATM   28  N1  UNL     1      29.710   6.801  47.707  1.00  0.00    -0.369 N 
HETATM   29  C1  UNL     1      30.178   7.785  46.747  1.00  0.00     0.151 C 
BRANCH  28  30
HETATM   30  C21 UNL     1      30.849   6.236  48.402  1.00  0.00     0.347 C 
HETATM   31  F2  UNL     1      31.630   5.511  47.496  1.00  0.00    -0.234 F 
ENDBRANCH  28  30
ENDBRANCH  27  28
ENDBRANCH  25  26
ENDBRANCH  23  24
ENDBRANCH  21  23
ENDBRANCH   1  21
TORSDOF 6
ENDMDL
MODEL 2
REMARK VINA RESULT:      -8.4      2.800      4.498
REMARK  6 active torsions:
REMARK  status: ('A' for Active; 'I' for Inactive)
REMARK    1  A    between atoms: N1_2  and  C2_3 
REMARK    2  A    between atoms: N1_2  and  C21_28 
REMARK    3  A    between atoms: C3_4  and  C4_5 
REMARK    4  A    between atoms: C5_6  and  C6_7 
REMARK    5  A    between atoms: C6_7  and  N2_8 
REMARK    6  A    between atoms: N2_8  and  C7_9 
ROOT
HETATM    1  C7  UNL     1      25.321   2.603  50.922  1.00  0.00     0.041 C 
HETATM    2  C8  UNL     1      26.501   2.514  51.507  1.00  0.00     0.045 C 
HETATM    3  C9  UNL     1      26.923   1.683  52.646  1.00  0.00     0.012 A 
HETATM    4  C10 UNL     1      28.260   1.627  52.895  1.00  0.00     0.130 A 
HETATM    5  N3  UNL     1      28.726   0.884  53.923  1.00  0.00    -0.271 NA
HETATM    6  C11 UNL     1      27.911   0.175  54.738  1.00  0.00     0.141 A 
HETATM    7  C12 UNL     1      26.539   0.196  54.529  1.00  0.00     0.089 A 
HETATM    8  C13 UNL     1      25.645  -0.544  55.376  1.00  0.00     0.103 C 
HETATM    9  N4  UNL     1      24.940  -1.140  56.071  1.00  0.00    -0.191 NA
HETATM   10  C14 UNL     1      26.075   0.957  53.477  1.00  0.00     0.067 A 
HETATM   11  N5  UNL     1      24.654   0.853  53.427  1.00  0.00    -0.353 N 
HETATM   12  C15 UNL     1      23.762   1.107  52.348  1.00  0.00     0.047 A 
HETATM   13  C16 UNL     1      22.525   0.512  52.469  1.00  0.00     0.057 A 
HETATM   14  C17 UNL     1      21.603   0.710  51.462  1.00  0.00     0.074 A 
HETATM   15 CL1  UNL     1      20.031  -0.057  51.635  1.00  0.00    -0.081 Cl
HETATM   16  C18 UNL     1      21.923   1.494  50.357  1.00  0.00     0.139 A 
HETATM   17  F1  UNL     1      20.998   1.677  49.376  1.00  0.00    -0.204 F 
HETATM   18  C19 UNL     1      23.172   2.100  50.226  1.00  0.00     0.060 A 
HETATM   19  C20 UNL     1      24.084   1.893  51.240  1.00  0.00     0.020 A 
HETATM   20  H14 UNL     1      24.172   0.544  54.301  1.00  0.00     0.166 HD
ENDROOT
BRANCH   1  21
HETATM   21  N2  UNL     1      25.340   3.526  49.858  1.00  0.00    -0.386 N 
HETATM   22  H10 UNL     1      25.149   2.837  49.073  1.00  0.00     0.160 HD
BRANCH  21  23
HETATM   23  C6  UNL     1      25.531   4.948  49.672  1.00  0.00     0.147 C 
BRANCH  23  24
HETATM   24  C5  UNL     1      26.825   5.096  48.955  1.00  0.00    -0.007 C 
HETATM   25  C4  UNL     1      27.322   6.278  48.648  1.00  0.00    -0.001 C 
BRANCH  25  26
HETATM   26  C3  UNL     1      28.590   6.451  47.945  1.00  0.00     0.017 C 
HETATM   27  C2  UNL     1      29.660   5.690  48.108  1.00  0.00     0.087 C 
BRANCH  27  28
HETATM   28  N1  UNL     1      30.852   5.945  47.370  1.00  0.00    -0.369 N 
HETATM   29  C1  UNL     1      31.336   7.075  46.597  1.00  0.00     0.151 C 
BRANCH  28  30
HETATM   30  C21 UNL     1      31.844   4.889  47.342  1.00  0.00     0.347 C 
HETATM   31  F2  UNL     1      31.226   3.683  46.998  1.00  0.00    -0.234 F 
ENDBRANCH  28  30
ENDBRANCH  27  28
ENDBRANCH  25  26
ENDBRANCH  23  24
ENDBRANCH  21  23
ENDBRANCH   1  21
TORSDOF 6
ENDMDL
MODEL 3
REMARK VINA RESULT:      -8.3      4.090      9.084
REMARK  6 active torsions:
REMARK  status: ('A' for Active; 'I' for Inactive)
REMARK    1  A    between atoms: N1_2  and  C2_3 
REMARK    2  A    between atoms: N1_2  and  C21_28 
REMARK    3  A    between atoms: C3_4  and  C4_5 
REMARK    4  A    between atoms: C5_6  and  C6_7 
REMARK    5  A    between atoms: C6_7  and  N2_8 
REMARK    6  A    between atoms: N2_8  and  C7_9 
ROOT
HETATM    1  C7  UNL     1      21.927   0.657  51.489  1.00  0.00     0.041 C 
HETATM    2  C8  UNL     1      21.743  -0.164  52.506  1.00  0.00     0.045 C 
HETATM    3  C9  UNL     1      22.669  -0.542  53.587  1.00  0.00     0.012 A 
HETATM    4  C10 UNL     1      22.136  -1.237  54.629  1.00  0.00     0.130 A 
HETATM    5  N3  UNL     1      22.923  -1.619  55.660  1.00  0.00    -0.271 NA
HETATM    6  C11 UNL     1      24.246  -1.340  55.709  1.00  0.00     0.141 A 
HETATM    7  C12 UNL     1      24.842  -0.635  54.672  1.00  0.00     0.089 A 
HETATM    8  C13 UNL     1      26.244  -0.323  54.692  1.00  0.00     0.103 C 
HETATM    9  N4  UNL     1      27.374  -0.086  54.721  1.00  0.00    -0.191 NA
HETATM   10  C14 UNL     1      24.029  -0.249  53.626  1.00  0.00     0.067 A 
HETATM   11  N5  UNL     1      24.817   0.456  52.669  1.00  0.00    -0.353 N 
HETATM   12  C15 UNL     1      24.413   1.364  51.652  1.00  0.00     0.047 A 
HETATM   13  C16 UNL     1      25.410   2.194  51.189  1.00  0.00     0.057 A 
HETATM   14  C17 UNL     1      25.097   3.105  50.202  1.00  0.00     0.074 A 
HETATM   15 CL1  UNL     1      26.383   4.154  49.624  1.00  0.00    -0.081 Cl
HETATM   16  C18 UNL     1      23.804   3.176  49.692  1.00  0.00     0.139 A 
HETATM   17  F1  UNL     1      23.517   4.081  48.717  1.00  0.00    -0.204 F 
HETATM   18  C19 UNL     1      22.787   2.340  50.154  1.00  0.00     0.060 A 
HETATM   19  C20 UNL     1      23.115   1.434  51.142  1.00  0.00     0.020 A 
HETATM   20  H14 UNL     1      25.849   0.298  52.700  1.00  0.00     0.166 HD
ENDROOT
BRANCH   1  21
HETATM   21  N2  UNL     1      20.779   0.740  50.678  1.00  0.00    -0.386 N 
HETATM   22  H10 UNL     1      21.165   0.221  49.836  1.00  0.00     0.160 HD
BRANCH  21  23
HETATM   23  C6  UNL     1      19.442   1.288  50.760  1.00  0.00     0.147 C 
BRANCH  23  24
HETATM   24  C5  UNL     1      18.547   0.139  51.057  1.00  0.00    -0.007 C 
HETATM   25  C4  UNL     1      17.638   0.191  52.011  1.00  0.00    -0.001 C 
BRANCH  25  26
HETATM   26  C3  UNL     1      16.747  -0.922  52.325  1.00  0.00     0.017 C 
HETATM   27  C2  UNL     1      17.140  -2.147  52.634  1.00  0.00     0.087 C 
BRANCH  27  28
HETATM   28  N1  UNL     1      16.186  -3.164  52.924  1.00  0.00    -0.369 N 
HETATM   29  C1  UNL     1      14.784  -3.353  52.597  1.00  0.00     0.151 C 
BRANCH  28  30
HETATM   30  C21 UNL     1      16.646  -4.289  53.713  1.00  0.00     0.347 C 
HETATM   31  F2  UNL     1      17.743  -4.880  53.080  1.00  0.00    -0.234 F 
ENDBRANCH  28  30
ENDBRANCH  27  28
ENDBRANCH  25  26
ENDBRANCH  23  24
ENDBRANCH  21  23
ENDBRANCH   1  21
TORSDOF 6
ENDMDL
MODEL 4
REMARK VINA RESULT:      -8.0      3.166      4.827
REMARK  6 active torsions:
REMARK  status: ('A' for Active; 'I' for Inactive)
REMARK    1  A    between atoms: N1_2  and  C2_3 
REMARK    2  A    between atoms: N1_2  and  C21_28 
REMARK    3  A    between atoms: C3_4  and  C4_5 
REMARK    4  A    between atoms: C5_6  and  C6_7 
REMARK    5  A    between atoms: C6_7  and  N2_8 
REMARK    6  A    between atoms: N2_8  and  C7_9 
ROOT
HETATM    1  C7  UNL     1      26.065   2.886  51.140  1.00  0.00     0.041 C 
HETATM    2  C8  UNL     1      27.162   2.676  51.842  1.00  0.00     0.045 C 
HETATM    3  C9  UNL     1      27.407   1.727  52.941  1.00  0.00     0.012 A 
HETATM    4  C10 UNL     1      28.701   1.570  53.332  1.00  0.00     0.130 A 
HETATM    5  N3  UNL     1      29.006   0.715  54.334  1.00  0.00    -0.271 NA
HETATM    6  C11 UNL     1      28.066  -0.009  54.985  1.00  0.00     0.141 A 
HETATM    7  C12 UNL     1      26.731   0.113  54.627  1.00  0.00     0.089 A 
HETATM    8  C13 UNL     1      25.708  -0.640  55.298  1.00  0.00     0.103 C 
HETATM    9  N4  UNL     1      24.898  -1.249  55.853  1.00  0.00    -0.191 NA
HETATM   10  C14 UNL     1      26.432   0.987  53.603  1.00  0.00     0.067 A 
HETATM   11  N5  UNL     1      25.022   0.974  53.385  1.00  0.00    -0.353 N 
HETATM   12  C15 UNL     1      24.276   1.372  52.242  1.00  0.00     0.047 A 
HETATM   13  C16 UNL     1      23.005   0.845  52.169  1.00  0.00     0.057 A 
HETATM   14  C17 UNL     1      22.218   1.183  51.088  1.00  0.00     0.074 A 
HETATM   15 CL1  UNL     1      20.600   0.502  51.014  1.00  0.00    -0.081 Cl
HETATM   16  C18 UNL     1      22.704   2.037  50.101  1.00  0.00     0.139 A 
HETATM   17  F1  UNL     1      21.910   2.358  49.043  1.00  0.00    -0.204 F 
HETATM   18  C19 UNL     1      23.989   2.574  50.165  1.00  0.00     0.060 A 
HETATM   19  C20 UNL     1      24.765   2.227  51.252  1.00  0.00     0.020 A 
HETATM   20  H14 UNL     1      24.428   0.622  54.168  1.00  0.00     0.166 HD
ENDROOT
BRANCH   1  21
HETATM   21  N2  UNL     1      26.254   3.892  50.173  1.00  0.00    -0.386 N 
HETATM   22  H10 UNL     1      25.584   4.607  50.583  1.00  0.00     0.160 HD
BRANCH  21  23
HETATM   23  C6  UNL     1      27.033   4.096  48.971  1.00  0.00     0.147 C 
BRANCH  23  24
HETATM   24  C5  UNL     1      27.135   5.568  48.794  1.00  0.00    -0.007 C 
HETATM   25  C4  UNL     1      28.194   6.134  48.250  1.00  0.00    -0.001 C 
BRANCH  25  26
HETATM   26  C3  UNL     1      28.321   7.577  48.064  1.00  0.00     0.017 C 
HETATM   27  C2  UNL     1      29.207   8.346  48.675  1.00  0.00     0.087 C 
BRANCH  27  28
HETATM   28  N1  UNL     1      29.246   9.749  48.423  1.00  0.00    -0.369 N 
HETATM   29  C1  UNL     1      30.162  10.618  47.706  1.00  0.00     0.151 C 
BRANCH  28  30
HETATM   30  C21 UNL     1      28.166  10.543  48.971  1.00  0.00     0.347 C 
HETATM   31  F2  UNL     1      27.715   9.955  50.157  1.00  0.00    -0.234 F 
ENDBRANCH  28  30
ENDBRANCH  27  28
ENDBRANCH  25  26
ENDBRANCH  23  24
ENDBRANCH  21  23
ENDBRANCH   1  21
TORSDOF 6
ENDMDL
MODEL 5
REMARK VINA RESULT:      -7.7      3.543      4.821
REMARK  6 active torsions:
REMARK  status: ('A' for Active; 'I' for Inactive)
REMARK    1  A    between atoms: N1_2  and  C2_3 
REMARK    2  A    between atoms: N1_2  and  C21_28 
REMARK    3  A    between atoms: C3_4  and  C4_5 
REMARK    4  A    between atoms: C5_6  and  C6_7 
REMARK    5  A    between atoms: C6_7  and  N2_8 
REMARK    6  A    between atoms: N2_8  and  C7_9 
ROOT
HETATM    1  C7  UNL     1      25.552   2.930  51.028  1.00  0.00     0.041 C 
HETATM    2  C8  UNL     1      26.210   2.360  52.021  1.00  0.00     0.045 C 
HETATM    3  C9  UNL     1      25.802   1.255  52.905  1.00  0.00     0.012 A 
HETATM    4  C10 UNL     1      26.771   0.722  53.698  1.00  0.00     0.130 A 
HETATM    5  N3  UNL     1      26.475  -0.296  54.536  1.00  0.00    -0.271 NA
HETATM    6  C11 UNL     1      25.233  -0.826  54.629  1.00  0.00     0.141 A 
HETATM    7  C12 UNL     1      24.207  -0.320  53.842  1.00  0.00     0.089 A 
HETATM    8  C13 UNL     1      22.877  -0.859  53.916  1.00  0.00     0.103 C 
HETATM    9  N4  UNL     1      21.812  -1.300  53.994  1.00  0.00    -0.191 NA
HETATM   10  C14 UNL     1      24.521   0.718  52.991  1.00  0.00     0.067 A 
HETATM   11  N5  UNL     1      23.347   1.096  52.276  1.00  0.00    -0.353 N 
HETATM   12  C15 UNL     1      23.219   1.808  51.052  1.00  0.00     0.047 A 
HETATM   13  C16 UNL     1      22.011   1.641  50.409  1.00  0.00     0.057 A 
HETATM   14  C17 UNL     1      21.810   2.299  49.214  1.00  0.00     0.074 A 
HETATM   15 CL1  UNL     1      20.263   2.073  48.411  1.00  0.00    -0.081 Cl
HETATM   16  C18 UNL     1      22.806   3.111  48.679  1.00  0.00     0.139 A 
HETATM   17  F1  UNL     1      22.586   3.751  47.498  1.00  0.00    -0.204 F 
HETATM   18  C19 UNL     1      24.031   3.286  49.321  1.00  0.00     0.060 A 
HETATM   19  C20 UNL     1      24.220   2.621  50.516  1.00  0.00     0.020 A 
HETATM   20  H14 UNL     1      22.431   0.818  52.694  1.00  0.00     0.166 HD
ENDROOT
BRANCH   1  21
HETATM   21  N2  UNL     1      26.305   3.962  50.436  1.00  0.00    -0.386 N 
HETATM   22  H10 UNL     1      26.110   4.711  51.163  1.00  0.00     0.160 HD
BRANCH  21  23
HETATM   23  C6  UNL     1      27.128   4.156  49.261  1.00  0.00     0.147 C 
BRANCH  23  24
HETATM   24  C5  UNL     1      26.883   5.552  48.817  1.00  0.00    -0.007 C 
HETATM   25  C4  UNL     1      27.797   6.250  48.171  1.00  0.00    -0.001 C 
BRANCH  25  26
HETATM   26  C3  UNL     1      27.584   7.623  47.723  1.00  0.00     0.017 C 
HETATM   27  C2  UNL     1      26.401   8.186  47.538  1.00  0.00     0.087 C 
BRANCH  27  28
HETATM   28  N1  UNL     1      26.302   9.538  47.097  1.00  0.00    -0.369 N 
HETATM   29  C1  UNL     1      26.661  10.227  45.871  1.00  0.00     0.151 C 
BRANCH  28  30
HETATM   30  C21 UNL     1      25.724  10.489  48.025  1.00  0.00     0.347 C 
HETATM   31  F2  UNL     1      25.983  10.072  49.335  1.00  0.00    -0.234 F 
ENDBRANCH  28  30
ENDBRANCH  27  28
ENDBRANCH  25  26
ENDBRANCH  23  24
ENDBRANCH  21  23
ENDBRANCH   1  21
TORSDOF 6
ENDMDL
MODEL 6
REMARK VINA RESULT:      -7.7      3.097      4.765
REMARK  6 active torsions:
REMARK  status: ('A' for Active; 'I' for Inactive)
REMARK    1  A    between atoms: N1_2  and  C2_3 
REMARK    2  A    between atoms: N1_2  and  C21_28 
REMARK    3  A    between atoms: C3_4  and  C4_5 
REMARK    4  A    between atoms: C5_6  and  C6_7 
REMARK    5  A    between atoms: C6_7  and  N2_8 
REMARK    6  A    between atoms: N2_8  and  C7_9 
ROOT
HETATM    1  C7  UNL     1      23.454   1.963  50.925  1.00  0.00     0.041 C 
HETATM    2  C8  UNL     1      24.753   2.107  51.112  1.00  0.00     0.045 C 
HETATM    3  C9  UNL     1      25.630   1.491  52.121  1.00  0.00     0.012 A 
HETATM    4  C10 UNL     1      26.970   1.646  51.939  1.00  0.00     0.130 A 
HETATM    5  N3  UNL     1      27.840   1.108  52.822  1.00  0.00    -0.271 NA
HETATM    6  C11 UNL     1      27.436   0.407  53.907  1.00  0.00     0.141 A 
HETATM    7  C12 UNL     1      26.081   0.219  54.142  1.00  0.00     0.089 A 
HETATM    8  C13 UNL     1      25.618  -0.519  55.284  1.00  0.00     0.103 C 
HETATM    9  N4  UNL     1      25.264  -1.110  56.212  1.00  0.00    -0.191 NA
HETATM   10  C14 UNL     1      25.203   0.772  53.233  1.00  0.00     0.067 A 
HETATM   11  N5  UNL     1      23.870   0.473  53.644  1.00  0.00    -0.353 N 
HETATM   12  C15 UNL     1      22.667   0.467  52.886  1.00  0.00     0.047 A 
HETATM   13  C16 UNL     1      21.640  -0.266  53.439  1.00  0.00     0.057 A 
HETATM   14  C17 UNL     1      20.439  -0.322  52.763  1.00  0.00     0.074 A 
HETATM   15 CL1  UNL     1      19.141  -1.263  53.485  1.00  0.00    -0.081 Cl
HETATM   16  C18 UNL     1      20.277   0.349  51.554  1.00  0.00     0.139 A 
HETATM   17  F1  UNL     1      19.083   0.281  50.905  1.00  0.00    -0.204 F 
HETATM   18  C19 UNL     1      21.310   1.094  50.987  1.00  0.00     0.060 A 
HETATM   19  C20 UNL     1      22.506   1.141  51.674  1.00  0.00     0.020 A 
HETATM   20  H14 UNL     1      23.732   0.218  54.647  1.00  0.00     0.166 HD
ENDROOT
BRANCH   1  21
HETATM   21  N2  UNL     1      23.000   2.737  49.840  1.00  0.00    -0.386 N 
HETATM   22  H10 UNL     1      22.879   1.944  49.144  1.00  0.00     0.160 HD
BRANCH  21  23
HETATM   23  C6  UNL     1      22.723   4.128  49.552  1.00  0.00     0.147 C 
BRANCH  23  24
HETATM   24  C5  UNL     1      23.963   4.674  48.942  1.00  0.00    -0.007 C 
HETATM   25  C4  UNL     1      24.639   5.661  49.498  1.00  0.00    -0.001 C 
BRANCH  25  26
HETATM   26  C3  UNL     1      25.860   6.216  48.920  1.00  0.00     0.017 C 
HETATM   27  C2  UNL     1      26.526   7.251  49.404  1.00  0.00     0.087 C 
BRANCH  27  28
HETATM   28  N1  UNL     1      27.711   7.716  48.762  1.00  0.00    -0.369 N 
HETATM   29  C1  UNL     1      28.280   9.030  48.526  1.00  0.00     0.151 C 
BRANCH  28  30
HETATM   30  C21 UNL     1      28.588   6.710  48.199  1.00  0.00     0.347 C 
HETATM   31  F2  UNL     1      28.730   6.936  46.826  1.00  0.00    -0.234 F 
ENDBRANCH  28  30
ENDBRANCH  27  28
ENDBRANCH  25  26
ENDBRANCH  23  24
ENDBRANCH  21  23
ENDBRANCH   1  21
TORSDOF 6
ENDMDL
MODEL 7
REMARK VINA RESULT:      -7.6      3.541      9.483
REMARK  6 active torsions:
REMARK  status: ('A' for Active; 'I' for Inactive)
REMARK    1  A    between atoms: N1_2  and  C2_3 
REMARK    2  A    between atoms: N1_2  and  C21_28 
REMARK    3  A    between atoms: C3_4  and  C4_5 
REMARK    4  A    between atoms: C5_6  and  C6_7 
REMARK    5  A    between atoms: C6_7  and  N2_8 
REMARK    6  A    between atoms: N2_8  and  C7_9 
ROOT
HETATM    1  C7  UNL     1      25.989   4.189  49.771  1.00  0.00     0.041 C 
HETATM    2  C8  UNL     1      27.158   4.339  49.178  1.00  0.00     0.045 C 
HETATM    3  C9  UNL     1      27.714   5.511  48.482  1.00  0.00     0.012 A 
HETATM    4  C10 UNL     1      29.036   5.458  48.160  1.00  0.00     0.130 A 
HETATM    5  N3  UNL     1      29.619   6.495  47.521  1.00  0.00    -0.271 NA
HETATM    6  C11 UNL     1      28.939   7.613  47.175  1.00  0.00     0.141 A 
HETATM    7  C12 UNL     1      27.589   7.721  47.478  1.00  0.00     0.089 A 
HETATM    8  C13 UNL     1      26.837   8.893  47.125  1.00  0.00     0.103 C 
HETATM    9  N4  UNL     1      26.246   9.840  46.827  1.00  0.00    -0.191 NA
HETATM   10  C14 UNL     1      27.004   6.656  48.132  1.00  0.00     0.067 A 
HETATM   11  N5  UNL     1      25.627   6.953  48.352  1.00  0.00    -0.353 N 
HETATM   12  C15 UNL     1      24.716   6.391  49.289  1.00  0.00     0.047 A 
HETATM   13  C16 UNL     1      23.608   7.167  49.553  1.00  0.00     0.057 A 
HETATM   14  C17 UNL     1      22.677   6.691  50.452  1.00  0.00     0.074 A 
HETATM   15 CL1  UNL     1      21.271   7.695  50.776  1.00  0.00    -0.081 Cl
HETATM   16  C18 UNL     1      22.859   5.458  51.071  1.00  0.00     0.139 A 
HETATM   17  F1  UNL     1      21.927   5.008  51.955  1.00  0.00    -0.204 F 
HETATM   18  C19 UNL     1      23.977   4.666  50.811  1.00  0.00     0.060 A 
HETATM   19  C20 UNL     1      24.901   5.154  49.909  1.00  0.00     0.020 A 
HETATM   20  H14 UNL     1      25.201   7.691  47.748  1.00  0.00     0.166 HD
ENDROOT
BRANCH   1  21
HETATM   21  N2  UNL     1      25.850   2.899  50.320  1.00  0.00    -0.386 N 
HETATM   22  H10 UNL     1      25.036   2.579  49.717  1.00  0.00     0.160 HD
BRANCH  21  23
HETATM   23  C6  UNL     1      26.479   2.092  51.342  1.00  0.00     0.147 C 
BRANCH  23  24
HETATM   24  C5  UNL     1      25.407   1.222  51.893  1.00  0.00    -0.007 C 
HETATM   25  C4  UNL     1      24.628   1.614  52.882  1.00  0.00    -0.001 C 
BRANCH  25  26
HETATM   26  C3  UNL     1      23.569   0.779  53.441  1.00  0.00     0.017 C 
HETATM   27  C2  UNL     1      22.313   0.766  53.025  1.00  0.00     0.087 C 
BRANCH  27  28
HETATM   28  N1  UNL     1      21.353  -0.089  53.641  1.00  0.00    -0.369 N 
HETATM   29  C1  UNL     1      19.963  -0.406  53.366  1.00  0.00     0.151 C 
BRANCH  28  30
HETATM   30  C21 UNL     1      21.791  -0.837  54.801  1.00  0.00     0.347 C 
HETATM   31  F2  UNL     1      21.797  -2.202  54.495  1.00  0.00    -0.234 F 
ENDBRANCH  28  30
ENDBRANCH  27  28
ENDBRANCH  25  26
ENDBRANCH  23  24
ENDBRANCH  21  23
ENDBRANCH   1  21
TORSDOF 6
ENDMDL
MODEL 8
REMARK VINA RESULT:      -7.6      2.530      3.058
REMARK  6 active torsions:
REMARK  status: ('A' for Active; 'I' for Inactive)
REMARK    1  A    between atoms: N1_2  and  C2_3 
REMARK    2  A    between atoms: N1_2  and  C21_28 
REMARK    3  A    between atoms: C3_4  and  C4_5 
REMARK    4  A    between atoms: C5_6  and  C6_7 
REMARK    5  A    between atoms: C6_7  and  N2_8 
REMARK    6  A    between atoms: N2_8  and  C7_9 
ROOT
HETATM    1  C7  UNL     1      22.670   1.903  50.134  1.00  0.00     0.041 C 
HETATM    2  C8  UNL     1      21.468   1.403  50.355  1.00  0.00     0.045 C 
HETATM    3  C9  UNL     1      20.963   0.653  51.517  1.00  0.00     0.012 A 
HETATM    4  C10 UNL     1      19.617   0.454  51.574  1.00  0.00     0.130 A 
HETATM    5  N3  UNL     1      19.077  -0.225  52.610  1.00  0.00    -0.271 NA
HETATM    6  C11 UNL     1      19.824  -0.730  53.619  1.00  0.00     0.141 A 
HETATM    7  C12 UNL     1      21.202  -0.557  53.611  1.00  0.00     0.089 A 
HETATM    8  C13 UNL     1      22.024  -1.080  54.666  1.00  0.00     0.103 C 
HETATM    9  N4  UNL     1      22.671  -1.514  55.519  1.00  0.00    -0.191 NA
HETATM   10  C14 UNL     1      21.742   0.138  52.549  1.00  0.00     0.067 A 
HETATM   11  N5  UNL     1      23.155   0.210  52.719  1.00  0.00    -0.353 N 
HETATM   12  C15 UNL     1      24.095   1.111  52.146  1.00  0.00     0.047 A 
HETATM   13  C16 UNL     1      25.291   1.206  52.822  1.00  0.00     0.057 A 
HETATM   14  C17 UNL     1      26.255   2.060  52.329  1.00  0.00     0.074 A 
HETATM   15 CL1  UNL     1      27.775   2.166  53.205  1.00  0.00    -0.081 Cl
HETATM   16  C18 UNL     1      26.016   2.803  51.176  1.00  0.00     0.139 A 
HETATM   17  F1  UNL     1      26.981   3.640  50.706  1.00  0.00    -0.204 F 
HETATM   18  C19 UNL     1      24.808   2.715  50.485  1.00  0.00     0.060 A 
HETATM   19  C20 UNL     1      23.853   1.856  50.990  1.00  0.00     0.020 A 
HETATM   20  H14 UNL     1      23.590  -0.494  53.357  1.00  0.00     0.166 HD
ENDROOT
BRANCH   1  21
HETATM   21  N2  UNL     1      22.737   2.553  48.887  1.00  0.00    -0.386 N 
HETATM   22  H10 UNL     1      23.754   2.336  48.672  1.00  0.00     0.160 HD
BRANCH  21  23
HETATM   23  C6  UNL     1      21.860   3.308  48.019  1.00  0.00     0.147 C 
BRANCH  23  24
HETATM   24  C5  UNL     1      22.508   4.632  47.834  1.00  0.00    -0.007 C 
HETATM   25  C4  UNL     1      23.155   5.236  48.812  1.00  0.00    -0.001 C 
BRANCH  25  26
HETATM   26  C3  UNL     1      23.802   6.536  48.657  1.00  0.00     0.017 C 
HETATM   27  C2  UNL     1      25.109   6.739  48.657  1.00  0.00     0.087 C 
BRANCH  27  28
HETATM   28  N1  UNL     1      25.639   8.053  48.498  1.00  0.00    -0.369 N 
HETATM   29  C1  UNL     1      25.723   9.217  49.362  1.00  0.00     0.151 C 
BRANCH  28  30
HETATM   30  C21 UNL     1      26.244   8.365  47.219  1.00  0.00     0.347 C 
HETATM   31  F2  UNL     1      25.510   7.754  46.199  1.00  0.00    -0.234 F 
ENDBRANCH  28  30
ENDBRANCH  27  28
ENDBRANCH  25  26
ENDBRANCH  23  24
ENDBRANCH  21  23
ENDBRANCH   1  21
TORSDOF 6
ENDMDL
MODEL 9
REMARK VINA RESULT:      -7.6      3.129      4.614
REMARK  6 active torsions:
REMARK  status: ('A' for Active; 'I' for Inactive)
REMARK    1  A    between atoms: N1_2  and  C2_3 
REMARK    2  A    between atoms: N1_2  and  C21_28 
REMARK    3  A    between atoms: C3_4  and  C4_5 
REMARK    4  A    between atoms: C5_6  and  C6_7 
REMARK    5  A    between atoms: C6_7  and  N2_8 
REMARK    6  A    between atoms: N2_8  and  C7_9 
ROOT
HETATM    1  C7  UNL     1      25.634   3.196  50.213  1.00  0.00     0.041 C 
HETATM    2  C8  UNL     1      26.490   2.655  51.061  1.00  0.00     0.045 C 
HETATM    3  C9  UNL     1      26.295   1.555  52.019  1.00  0.00     0.012 A 
HETATM    4  C10 UNL     1      27.416   1.055  52.608  1.00  0.00     0.130 A 
HETATM    5  N3  UNL     1      27.318   0.043  53.498  1.00  0.00    -0.271 NA
HETATM    6  C11 UNL     1      26.133  -0.512  53.843  1.00  0.00     0.141 A 
HETATM    7  C12 UNL     1      24.958  -0.041  53.273  1.00  0.00     0.089 A 
HETATM    8  C13 UNL     1      23.683  -0.607  53.617  1.00  0.00     0.103 C 
HETATM    9  N4  UNL     1      22.666  -1.069  53.910  1.00  0.00    -0.191 NA
HETATM   10  C14 UNL     1      25.070   0.992  52.365  1.00  0.00     0.067 A 
HETATM   11  N5  UNL     1      23.768   1.333  51.896  1.00  0.00    -0.353 N 
HETATM   12  C15 UNL     1      23.380   2.024  50.715  1.00  0.00     0.047 A 
HETATM   13  C16 UNL     1      22.073   1.821  50.329  1.00  0.00     0.057 A 
HETATM   14  C17 UNL     1      21.621   2.457  49.191  1.00  0.00     0.074 A 
HETATM   15 CL1  UNL     1      19.951   2.186  48.716  1.00  0.00    -0.081 Cl
HETATM   16  C18 UNL     1      22.471   3.282  48.459  1.00  0.00     0.139 A 
HETATM   17  F1  UNL     1      22.003   3.900  47.340  1.00  0.00    -0.204 F 
HETATM   18  C19 UNL     1      23.795   3.493  48.841  1.00  0.00     0.060 A 
HETATM   19  C20 UNL     1      24.234   2.851  49.981  1.00  0.00     0.020 A 
HETATM   20  H14 UNL     1      22.961   1.042  52.491  1.00  0.00     0.166 HD
ENDROOT
BRANCH   1  21
HETATM   21  N2  UNL     1      26.228   4.235  49.472  1.00  0.00    -0.386 N 
HETATM   22  H10 UNL     1      27.058   3.685  49.101  1.00  0.00     0.160 HD
BRANCH  21  23
HETATM   23  C6  UNL     1      25.973   5.629  49.179  1.00  0.00     0.147 C 
BRANCH  23  24
HETATM   24  C5  UNL     1      27.245   6.171  48.633  1.00  0.00    -0.007 C 
HETATM   25  C4  UNL     1      28.292   5.402  48.407  1.00  0.00    -0.001 C 
BRANCH  25  26
HETATM   26  C3  UNL     1      29.552   5.909  47.871  1.00  0.00     0.017 C 
HETATM   27  C2  UNL     1      30.734   5.337  48.039  1.00  0.00     0.087 C 
BRANCH  27  28
HETATM   28  N1  UNL     1      31.907   5.915  47.472  1.00  0.00    -0.369 N 
HETATM   29  C1  UNL     1      32.143   6.900  46.433  1.00  0.00     0.151 C 
BRANCH  28  30
HETATM   30  C21 UNL     1      33.179   5.468  48.002  1.00  0.00     0.347 C 
HETATM   31  F2  UNL     1      34.082   6.535  47.998  1.00  0.00    -0.234 F 
ENDBRANCH  28  30
ENDBRANCH  27  28
ENDBRANCH  25  26
ENDBRANCH  23  24
ENDBRANCH  21  23
ENDBRANCH   1  21
TORSDOF 6
ENDMDL
