MODEL 1
REMARK VINA RESULT:      -7.7      0.000      0.000
REMARK  8 active torsions:
REMARK  status: ('A' for Active; 'I' for Inactive)
REMARK    1  A    between atoms: N1_2  and  C2_3 
REMARK    2  A    between atoms: C2_3  and  N2_5 
REMARK    3  A    between atoms: N2_5  and  C4_6 
REMARK    4  A    between atoms: N4_13  and  C10_14 
REMARK    5  A    between atoms: C10_14  and  C11_15 
REMARK    6  A    between atoms: C11_15  and  C12_16 
REMARK    7  A    between atoms: C13_17  and  C14_18 
REMARK    8  A    between atoms: C16_20  and  C17_21 
ROOT
HETATM    1  C4  UNL     1      20.263  -0.686  53.615  1.00  0.00     0.034 A 
HETATM    2  C5  UNL     1      20.714   0.206  52.669  1.00  0.00     0.032 A 
HETATM    3  C6  UNL     1      22.061   0.488  52.661  1.00  0.00     0.034 A 
HETATM    4  C7  UNL     1      22.898  -0.112  53.573  1.00  0.00     0.064 A 
HETATM    5  C8  UNL     1      22.487  -1.017  54.545  1.00  0.00     0.014 A 
HETATM    6  C9  UNL     1      23.600  -1.396  55.264  1.00  0.00     0.152 A 
HETATM    7  N3  UNL     1      24.638  -0.748  54.749  1.00  0.00    -0.184 NA
HETATM    8  N4  UNL     1      24.243   0.019  53.746  1.00  0.00    -0.269 N 
HETATM    9  C18 UNL     1      21.126  -1.290  54.536  1.00  0.00     0.044 A 
ENDROOT
BRANCH   8  10
HETATM   10  C10 UNL     1      25.130   0.848  52.964  1.00  0.00     0.152 C 
BRANCH  10  11
HETATM   11  C11 UNL     1      26.078  -0.094  52.222  1.00  0.00     0.038 C 
BRANCH  11  12
HETATM   12  C12 UNL     1      27.402   0.012  52.750  1.00  0.00     0.006 A 
HETATM   13  C13 UNL     1      28.387  -0.349  53.158  1.00  0.00    -0.060 A 
HETATM   14  C17 UNL     1      27.697  -1.533  52.918  1.00  0.00     0.038 A 
BRANCH  13  15
HETATM   15  C14 UNL     1      29.304  -0.707  53.539  1.00  0.00    -0.065 A 
HETATM   16  C15 UNL     1      30.279  -1.112  53.940  1.00  0.00     0.033 A 
HETATM   17  C16 UNL     1      29.179  -2.039  53.242  1.00  0.00     0.033 A 
ENDBRANCH  13  15
ENDBRANCH  11  12
ENDBRANCH  10  11
ENDBRANCH   8  10
BRANCH   1  18
HETATM   18  N2  UNL     1      18.942  -1.137  53.828  1.00  0.00    -0.344 N 
HETATM   19  H5  UNL     1      18.963  -1.211  54.887  1.00  0.00     0.167 HD
BRANCH  18  20
HETATM   20  C2  UNL     1      17.692  -1.515  53.338  1.00  0.00     0.103 C 
HETATM   21  C3  UNL     1      17.789  -2.799  53.686  1.00  0.00     0.086 C 
BRANCH  20  22
HETATM   22  N1  UNL     1      16.693  -0.752  52.683  1.00  0.00    -0.258 NA
HETATM   23  C1  UNL     1      16.737  -0.419  51.437  1.00  0.00     0.151 C 
ENDBRANCH  20  22
ENDBRANCH  18  20
ENDBRANCH   1  18
TORSDOF 8
ENDMDL
MODEL 2
REMARK VINA RESULT:      -7.5      0.923      1.881
REMARK  8 active torsions:
REMARK  status: ('A' for Active; 'I' for Inactive)
REMARK    1  A    between atoms: N1_2  and  C2_3 
REMARK    2  A    between atoms: C2_3  and  N2_5 
REMARK    3  A    between atoms: N2_5  and  C4_6 
REMARK    4  A    between atoms: N4_13  and  C10_14 
REMARK    5  A    between atoms: C10_14  and  C11_15 
REMARK    6  A    between atoms: C11_15  and  C12_16 
REMARK    7  A    between atoms: C13_17  and  C14_18 
REMARK    8  A    between atoms: C16_20  and  C17_21 
ROOT
HETATM    1  C4  UNL     1      20.387  -0.757  53.779  1.00  0.00     0.034 A 
HETATM    2  C5  UNL     1      21.495  -1.116  54.513  1.00  0.00     0.032 A 
HETATM    3  C6  UNL     1      22.672  -0.459  54.238  1.00  0.00     0.034 A 
HETATM    4  C7  UNL     1      22.711   0.512  53.265  1.00  0.00     0.064 A 
HETATM    5  C8  UNL     1      21.619   0.907  52.500  1.00  0.00     0.014 A 
HETATM    6  C9  UNL     1      22.044   1.894  51.637  1.00  0.00     0.152 A 
HETATM    7  N3  UNL     1      23.336   2.088  51.871  1.00  0.00    -0.184 NA
HETATM    8  N4  UNL     1      23.751   1.279  52.832  1.00  0.00    -0.269 N 
HETATM    9  C18 UNL     1      20.440   0.233  52.792  1.00  0.00     0.044 A 
ENDROOT
BRANCH   8  10
HETATM   10  C10 UNL     1      25.105   1.245  53.333  1.00  0.00     0.152 C 
BRANCH  10  11
HETATM   11  C11 UNL     1      25.869   0.236  52.476  1.00  0.00     0.038 C 
BRANCH  11  12
HETATM   12  C12 UNL     1      27.177   0.016  53.008  1.00  0.00     0.006 A 
HETATM   13  C13 UNL     1      28.108  -0.561  53.264  1.00  0.00    -0.060 A 
HETATM   14  C17 UNL     1      27.319  -1.511  52.622  1.00  0.00     0.038 A 
BRANCH  13  15
HETATM   15  C14 UNL     1      28.973  -1.121  53.496  1.00  0.00    -0.065 A 
HETATM   16  C15 UNL     1      29.911  -1.699  53.740  1.00  0.00     0.033 A 
HETATM   17  C16 UNL     1      29.928  -0.147  53.356  1.00  0.00     0.033 A 
ENDBRANCH  13  15
ENDBRANCH  11  12
ENDBRANCH  10  11
ENDBRANCH   8  10
BRANCH   1  18
HETATM   18  N2  UNL     1      19.077  -1.275  53.868  1.00  0.00    -0.344 N 
HETATM   19  H5  UNL     1      19.112  -1.641  54.864  1.00  0.00     0.167 HD
BRANCH  18  20
HETATM   20  C2  UNL     1      17.826  -1.526  53.302  1.00  0.00     0.103 C 
HETATM   21  C3  UNL     1      17.771  -2.812  53.653  1.00  0.00     0.086 C 
BRANCH  20  22
HETATM   22  N1  UNL     1      16.953  -0.669  52.587  1.00  0.00    -0.258 NA
HETATM   23  C1  UNL     1      17.061  -0.410  51.328  1.00  0.00     0.151 C 
ENDBRANCH  20  22
ENDBRANCH  18  20
ENDBRANCH   1  18
TORSDOF 8
ENDMDL
MODEL 3
REMARK VINA RESULT:      -7.4      2.624      7.501
REMARK  8 active torsions:
REMARK  status: ('A' for Active; 'I' for Inactive)
REMARK    1  A    between atoms: N1_2  and  C2_3 
REMARK    2  A    between atoms: C2_3  and  N2_5 
REMARK    3  A    between atoms: N2_5  and  C4_6 
REMARK    4  A    between atoms: N4_13  and  C10_14 
REMARK    5  A    between atoms: C10_14  and  C11_15 
REMARK    6  A    between atoms: C11_15  and  C12_16 
REMARK    7  A    between atoms: C13_17  and  C14_18 
REMARK    8  A    between atoms: C16_20  and  C17_21 
ROOT
HETATM    1  C4  UNL     1      25.824  -0.081  53.683  1.00  0.00     0.034 A 
HETATM    2  C5  UNL     1      25.328   0.878  52.829  1.00  0.00     0.032 A 
HETATM    3  C6  UNL     1      23.960   1.015  52.765  1.00  0.00     0.034 A 
HETATM    4  C7  UNL     1      23.148   0.215  53.533  1.00  0.00     0.064 A 
HETATM    5  C8  UNL     1      23.605  -0.765  54.408  1.00  0.00     0.014 A 
HETATM    6  C9  UNL     1      22.504  -1.353  54.993  1.00  0.00     0.152 A 
HETATM    7  N3  UNL     1      21.430  -0.755  54.495  1.00  0.00    -0.184 NA
HETATM    8  N4  UNL     1      21.789   0.178  53.627  1.00  0.00    -0.269 N 
HETATM    9  C18 UNL     1      24.987  -0.888  54.460  1.00  0.00     0.044 A 
ENDROOT
BRANCH   8  10
HETATM   10  C10 UNL     1      20.858   1.019  52.913  1.00  0.00     0.152 C 
BRANCH  10  11
HETATM   11  C11 UNL     1      20.493   0.282  51.625  1.00  0.00     0.038 C 
BRANCH  11  12
HETATM   12  C12 UNL     1      21.361   0.677  50.560  1.00  0.00     0.006 A 
HETATM   13  C13 UNL     1      21.645   1.109  49.560  1.00  0.00    -0.060 A 
HETATM   14  C17 UNL     1      20.262   1.261  49.584  1.00  0.00     0.038 A 
BRANCH  13  15
HETATM   15  C14 UNL     1      21.891   1.517  48.619  1.00  0.00    -0.065 A 
HETATM   16  C15 UNL     1      22.168   1.970  47.622  1.00  0.00     0.033 A 
HETATM   17  C16 UNL     1      22.739   2.521  49.011  1.00  0.00     0.033 A 
ENDBRANCH  13  15
ENDBRANCH  11  12
ENDBRANCH  10  11
ENDBRANCH   8  10
BRANCH   1  18
HETATM   18  N2  UNL     1      27.174  -0.415  53.928  1.00  0.00    -0.344 N 
HETATM   19  H5  UNL     1      27.060  -1.459  54.083  1.00  0.00     0.167 HD
BRANCH  18  20
HETATM   20  C2  UNL     1      28.514  -0.047  54.060  1.00  0.00     0.103 C 
HETATM   21  C3  UNL     1      29.018  -1.188  53.586  1.00  0.00     0.086 C 
BRANCH  20  22
HETATM   22  N1  UNL     1      29.094   1.147  54.555  1.00  0.00    -0.258 NA
HETATM   23  C1  UNL     1      28.943   2.306  54.008  1.00  0.00     0.151 C 
ENDBRANCH  20  22
ENDBRANCH  18  20
ENDBRANCH   1  18
TORSDOF 8
ENDMDL
MODEL 4
REMARK VINA RESULT:      -7.3      5.075      7.747
REMARK  8 active torsions:
REMARK  status: ('A' for Active; 'I' for Inactive)
REMARK    1  A    between atoms: N1_2  and  C2_3 
REMARK    2  A    between atoms: C2_3  and  N2_5 
REMARK    3  A    between atoms: N2_5  and  C4_6 
REMARK    4  A    between atoms: N4_13  and  C10_14 
REMARK    5  A    between atoms: C10_14  and  C11_15 
REMARK    6  A    between atoms: C11_15  and  C12_16 
REMARK    7  A    between atoms: C13_17  and  C14_18 
REMARK    8  A    between atoms: C16_20  and  C17_21 
ROOT
HETATM    1  C4  UNL     1      25.588   1.902  52.936  1.00  0.00     0.034 A 
HETATM    2  C5  UNL     1      26.178   1.864  51.693  1.00  0.00     0.032 A 
HETATM    3  C6  UNL     1      25.715   2.752  50.749  1.00  0.00     0.034 A 
HETATM    4  C7  UNL     1      24.704   3.628  51.063  1.00  0.00     0.064 A 
HETATM    5  C8  UNL     1      24.078   3.702  52.303  1.00  0.00     0.014 A 
HETATM    6  C9  UNL     1      23.122   4.692  52.234  1.00  0.00     0.152 A 
HETATM    7  N3  UNL     1      23.168   5.195  51.008  1.00  0.00    -0.184 NA
HETATM    8  N4  UNL     1      24.098   4.579  50.297  1.00  0.00    -0.269 N 
HETATM    9  C18 UNL     1      24.560   2.800  53.243  1.00  0.00     0.044 A 
ENDROOT
BRANCH   8  10
HETATM   10  C10 UNL     1      24.409   4.895  48.923  1.00  0.00     0.152 C 
BRANCH  10  11
HETATM   11  C11 UNL     1      25.448   6.015  48.950  1.00  0.00     0.038 C 
BRANCH  11  12
HETATM   12  C12 UNL     1      26.762   5.482  48.772  1.00  0.00     0.006 A 
HETATM   13  C13 UNL     1      27.851   5.483  48.488  1.00  0.00    -0.060 A 
HETATM   14  C17 UNL     1      27.452   6.783  48.196  1.00  0.00     0.038 A 
BRANCH  13  15
HETATM   15  C14 UNL     1      28.871   5.503  48.216  1.00  0.00    -0.065 A 
HETATM   16  C15 UNL     1      29.959   5.548  47.917  1.00  0.00     0.033 A 
HETATM   17  C16 UNL     1      28.973   6.800  47.783  1.00  0.00     0.033 A 
ENDBRANCH  13  15
ENDBRANCH  11  12
ENDBRANCH  10  11
ENDBRANCH   8  10
BRANCH   1  18
HETATM   18  N2  UNL     1      25.880   1.104  54.065  1.00  0.00    -0.344 N 
HETATM   19  H5  UNL     1      25.291   1.616  54.784  1.00  0.00     0.167 HD
BRANCH  18  20
HETATM   20  C2  UNL     1      26.540   0.025  54.654  1.00  0.00     0.103 C 
HETATM   21  C3  UNL     1      25.444  -0.703  54.876  1.00  0.00     0.086 C 
BRANCH  20  22
HETATM   22  N1  UNL     1      27.917  -0.175  54.920  1.00  0.00    -0.258 NA
HETATM   23  C1  UNL     1      28.803  -0.415  54.012  1.00  0.00     0.151 C 
ENDBRANCH  20  22
ENDBRANCH  18  20
ENDBRANCH   1  18
TORSDOF 8
ENDMDL
MODEL 5
REMARK VINA RESULT:      -7.2      2.759      7.743
REMARK  8 active torsions:
REMARK  status: ('A' for Active; 'I' for Inactive)
REMARK    1  A    between atoms: N1_2  and  C2_3 
REMARK    2  A    between atoms: C2_3  and  N2_5 
REMARK    3  A    between atoms: N2_5  and  C4_6 
REMARK    4  A    between atoms: N4_13  and  C10_14 
REMARK    5  A    between atoms: C10_14  and  C11_15 
REMARK    6  A    between atoms: C11_15  and  C12_16 
REMARK    7  A    between atoms: C13_17  and  C14_18 
REMARK    8  A    between atoms: C16_20  and  C17_21 
ROOT
HETATM    1  C4  UNL     1      25.798   1.538  53.422  1.00  0.00     0.034 A 
HETATM    2  C5  UNL     1      25.102   0.592  52.702  1.00  0.00     0.032 A 
HETATM    3  C6  UNL     1      23.928   0.993  52.107  1.00  0.00     0.034 A 
HETATM    4  C7  UNL     1      23.492   2.290  52.243  1.00  0.00     0.064 A 
HETATM    5  C8  UNL     1      24.160   3.277  52.959  1.00  0.00     0.014 A 
HETATM    6  C9  UNL     1      23.420   4.436  52.868  1.00  0.00     0.152 A 
HETATM    7  N3  UNL     1      22.353   4.163  52.129  1.00  0.00    -0.184 NA
HETATM    8  N4  UNL     1      22.376   2.895  51.748  1.00  0.00    -0.269 N 
HETATM    9  C18 UNL     1      25.343   2.854  53.551  1.00  0.00     0.044 A 
ENDROOT
BRANCH   8  10
HETATM   10  C10 UNL     1      21.362   2.280  50.924  1.00  0.00     0.152 C 
BRANCH  10  11
HETATM   11  C11 UNL     1      20.264   1.788  51.866  1.00  0.00     0.038 C 
BRANCH  11  12
HETATM   12  C12 UNL     1      20.558   0.468  52.330  1.00  0.00     0.006 A 
HETATM   13  C13 UNL     1      20.755  -0.346  53.081  1.00  0.00    -0.060 A 
HETATM   14  C17 UNL     1      20.545   0.773  53.882  1.00  0.00     0.038 A 
BRANCH  13  15
HETATM   15  C14 UNL     1      20.938  -1.095  53.801  1.00  0.00    -0.065 A 
HETATM   16  C15 UNL     1      21.147  -1.882  54.585  1.00  0.00     0.033 A 
HETATM   17  C16 UNL     1      21.672  -0.376  54.709  1.00  0.00     0.033 A 
ENDBRANCH  13  15
ENDBRANCH  11  12
ENDBRANCH  10  11
ENDBRANCH   8  10
BRANCH   1  18
HETATM   18  N2  UNL     1      27.015   1.380  54.119  1.00  0.00    -0.344 N 
HETATM   19  H5  UNL     1      26.764   1.903  55.009  1.00  0.00     0.167 HD
BRANCH  18  20
HETATM   20  C2  UNL     1      28.322   0.896  54.192  1.00  0.00     0.103 C 
HETATM   21  C3  UNL     1      28.917   2.066  53.954  1.00  0.00     0.086 C 
BRANCH  20  22
HETATM   22  N1  UNL     1      28.803  -0.416  54.428  1.00  0.00    -0.258 NA
HETATM   23  C1  UNL     1      29.768  -0.963  53.767  1.00  0.00     0.151 C 
ENDBRANCH  20  22
ENDBRANCH  18  20
ENDBRANCH   1  18
TORSDOF 8
ENDMDL
MODEL 6
REMARK VINA RESULT:      -7.1      2.358      8.552
REMARK  8 active torsions:
REMARK  status: ('A' for Active; 'I' for Inactive)
REMARK    1  A    between atoms: N1_2  and  C2_3 
REMARK    2  A    between atoms: C2_3  and  N2_5 
REMARK    3  A    between atoms: N2_5  and  C4_6 
REMARK    4  A    between atoms: N4_13  and  C10_14 
REMARK    5  A    between atoms: C10_14  and  C11_15 
REMARK    6  A    between atoms: C11_15  and  C12_16 
REMARK    7  A    between atoms: C13_17  and  C14_18 
REMARK    8  A    between atoms: C16_20  and  C17_21 
ROOT
HETATM    1  C4  UNL     1      26.264  -0.191  52.902  1.00  0.00     0.034 A 
HETATM    2  C5  UNL     1      25.211  -0.695  53.631  1.00  0.00     0.032 A 
HETATM    3  C6  UNL     1      23.980  -0.106  53.448  1.00  0.00     0.034 A 
HETATM    4  C7  UNL     1      23.840   0.940  52.567  1.00  0.00     0.064 A 
HETATM    5  C8  UNL     1      24.875   1.481  51.812  1.00  0.00     0.014 A 
HETATM    6  C9  UNL     1      24.351   2.508  51.054  1.00  0.00     0.152 A 
HETATM    7  N3  UNL     1      23.057   2.583  51.339  1.00  0.00    -0.184 NA
HETATM    8  N4  UNL     1      22.733   1.663  52.234  1.00  0.00    -0.269 N 
HETATM    9  C18 UNL     1      26.107   0.874  52.009  1.00  0.00     0.044 A 
ENDROOT
BRANCH   8  10
HETATM   10  C10 UNL     1      21.399   1.472  52.751  1.00  0.00     0.152 C 
BRANCH  10  11
HETATM   11  C11 UNL     1      20.678   0.538  51.780  1.00  0.00     0.038 C 
BRANCH  11  12
HETATM   12  C12 UNL     1      19.574  -0.100  52.427  1.00  0.00     0.006 A 
HETATM   13  C13 UNL     1      18.534  -0.517  52.532  1.00  0.00    -0.060 A 
HETATM   14  C17 UNL     1      18.549  -0.042  51.224  1.00  0.00     0.038 A 
BRANCH  13  15
HETATM   15  C14 UNL     1      17.555  -0.903  52.610  1.00  0.00    -0.065 A 
HETATM   16  C15 UNL     1      16.515  -1.333  52.707  1.00  0.00     0.033 A 
HETATM   17  C16 UNL     1      17.798  -2.013  53.377  1.00  0.00     0.033 A 
ENDBRANCH  13  15
ENDBRANCH  11  12
ENDBRANCH  10  11
ENDBRANCH   8  10
BRANCH   1  18
HETATM   18  N2  UNL     1      27.611  -0.616  52.910  1.00  0.00    -0.344 N 
HETATM   19  H5  UNL     1      27.559  -1.339  52.134  1.00  0.00     0.167 HD
BRANCH  18  20
HETATM   20  C2  UNL     1      28.906  -0.546  53.424  1.00  0.00     0.103 C 
HETATM   21  C3  UNL     1      29.181  -1.844  53.284  1.00  0.00     0.086 C 
BRANCH  20  22
HETATM   22  N1  UNL     1      29.635   0.558  53.930  1.00  0.00    -0.258 NA
HETATM   23  C1  UNL     1      29.134   1.733  54.118  1.00  0.00     0.151 C 
ENDBRANCH  20  22
ENDBRANCH  18  20
ENDBRANCH   1  18
TORSDOF 8
ENDMDL
MODEL 7
REMARK VINA RESULT:      -7.1      3.608      7.190
REMARK  8 active torsions:
REMARK  status: ('A' for Active; 'I' for Inactive)
REMARK    1  A    between atoms: N1_2  and  C2_3 
REMARK    2  A    between atoms: C2_3  and  N2_5 
REMARK    3  A    between atoms: N2_5  and  C4_6 
REMARK    4  A    between atoms: N4_13  and  C10_14 
REMARK    5  A    between atoms: C10_14  and  C11_15 
REMARK    6  A    between atoms: C11_15  and  C12_16 
REMARK    7  A    between atoms: C13_17  and  C14_18 
REMARK    8  A    between atoms: C16_20  and  C17_21 
ROOT
HETATM    1  C4  UNL     1      25.432   0.723  53.156  1.00  0.00     0.034 A 
HETATM    2  C5  UNL     1      25.785   2.036  53.366  1.00  0.00     0.032 A 
HETATM    3  C6  UNL     1      24.854   2.997  53.042  1.00  0.00     0.034 A 
HETATM    4  C7  UNL     1      23.632   2.630  52.530  1.00  0.00     0.064 A 
HETATM    5  C8  UNL     1      23.234   1.318  52.300  1.00  0.00     0.014 A 
HETATM    6  C9  UNL     1      21.955   1.350  51.786  1.00  0.00     0.152 A 
HETATM    7  N3  UNL     1      21.597   2.625  51.708  1.00  0.00    -0.184 NA
HETATM    8  N4  UNL     1      22.576   3.401  52.144  1.00  0.00    -0.269 N 
HETATM    9  C18 UNL     1      24.185   0.363  52.635  1.00  0.00     0.044 A 
ENDROOT
BRANCH   8  10
HETATM   10  C10 UNL     1      22.503   4.842  52.201  1.00  0.00     0.152 C 
BRANCH  10  11
HETATM   11  C11 UNL     1      22.793   5.356  50.791  1.00  0.00     0.038 C 
BRANCH  11  12
HETATM   12  C12 UNL     1      24.202   5.377  50.547  1.00  0.00     0.006 A 
HETATM   13  C13 UNL     1      25.165   5.140  50.016  1.00  0.00    -0.060 A 
HETATM   14  C17 UNL     1      24.213   4.480  49.244  1.00  0.00     0.038 A 
BRANCH  13  15
HETATM   15  C14 UNL     1      26.058   4.905  49.504  1.00  0.00    -0.065 A 
HETATM   16  C15 UNL     1      27.008   4.631  48.959  1.00  0.00     0.033 A 
HETATM   17  C16 UNL     1      26.002   3.536  49.548  1.00  0.00     0.033 A 
ENDBRANCH  13  15
ENDBRANCH  11  12
ENDBRANCH  10  11
ENDBRANCH   8  10
BRANCH   1  18
HETATM   18  N2  UNL     1      26.200  -0.436  53.404  1.00  0.00    -0.344 N 
HETATM   19  H5  UNL     1      25.431  -1.065  53.780  1.00  0.00     0.167 HD
BRANCH  18  20
HETATM   20  C2  UNL     1      27.421  -1.112  53.396  1.00  0.00     0.103 C 
HETATM   21  C3  UNL     1      27.043  -2.070  52.548  1.00  0.00     0.086 C 
BRANCH  20  22
HETATM   22  N1  UNL     1      28.626  -0.839  54.089  1.00  0.00    -0.258 NA
HETATM   23  C1  UNL     1      29.804  -1.074  53.616  1.00  0.00     0.151 C 
ENDBRANCH  20  22
ENDBRANCH  18  20
ENDBRANCH   1  18
TORSDOF 8
ENDMDL
MODEL 8
REMARK VINA RESULT:      -7.0      5.190      8.162
REMARK  8 active torsions:
REMARK  status: ('A' for Active; 'I' for Inactive)
REMARK    1  A    between atoms: N1_2  and  C2_3 
REMARK    2  A    between atoms: C2_3  and  N2_5 
REMARK    3  A    between atoms: N2_5  and  C4_6 
REMARK    4  A    between atoms: N4_13  and  C10_14 
REMARK    5  A    between atoms: C10_14  and  C11_15 
REMARK    6  A    between atoms: C11_15  and  C12_16 
REMARK    7  A    between atoms: C13_17  and  C14_18 
REMARK    8  A    between atoms: C16_20  and  C17_21 
ROOT
HETATM    1  C4  UNL     1      26.400   5.237  49.324  1.00  0.00     0.034 A 
HETATM    2  C5  UNL     1      26.906   3.957  49.302  1.00  0.00     0.032 A 
HETATM    3  C6  UNL     1      26.263   3.012  50.069  1.00  0.00     0.034 A 
HETATM    4  C7  UNL     1      25.163   3.362  50.816  1.00  0.00     0.064 A 
HETATM    5  C8  UNL     1      24.618   4.640  50.870  1.00  0.00     0.014 A 
HETATM    6  C9  UNL     1      23.533   4.600  51.719  1.00  0.00     0.152 A 
HETATM    7  N3  UNL     1      23.427   3.353  52.159  1.00  0.00    -0.184 NA
HETATM    8  N4  UNL     1      24.384   2.602  51.637  1.00  0.00    -0.269 N 
HETATM    9  C18 UNL     1      25.279   5.579  50.089  1.00  0.00     0.044 A 
ENDROOT
BRANCH   8  10
HETATM   10  C10 UNL     1      24.544   1.193  51.906  1.00  0.00     0.152 C 
BRANCH  10  11
HETATM   11  C11 UNL     1      25.426   1.076  53.148  1.00  0.00     0.038 C 
BRANCH  11  12
HETATM   12  C12 UNL     1      26.623   0.357  52.846  1.00  0.00     0.006 A 
HETATM   13  C13 UNL     1      27.578  -0.201  53.055  1.00  0.00    -0.060 A 
HETATM   14  C17 UNL     1      27.116   0.115  54.329  1.00  0.00     0.038 A 
BRANCH  13  15
HETATM   15  C14 UNL     1      28.470  -0.721  53.272  1.00  0.00    -0.065 A 
HETATM   16  C15 UNL     1      29.437  -1.256  53.509  1.00  0.00     0.033 A 
HETATM   17  C16 UNL     1      29.277   0.332  53.622  1.00  0.00     0.033 A 
ENDBRANCH  13  15
ENDBRANCH  11  12
ENDBRANCH  10  11
ENDBRANCH   8  10
BRANCH   1  18
HETATM   18  N2  UNL     1      26.873   6.374  48.633  1.00  0.00    -0.344 N 
HETATM   19  H5  UNL     1      26.227   6.335  47.792  1.00  0.00     0.167 HD
BRANCH  18  20
HETATM   20  C2  UNL     1      27.740   7.462  48.531  1.00  0.00     0.103 C 
HETATM   21  C3  UNL     1      28.388   7.022  47.451  1.00  0.00     0.086 C 
BRANCH  20  22
HETATM   22  N1  UNL     1      27.863   8.618  49.341  1.00  0.00    -0.258 NA
HETATM   23  C1  UNL     1      26.919   9.080  50.091  1.00  0.00     0.151 C 
ENDBRANCH  20  22
ENDBRANCH  18  20
ENDBRANCH   1  18
TORSDOF 8
ENDMDL
MODEL 9
REMARK VINA RESULT:      -7.0      1.445      1.938
REMARK  8 active torsions:
REMARK  status: ('A' for Active; 'I' for Inactive)
REMARK    1  A    between atoms: N1_2  and  C2_3 
REMARK    2  A    between atoms: C2_3  and  N2_5 
REMARK    3  A    between atoms: N2_5  and  C4_6 
REMARK    4  A    between atoms: N4_13  and  C10_14 
REMARK    5  A    between atoms: C10_14  and  C11_15 
REMARK    6  A    between atoms: C11_15  and  C12_16 
REMARK    7  A    between atoms: C13_17  and  C14_18 
REMARK    8  A    between atoms: C16_20  and  C17_21 
ROOT
HETATM    1  C4  UNL     1      19.441   0.272  51.992  1.00  0.00     0.034 A 
HETATM    2  C5  UNL     1      20.434   0.638  51.112  1.00  0.00     0.032 A 
HETATM    3  C6  UNL     1      21.735   0.436  51.512  1.00  0.00     0.034 A 
HETATM    4  C7  UNL     1      22.001  -0.110  52.746  1.00  0.00     0.064 A 
HETATM    5  C8  UNL     1      21.032  -0.492  53.667  1.00  0.00     0.014 A 
HETATM    6  C9  UNL     1      21.679  -0.990  54.777  1.00  0.00     0.152 A 
HETATM    7  N3  UNL     1      22.982  -0.912  54.538  1.00  0.00    -0.184 NA
HETATM    8  N4  UNL     1      23.195  -0.392  53.340  1.00  0.00    -0.269 N 
HETATM    9  C18 UNL     1      19.726  -0.282  53.245  1.00  0.00     0.044 A 
ENDROOT
BRANCH   8  10
HETATM   10  C10 UNL     1      24.505  -0.181  52.771  1.00  0.00     0.152 C 
BRANCH  10  11
HETATM   11  C11 UNL     1      25.497  -0.174  53.934  1.00  0.00     0.038 C 
BRANCH  11  12
HETATM   12  C12 UNL     1      26.795  -0.571  53.486  1.00  0.00     0.006 A 
HETATM   13  C13 UNL     1      27.918  -0.644  53.498  1.00  0.00    -0.060 A 
HETATM   14  C17 UNL     1      27.644   0.132  54.620  1.00  0.00     0.038 A 
BRANCH  13  15
HETATM   15  C14 UNL     1      28.972  -0.699  53.526  1.00  0.00    -0.065 A 
HETATM   16  C15 UNL     1      30.100  -0.736  53.564  1.00  0.00     0.033 A 
HETATM   17  C16 UNL     1      29.263   0.562  53.978  1.00  0.00     0.033 A 
ENDBRANCH  13  15
ENDBRANCH  11  12
ENDBRANCH  10  11
ENDBRANCH   8  10
BRANCH   1  18
HETATM   18  N2  UNL     1      18.043   0.375  51.821  1.00  0.00    -0.344 N 
HETATM   19  H5  UNL     1      17.972   1.424  51.674  1.00  0.00     0.167 HD
BRANCH  18  20
HETATM   20  C2  UNL     1      16.778  -0.211  51.760  1.00  0.00     0.103 C 
HETATM   21  C3  UNL     1      16.789  -0.426  50.443  1.00  0.00     0.086 C 
BRANCH  20  22
HETATM   22  N1  UNL     1      15.830  -0.459  52.783  1.00  0.00    -0.258 NA
HETATM   23  C1  UNL     1      14.768   0.250  52.975  1.00  0.00     0.151 C 
ENDBRANCH  20  22
ENDBRANCH  18  20
ENDBRANCH   1  18
TORSDOF 8
ENDMDL
