MODEL 1
REMARK VINA RESULT:      -8.6      0.000      0.000
REMARK  4 active torsions:
REMARK  status: ('A' for Active; 'I' for Inactive)
REMARK    1  A    between atoms: C5_5  and  C6_6 
REMARK    2  A    between atoms: C8_8  and  C9_9 
REMARK    3  A    between atoms: N2_17  and  C15_18 
REMARK    4  A    between atoms: C16_20  and  O1_21 
ROOT
HETATM    1  C6  UNL     1      23.576   1.721  51.082  1.00  0.00     0.152 C 
HETATM    2  C7  UNL     1      24.245   1.377  52.381  1.00  0.00     0.094 C 
HETATM    3  C8  UNL     1      25.682   1.586  51.967  1.00  0.00     0.067 C 
HETATM    4  N1  UNL     1      25.655   2.513  51.072  1.00  0.00    -0.173 NA
HETATM    5  N2  UNL     1      24.350   2.963  50.825  1.00  0.00    -0.236 N 
ENDROOT
BRANCH   1   6
HETATM    6  C5  UNL     1      22.152   2.006  51.123  1.00  0.00    -0.015 A 
HETATM    7  C4  UNL     1      21.607   2.351  52.356  1.00  0.00     0.011 A 
HETATM    8  C3  UNL     1      20.280   2.679  52.544  1.00  0.00     0.007 A 
HETATM    9  C2  UNL     1      19.390   2.681  51.467  1.00  0.00    -0.061 A 
HETATM   10  C1  UNL     1      17.948   3.017  51.535  1.00  0.00     0.048 C 
HETATM   11  C19 UNL     1      19.896   2.342  50.221  1.00  0.00     0.026 A 
HETATM   12  C18 UNL     1      21.238   2.026  50.112  1.00  0.00     0.019 A 
HETATM   13 BR1  UNL     1      21.844   1.564  48.365  1.00  0.00    -0.050 Br
ENDBRANCH   1   6
BRANCH   5  14
HETATM   14  C15 UNL     1      24.136   4.336  50.441  1.00  0.00     0.192 A 
HETATM   15  N3  UNL     1      24.217   5.286  51.198  1.00  0.00    -0.198 NA
HETATM   16  C16 UNL     1      24.040   6.539  50.824  1.00  0.00     0.171 A 
HETATM   17  C17 UNL     1      23.735   6.775  49.457  1.00  0.00     0.111 A 
HETATM   18  S1  UNL     1      23.739   5.000  48.788  1.00  0.00    -0.058 SA
BRANCH  16  19
HETATM   19  O1  UNL     1      24.134   7.633  51.709  1.00  0.00    -0.344 OA
HETATM   20  H13 UNL     1      23.901   8.578  51.404  1.00  0.00     0.219 HD
ENDBRANCH  16  19
ENDBRANCH   5  14
BRANCH   3  21
HETATM   21  C9  UNL     1      26.831   0.841  52.487  1.00  0.00    -0.010 A 
HETATM   22  C10 UNL     1      27.904   1.532  53.035  1.00  0.00     0.016 A 
HETATM   23  C11 UNL     1      29.021   0.925  53.575  1.00  0.00     0.043 A 
HETATM   24  C12 UNL     1      29.069  -0.456  53.565  1.00  0.00     0.116 A 
HETATM   25  F1  UNL     1      30.149  -1.103  54.091  1.00  0.00    -0.206 F 
HETATM   26  C13 UNL     1      28.006  -1.145  53.020  1.00  0.00     0.043 A 
HETATM   27  C14 UNL     1      26.882  -0.533  52.478  1.00  0.00     0.016 A 
ENDBRANCH   3  21
TORSDOF 4
ENDMDL
MODEL 2
REMARK VINA RESULT:      -8.6      3.513      5.614
REMARK  4 active torsions:
REMARK  status: ('A' for Active; 'I' for Inactive)
REMARK    1  A    between atoms: C5_5  and  C6_6 
REMARK    2  A    between atoms: C8_8  and  C9_9 
REMARK    3  A    between atoms: N2_17  and  C15_18 
REMARK    4  A    between atoms: C16_20  and  O1_21 
ROOT
HETATM    1  C6  UNL     1      24.669   3.886  50.921  1.00  0.00     0.152 C 
HETATM    2  C7  UNL     1      25.175   2.535  51.337  1.00  0.00     0.094 C 
HETATM    3  C8  UNL     1      23.858   1.897  51.711  1.00  0.00     0.067 C 
HETATM    4  N1  UNL     1      22.978   2.441  50.943  1.00  0.00    -0.173 NA
HETATM    5  N2  UNL     1      23.549   3.389  50.081  1.00  0.00    -0.236 N 
ENDROOT
BRANCH   1   6
HETATM    6  C5  UNL     1      25.566   4.718  50.136  1.00  0.00    -0.015 A 
HETATM    7  C4  UNL     1      26.605   4.079  49.467  1.00  0.00     0.011 A 
HETATM    8  C3  UNL     1      27.513   4.732  48.660  1.00  0.00     0.007 A 
HETATM    9  C2  UNL     1      27.430   6.114  48.469  1.00  0.00    -0.061 A 
HETATM   10  C1  UNL     1      28.338   6.929  47.628  1.00  0.00     0.048 C 
HETATM   11  C19 UNL     1      26.407   6.786  49.121  1.00  0.00     0.026 A 
HETATM   12  C18 UNL     1      25.534   6.062  49.913  1.00  0.00     0.019 A 
HETATM   13 BR1  UNL     1      24.166   7.069  50.777  1.00  0.00    -0.050 Br
ENDBRANCH   1   6
BRANCH   5  14
HETATM   14  C15 UNL     1      22.974   3.595  48.776  1.00  0.00     0.192 A 
HETATM   15  N3  UNL     1      22.823   4.683  48.251  1.00  0.00    -0.198 NA
HETATM   16  C16 UNL     1      22.314   4.852  47.044  1.00  0.00     0.171 A 
HETATM   17  C17 UNL     1      21.924   3.685  46.333  1.00  0.00     0.111 A 
HETATM   18  S1  UNL     1      22.374   2.341  47.593  1.00  0.00    -0.058 SA
BRANCH  16  19
HETATM   19  O1  UNL     1      22.142   6.116  46.445  1.00  0.00    -0.344 OA
HETATM   20  H13 UNL     1      21.805   6.913  46.985  1.00  0.00     0.219 HD
ENDBRANCH  16  19
ENDBRANCH   5  14
BRANCH   3  21
HETATM   21  C9  UNL     1      23.670   0.891  52.758  1.00  0.00    -0.010 A 
HETATM   22  C10 UNL     1      22.386   0.570  53.178  1.00  0.00     0.016 A 
HETATM   23  C11 UNL     1      22.099  -0.380  54.138  1.00  0.00     0.043 A 
HETATM   24  C12 UNL     1      23.162  -1.049  54.716  1.00  0.00     0.116 A 
HETATM   25  F1  UNL     1      22.931  -2.001  55.666  1.00  0.00    -0.206 F 
HETATM   26  C13 UNL     1      24.440  -0.732  54.302  1.00  0.00     0.043 A 
HETATM   27  C14 UNL     1      24.725   0.225  53.335  1.00  0.00     0.016 A 
ENDBRANCH   3  21
TORSDOF 4
ENDMDL
MODEL 3
REMARK VINA RESULT:      -8.5      3.817      5.893
REMARK  4 active torsions:
REMARK  status: ('A' for Active; 'I' for Inactive)
REMARK    1  A    between atoms: C5_5  and  C6_6 
REMARK    2  A    between atoms: C8_8  and  C9_9 
REMARK    3  A    between atoms: N2_17  and  C15_18 
REMARK    4  A    between atoms: C16_20  and  O1_21 
ROOT
HETATM    1  C6  UNL     1      24.282   4.021  50.797  1.00  0.00     0.152 C 
HETATM    2  C7  UNL     1      24.552   2.558  50.992  1.00  0.00     0.094 C 
HETATM    3  C8  UNL     1      23.151   2.103  51.326  1.00  0.00     0.067 C 
HETATM    4  N1  UNL     1      22.366   2.898  50.683  1.00  0.00    -0.173 NA
HETATM    5  N2  UNL     1      23.078   3.852  49.943  1.00  0.00    -0.236 N 
ENDROOT
BRANCH   1   6
HETATM    6  C5  UNL     1      25.296   4.797  50.102  1.00  0.00    -0.015 A 
HETATM    7  C4  UNL     1      26.291   4.091  49.433  1.00  0.00     0.011 A 
HETATM    8  C3  UNL     1      27.299   4.688  48.705  1.00  0.00     0.007 A 
HETATM    9  C2  UNL     1      27.370   6.080  48.600  1.00  0.00    -0.061 A 
HETATM   10  C1  UNL     1      28.396   6.841  47.848  1.00  0.00     0.048 C 
HETATM   11  C19 UNL     1      26.395   6.818  49.253  1.00  0.00     0.026 A 
HETATM   12  C18 UNL     1      25.416   6.148  49.964  1.00  0.00     0.019 A 
HETATM   13 BR1  UNL     1      24.124   7.243  50.836  1.00  0.00    -0.050 Br
ENDBRANCH   1   6
BRANCH   5  14
HETATM   14  C15 UNL     1      22.525   4.345  48.707  1.00  0.00     0.192 A 
HETATM   15  N3  UNL     1      22.577   3.758  47.642  1.00  0.00    -0.198 NA
HETATM   16  C16 UNL     1      22.045   4.215  46.524  1.00  0.00     0.171 A 
HETATM   17  C17 UNL     1      21.377   5.468  46.585  1.00  0.00     0.111 A 
HETATM   18  S1  UNL     1      21.605   5.896  48.418  1.00  0.00    -0.058 SA
BRANCH  16  19
HETATM   19  O1  UNL     1      22.113   3.528  45.295  1.00  0.00    -0.344 OA
HETATM   20  H13 UNL     1      22.014   2.514  45.254  1.00  0.00     0.219 HD
ENDBRANCH  16  19
ENDBRANCH   5  14
BRANCH   3  21
HETATM   21  C9  UNL     1      22.810   0.999  52.225  1.00  0.00    -0.010 A 
HETATM   22  C10 UNL     1      23.793   0.448  53.037  1.00  0.00     0.016 A 
HETATM   23  C11 UNL     1      23.571  -0.577  53.936  1.00  0.00     0.043 A 
HETATM   24  C12 UNL     1      22.288  -1.081  54.028  1.00  0.00     0.116 A 
HETATM   25  F1  UNL     1      22.015  -2.090  54.906  1.00  0.00    -0.206 F 
HETATM   26  C13 UNL     1      21.309  -0.537  53.223  1.00  0.00     0.043 A 
HETATM   27  C14 UNL     1      21.535   0.494  52.319  1.00  0.00     0.016 A 
ENDBRANCH   3  21
TORSDOF 4
ENDMDL
MODEL 4
REMARK VINA RESULT:      -8.3      3.075      4.264
REMARK  4 active torsions:
REMARK  status: ('A' for Active; 'I' for Inactive)
REMARK    1  A    between atoms: C5_5  and  C6_6 
REMARK    2  A    between atoms: C8_8  and  C9_9 
REMARK    3  A    between atoms: N2_17  and  C15_18 
REMARK    4  A    between atoms: C16_20  and  O1_21 
ROOT
HETATM    1  C6  UNL     1      24.799   2.435  51.824  1.00  0.00     0.152 C 
HETATM    2  C7  UNL     1      25.883   1.551  51.280  1.00  0.00     0.094 C 
HETATM    3  C8  UNL     1      26.081   0.656  52.480  1.00  0.00     0.067 C 
HETATM    4  N1  UNL     1      24.929   0.587  53.055  1.00  0.00    -0.173 NA
HETATM    5  N2  UNL     1      23.960   1.340  52.378  1.00  0.00    -0.236 N 
ENDROOT
BRANCH   1   6
HETATM    6  C5  UNL     1      24.041   3.223  50.866  1.00  0.00    -0.015 A 
HETATM    7  C4  UNL     1      24.094   2.828  49.533  1.00  0.00     0.011 A 
HETATM    8  C3  UNL     1      23.403   3.458  48.519  1.00  0.00     0.007 A 
HETATM    9  C2  UNL     1      22.590   4.561  48.791  1.00  0.00    -0.061 A 
HETATM   10  C1  UNL     1      21.797   5.320  47.795  1.00  0.00     0.048 C 
HETATM   11  C19 UNL     1      22.512   4.985  50.109  1.00  0.00     0.026 A 
HETATM   12  C18 UNL     1      23.234   4.302  51.072  1.00  0.00     0.019 A 
HETATM   13 BR1  UNL     1      23.074   4.959  52.853  1.00  0.00    -0.050 Br
ENDBRANCH   1   6
BRANCH   5  14
HETATM   14  C15 UNL     1      22.587   0.904  52.394  1.00  0.00     0.192 A 
HETATM   15  N3  UNL     1      21.980   0.567  53.394  1.00  0.00    -0.198 NA
HETATM   16  C16 UNL     1      20.714   0.191  53.393  1.00  0.00     0.171 A 
HETATM   17  C17 UNL     1      20.038   0.184  52.143  1.00  0.00     0.111 A 
HETATM   18  S1  UNL     1      21.424   0.776  50.993  1.00  0.00    -0.058 SA
BRANCH  16  19
HETATM   19  O1  UNL     1      20.020  -0.199  54.557  1.00  0.00    -0.344 OA
HETATM   20  H13 UNL     1      19.039   0.047  54.691  1.00  0.00     0.219 HD
ENDBRANCH  16  19
ENDBRANCH   5  14
BRANCH   3  21
HETATM   21  C9  UNL     1      27.349   0.043  52.880  1.00  0.00    -0.010 A 
HETATM   22  C10 UNL     1      28.381   0.845  53.347  1.00  0.00     0.016 A 
HETATM   23  C11 UNL     1      29.604   0.365  53.773  1.00  0.00     0.043 A 
HETATM   24  C12 UNL     1      29.808  -1.001  53.727  1.00  0.00     0.116 A 
HETATM   25  F1  UNL     1      30.998  -1.526  54.143  1.00  0.00    -0.206 F 
HETATM   26  C13 UNL     1      28.785  -1.802  53.263  1.00  0.00     0.043 A 
HETATM   27  C14 UNL     1      27.555  -1.316  52.836  1.00  0.00     0.016 A 
ENDBRANCH   3  21
TORSDOF 4
ENDMDL
MODEL 5
REMARK VINA RESULT:      -7.9      2.602      3.959
REMARK  4 active torsions:
REMARK  status: ('A' for Active; 'I' for Inactive)
REMARK    1  A    between atoms: C5_5  and  C6_6 
REMARK    2  A    between atoms: C8_8  and  C9_9 
REMARK    3  A    between atoms: N2_17  and  C15_18 
REMARK    4  A    between atoms: C16_20  and  O1_21 
ROOT
HETATM    1  C6  UNL     1      24.563   3.233  51.095  1.00  0.00     0.152 C 
HETATM    2  C7  UNL     1      25.550   2.169  50.713  1.00  0.00     0.094 C 
HETATM    3  C8  UNL     1      25.657   1.460  52.042  1.00  0.00     0.067 C 
HETATM    4  N1  UNL     1      24.505   1.599  52.603  1.00  0.00    -0.173 NA
HETATM    5  N2  UNL     1      23.617   2.330  51.802  1.00  0.00    -0.236 N 
ENDROOT
BRANCH   1   6
HETATM    6  C5  UNL     1      23.888   3.933  50.014  1.00  0.00    -0.015 A 
HETATM    7  C4  UNL     1      23.423   3.165  48.951  1.00  0.00     0.011 A 
HETATM    8  C3  UNL     1      22.738   3.683  47.872  1.00  0.00     0.007 A 
HETATM    9  C2  UNL     1      22.469   5.052  47.793  1.00  0.00    -0.061 A 
HETATM   10  C1  UNL     1      21.741   5.730  46.693  1.00  0.00     0.048 C 
HETATM   11  C19 UNL     1      22.917   5.850  48.834  1.00  0.00     0.026 A 
HETATM   12  C18 UNL     1      23.597   5.258  49.882  1.00  0.00     0.019 A 
HETATM   13 BR1  UNL     1      24.184   6.432  51.264  1.00  0.00    -0.050 Br
ENDBRANCH   1   6
BRANCH   5  14
HETATM   14  C15 UNL     1      22.206   2.043  51.866  1.00  0.00     0.192 A 
HETATM   15  N3  UNL     1      21.337   2.878  52.033  1.00  0.00    -0.198 NA
HETATM   16  C16 UNL     1      20.047   2.600  52.067  1.00  0.00     0.171 A 
HETATM   17  C17 UNL     1      19.670   1.240  51.898  1.00  0.00     0.111 A 
HETATM   18  S1  UNL     1      21.371   0.430  51.687  1.00  0.00    -0.058 SA
BRANCH  16  19
HETATM   19  O1  UNL     1      19.048   3.575  52.263  1.00  0.00    -0.344 OA
HETATM   20  H13 UNL     1      18.459   3.564  53.095  1.00  0.00     0.219 HD
ENDBRANCH  16  19
ENDBRANCH   5  14
BRANCH   3  21
HETATM   21  C9  UNL     1      26.856   0.793  52.553  1.00  0.00    -0.010 A 
HETATM   22  C10 UNL     1      27.878   1.551  53.108  1.00  0.00     0.016 A 
HETATM   23  C11 UNL     1      29.037   1.020  53.640  1.00  0.00     0.043 A 
HETATM   24  C12 UNL     1      29.182  -0.354  53.614  1.00  0.00     0.116 A 
HETATM   25  F1  UNL     1      30.306  -0.930  54.133  1.00  0.00    -0.206 F 
HETATM   26  C13 UNL     1      28.170  -1.111  53.062  1.00  0.00     0.043 A 
HETATM   27  C14 UNL     1      27.005  -0.574  52.528  1.00  0.00     0.016 A 
ENDBRANCH   3  21
TORSDOF 4
ENDMDL
MODEL 6
REMARK VINA RESULT:      -7.5      4.115      7.359
REMARK  4 active torsions:
REMARK  status: ('A' for Active; 'I' for Inactive)
REMARK    1  A    between atoms: C5_5  and  C6_6 
REMARK    2  A    between atoms: C8_8  and  C9_9 
REMARK    3  A    between atoms: N2_17  and  C15_18 
REMARK    4  A    between atoms: C16_20  and  O1_21 
ROOT
HETATM    1  C6  UNL     1      22.309   0.653  52.959  1.00  0.00     0.152 C 
HETATM    2  C7  UNL     1      21.523  -0.188  51.994  1.00  0.00     0.094 C 
HETATM    3  C8  UNL     1      20.287   0.672  51.886  1.00  0.00     0.067 C 
HETATM    4  N1  UNL     1      20.691   1.884  52.056  1.00  0.00    -0.173 NA
HETATM    5  N2  UNL     1      22.075   1.950  52.271  1.00  0.00    -0.236 N 
ENDROOT
BRANCH   1   6
HETATM    6  C5  UNL     1      23.732   0.383  53.069  1.00  0.00    -0.015 A 
HETATM    7  C4  UNL     1      24.566   0.961  52.116  1.00  0.00     0.011 A 
HETATM    8  C3  UNL     1      25.938   0.822  52.111  1.00  0.00     0.007 A 
HETATM    9  C2  UNL     1      26.579   0.066  53.097  1.00  0.00    -0.061 A 
HETATM   10  C1  UNL     1      28.040  -0.156  53.205  1.00  0.00     0.048 C 
HETATM   11  C19 UNL     1      25.781  -0.526  54.064  1.00  0.00     0.026 A 
HETATM   12  C18 UNL     1      24.412  -0.340  54.004  1.00  0.00     0.019 A 
HETATM   13 BR1  UNL     1      23.395  -1.197  55.368  1.00  0.00    -0.050 Br
ENDBRANCH   1   6
BRANCH   5  14
HETATM   14  C15 UNL     1      22.807   3.106  51.820  1.00  0.00     0.192 A 
HETATM   15  N3  UNL     1      23.141   4.035  52.532  1.00  0.00    -0.198 NA
HETATM   16  C16 UNL     1      23.831   5.076  52.106  1.00  0.00     0.171 A 
HETATM   17  C17 UNL     1      24.196   5.098  50.733  1.00  0.00     0.111 A 
HETATM   18  S1  UNL     1      23.437   3.463  50.144  1.00  0.00    -0.058 SA
BRANCH  16  19
HETATM   19  O1  UNL     1      24.212   6.148  52.940  1.00  0.00    -0.344 OA
HETATM   20  H13 UNL     1      24.293   7.096  52.573  1.00  0.00     0.219 HD
ENDBRANCH  16  19
ENDBRANCH   5  14
BRANCH   3  21
HETATM   21  C9  UNL     1      18.927   0.178  51.663  1.00  0.00    -0.010 A 
HETATM   22  C10 UNL     1      18.276   0.477  50.473  1.00  0.00     0.016 A 
HETATM   23  C11 UNL     1      17.006   0.039  50.153  1.00  0.00     0.043 A 
HETATM   24  C12 UNL     1      16.346  -0.745  51.080  1.00  0.00     0.116 A 
HETATM   25  F1  UNL     1      15.090  -1.208  50.809  1.00  0.00    -0.206 F 
HETATM   26  C13 UNL     1      16.988  -1.043  52.264  1.00  0.00     0.043 A 
HETATM   27  C14 UNL     1      18.267  -0.601  52.583  1.00  0.00     0.016 A 
ENDBRANCH   3  21
TORSDOF 4
ENDMDL
MODEL 7
REMARK VINA RESULT:      -7.5      2.840      3.842
REMARK  4 active torsions:
REMARK  status: ('A' for Active; 'I' for Inactive)
REMARK    1  A    between atoms: C5_5  and  C6_6 
REMARK    2  A    between atoms: C8_8  and  C9_9 
REMARK    3  A    between atoms: N2_17  and  C15_18 
REMARK    4  A    between atoms: C16_20  and  O1_21 
ROOT
HETATM    1  C6  UNL     1      23.206   4.569  50.273  1.00  0.00     0.152 C 
HETATM    2  C7  UNL     1      23.141   4.092  51.695  1.00  0.00     0.094 C 
HETATM    3  C8  UNL     1      24.392   3.246  51.716  1.00  0.00     0.067 C 
HETATM    4  N1  UNL     1      25.204   3.806  50.886  1.00  0.00    -0.173 NA
HETATM    5  N2  UNL     1      24.644   4.947  50.294  1.00  0.00    -0.236 N 
ENDROOT
BRANCH   1   6
HETATM    6  C5  UNL     1      22.383   5.713  49.917  1.00  0.00    -0.015 A 
HETATM    7  C4  UNL     1      22.002   6.568  50.947  1.00  0.00     0.011 A 
HETATM    8  C3  UNL     1      21.251   7.709  50.758  1.00  0.00     0.007 A 
HETATM    9  C2  UNL     1      20.820   8.072  49.479  1.00  0.00    -0.061 A 
HETATM   10  C1  UNL     1      20.014   9.270  49.144  1.00  0.00     0.048 C 
HETATM   11  C19 UNL     1      21.180   7.244  48.427  1.00  0.00     0.026 A 
HETATM   12  C18 UNL     1      21.936   6.117  48.695  1.00  0.00     0.019 A 
HETATM   13 BR1  UNL     1      22.376   5.033  47.191  1.00  0.00    -0.050 Br
ENDBRANCH   1   6
BRANCH   5  14
HETATM   14  C15 UNL     1      25.501   6.042  49.918  1.00  0.00     0.192 A 
HETATM   15  N3  UNL     1      25.500   7.136  50.452  1.00  0.00    -0.198 NA
HETATM   16  C16 UNL     1      26.308   8.122  50.109  1.00  0.00     0.171 A 
HETATM   17  C17 UNL     1      27.225   7.874  49.052  1.00  0.00     0.111 A 
HETATM   18  S1  UNL     1      26.788   6.079  48.624  1.00  0.00    -0.058 SA
BRANCH  16  19
HETATM   19  O1  UNL     1      26.298   9.386  50.733  1.00  0.00    -0.344 OA
HETATM   20  H13 UNL     1      26.415   9.475  51.742  1.00  0.00     0.219 HD
ENDBRANCH  16  19
ENDBRANCH   5  14
BRANCH   3  21
HETATM   21  C9  UNL     1      24.581   2.033  52.513  1.00  0.00    -0.010 A 
HETATM   22  C10 UNL     1      25.721   1.897  53.295  1.00  0.00     0.016 A 
HETATM   23  C11 UNL     1      25.983   0.806  54.101  1.00  0.00     0.043 A 
HETATM   24  C12 UNL     1      25.048  -0.211  54.126  1.00  0.00     0.116 A 
HETATM   25  F1  UNL     1      25.257  -1.308  54.911  1.00  0.00    -0.206 F 
HETATM   26  C13 UNL     1      23.915  -0.081  53.350  1.00  0.00     0.043 A 
HETATM   27  C14 UNL     1      23.654   1.018  52.540  1.00  0.00     0.016 A 
ENDBRANCH   3  21
TORSDOF 4
ENDMDL
MODEL 8
REMARK VINA RESULT:      -7.2      8.840     11.678
REMARK  4 active torsions:
REMARK  status: ('A' for Active; 'I' for Inactive)
REMARK    1  A    between atoms: C5_5  and  C6_6 
REMARK    2  A    between atoms: C8_8  and  C9_9 
REMARK    3  A    between atoms: N2_17  and  C15_18 
REMARK    4  A    between atoms: C16_20  and  O1_21 
ROOT
HETATM    1  C6  UNL     1      31.043   7.298  46.067  1.00  0.00     0.152 C 
HETATM    2  C7  UNL     1      29.900   7.843  46.873  1.00  0.00     0.094 C 
HETATM    3  C8  UNL     1      29.578   6.611  47.686  1.00  0.00     0.067 C 
HETATM    4  N1  UNL     1      30.698   5.990  47.833  1.00  0.00    -0.173 NA
HETATM    5  N2  UNL     1      31.756   6.662  47.206  1.00  0.00    -0.236 N 
ENDROOT
BRANCH   1   6
HETATM    6  C5  UNL     1      31.903   8.260  45.399  1.00  0.00    -0.015 A 
HETATM    7  C4  UNL     1      31.836   9.581  45.830  1.00  0.00     0.011 A 
HETATM    8  C3  UNL     1      32.613  10.597  45.315  1.00  0.00     0.007 A 
HETATM    9  C2  UNL     1      33.538  10.339  44.299  1.00  0.00    -0.061 A 
HETATM   10  C1  UNL     1      34.431  11.337  43.666  1.00  0.00     0.048 C 
HETATM   11  C19 UNL     1      33.634   9.033  43.843  1.00  0.00     0.026 A 
HETATM   12  C18 UNL     1      32.821   8.068  44.410  1.00  0.00     0.019 A 
HETATM   13 BR1  UNL     1      33.014   6.304  43.715  1.00  0.00    -0.050 Br
ENDBRANCH   1   6
BRANCH   5  14
HETATM   14  C15 UNL     1      33.081   6.572  47.764  1.00  0.00     0.192 A 
HETATM   15  N3  UNL     1      33.574   5.556  48.217  1.00  0.00    -0.198 NA
HETATM   16  C16 UNL     1      34.799   5.487  48.705  1.00  0.00     0.171 A 
HETATM   17  C17 UNL     1      35.571   6.680  48.696  1.00  0.00     0.111 A 
HETATM   18  S1  UNL     1      34.339   7.888  47.909  1.00  0.00    -0.058 SA
BRANCH  16  19
HETATM   19  O1  UNL     1      35.360   4.304  49.228  1.00  0.00    -0.344 OA
HETATM   20  H13 UNL     1      35.723   4.271  50.181  1.00  0.00     0.219 HD
ENDBRANCH  16  19
ENDBRANCH   5  14
BRANCH   3  21
HETATM   21  C9  UNL     1      28.245   6.233  48.161  1.00  0.00    -0.010 A 
HETATM   22  C10 UNL     1      28.008   4.927  48.568  1.00  0.00     0.016 A 
HETATM   23  C11 UNL     1      26.798   4.474  49.055  1.00  0.00     0.043 A 
HETATM   24  C12 UNL     1      25.760   5.383  49.138  1.00  0.00     0.116 A 
HETATM   25  F1  UNL     1      24.545   4.988  49.618  1.00  0.00    -0.206 F 
HETATM   26  C13 UNL     1      25.991   6.682  48.733  1.00  0.00     0.043 A 
HETATM   27  C14 UNL     1      27.211   7.135  48.244  1.00  0.00     0.016 A 
ENDBRANCH   3  21
TORSDOF 4
ENDMDL
MODEL 9
REMARK VINA RESULT:      -6.9      9.281     12.259
REMARK  4 active torsions:
REMARK  status: ('A' for Active; 'I' for Inactive)
REMARK    1  A    between atoms: C5_5  and  C6_6 
REMARK    2  A    between atoms: C8_8  and  C9_9 
REMARK    3  A    between atoms: N2_17  and  C15_18 
REMARK    4  A    between atoms: C16_20  and  O1_21 
ROOT
HETATM    1  C6  UNL     1      31.568   7.655  46.162  1.00  0.00     0.152 C 
HETATM    2  C7  UNL     1      30.957   8.425  47.297  1.00  0.00     0.094 C 
HETATM    3  C8  UNL     1      30.043   7.353  47.841  1.00  0.00     0.067 C 
HETATM    4  N1  UNL     1      30.635   6.235  47.597  1.00  0.00    -0.173 NA
HETATM    5  N2  UNL     1      31.859   6.423  46.941  1.00  0.00    -0.236 N 
ENDROOT
BRANCH   1   6
HETATM    6  C5  UNL     1      32.787   8.189  45.578  1.00  0.00    -0.015 A 
HETATM    7  C4  UNL     1      33.502   9.116  46.331  1.00  0.00     0.011 A 
HETATM    8  C3  UNL     1      34.691   9.683  45.923  1.00  0.00     0.007 A 
HETATM    9  C2  UNL     1      35.253   9.344  44.689  1.00  0.00    -0.061 A 
HETATM   10  C1  UNL     1      36.522   9.878  44.139  1.00  0.00     0.048 C 
HETATM   11  C19 UNL     1      34.570   8.423  43.910  1.00  0.00     0.026 A 
HETATM   12  C18 UNL     1      33.383   7.896  44.388  1.00  0.00     0.019 A 
HETATM   13 BR1  UNL     1      32.508   6.646  43.246  1.00  0.00    -0.050 Br
ENDBRANCH   1   6
BRANCH   5  14
HETATM   14  C15 UNL     1      32.936   5.493  47.171  1.00  0.00     0.192 A 
HETATM   15  N3  UNL     1      33.686   5.527  48.129  1.00  0.00    -0.198 NA
HETATM   16  C16 UNL     1      34.654   4.653  48.336  1.00  0.00     0.171 A 
HETATM   17  C17 UNL     1      34.816   3.621  47.373  1.00  0.00     0.111 A 
HETATM   18  S1  UNL     1      33.427   4.056  46.158  1.00  0.00    -0.058 SA
BRANCH  16  19
HETATM   19  O1  UNL     1      35.519   4.702  49.448  1.00  0.00    -0.344 OA
HETATM   20  H13 UNL     1      36.282   4.034  49.551  1.00  0.00     0.219 HD
ENDBRANCH  16  19
ENDBRANCH   5  14
BRANCH   3  21
HETATM   21  C9  UNL     1      28.747   7.588  48.481  1.00  0.00    -0.010 A 
HETATM   22  C10 UNL     1      28.558   8.731  49.246  1.00  0.00     0.016 A 
HETATM   23  C11 UNL     1      27.370   9.060  49.869  1.00  0.00     0.043 A 
HETATM   24  C12 UNL     1      26.306   8.191  49.719  1.00  0.00     0.116 A 
HETATM   25  F1  UNL     1      25.108   8.474  50.309  1.00  0.00    -0.206 F 
HETATM   26  C13 UNL     1      26.490   7.054  48.960  1.00  0.00     0.043 A 
HETATM   27  C14 UNL     1      27.686   6.726  48.333  1.00  0.00     0.016 A 
ENDBRANCH   3  21
TORSDOF 4
ENDMDL
