MODEL 1
REMARK VINA RESULT:      -7.6      0.000      0.000
REMARK  7 active torsions:
REMARK  status: ('A' for Active; 'I' for Inactive)
REMARK    1  A    between atoms: C2_2  and  N1_3 
REMARK    2  A    between atoms: C6_9  and  N4_10 
REMARK    3  A    between atoms: N4_10  and  C7_11 
REMARK    4  A    between atoms: C11_15  and  N5_16 
REMARK    5  A    between atoms: N7_19  and  C13_20 
REMARK    6  A    between atoms: C14_21  and  C15_22 
REMARK    7  A    between atoms: C16_23  and  C17_24 
ROOT
HETATM    1  N1  UNL     1      27.620   0.974  53.435  1.00  0.00    -0.324 N 
HETATM    2  C3  UNL     1      26.959   0.466  54.498  1.00  0.00     0.213 A 
HETATM    3  N2  UNL     1      25.617   0.620  54.318  1.00  0.00    -0.221 NA
HETATM    4  C4  UNL     1      25.407   1.228  53.135  1.00  0.00     0.197 A 
HETATM    5  C5  UNL     1      26.650   1.438  52.609  1.00  0.00     0.172 A 
HETATM    6  N3  UNL     1      26.691   2.079  51.338  1.00  0.00    -0.170 N 
HETATM    7  C6  UNL     1      25.542   2.499  50.616  1.00  0.00     0.719 A 
HETATM    8  N6  UNL     1      24.392   2.277  51.161  1.00  0.00     0.025 NA
HETATM    9  N7  UNL     1      24.256   1.652  52.404  1.00  0.00    -0.208 N 
HETATM   10  H7  UNL     1      27.653   2.246  50.921  1.00  0.00     0.186 HD
ENDROOT
BRANCH   7  11
HETATM   11  N4  UNL     1      25.630   3.138  49.348  1.00  0.00    -0.218 N 
HETATM   12  H8  UNL     1      25.372   2.499  48.539  1.00  0.00     0.178 HD
BRANCH  11  13
HETATM   13  C7  UNL     1      26.024   4.494  49.198  1.00  0.00     0.101 C 
HETATM   14  C8  UNL     1      27.496   4.723  48.996  1.00  0.00     0.026 C 
HETATM   15  C9  UNL     1      27.631   6.089  48.313  1.00  0.00     0.004 C 
HETATM   16  C10 UNL     1      26.384   6.906  48.387  1.00  0.00     0.035 C 
HETATM   17  C11 UNL     1      25.663   6.846  49.702  1.00  0.00     0.220 C 
HETATM   18  C12 UNL     1      25.581   5.438  50.274  1.00  0.00     0.060 C 
BRANCH  17  19
HETATM   19  N5  UNL     1      26.323   7.769  50.606  1.00  0.00     0.083 N 
HETATM   20  H17 UNL     1      26.748   8.596  50.095  1.00  0.00     0.313 HD
HETATM   21  H18 UNL     1      25.717   8.067  51.388  1.00  0.00     0.313 HD
ENDBRANCH  17  19
ENDBRANCH  11  13
ENDBRANCH   7  11
BRANCH   9  22
HETATM   22  C13 UNL     1      23.014   1.387  53.041  1.00  0.00     0.121 C 
HETATM   23  C14 UNL     1      22.075   0.582  52.579  1.00  0.00     0.019 C 
BRANCH  23  24
HETATM   24  C15 UNL     1      20.841   0.373  53.297  1.00  0.00    -0.002 C 
HETATM   25  C16 UNL     1      20.637  -0.698  54.042  1.00  0.00    -0.012 C 
BRANCH  25  26
HETATM   26  C17 UNL     1      21.571  -1.804  54.265  1.00  0.00     0.141 C 
HETATM   27 CL1  UNL     1      22.832  -1.369  55.463  1.00  0.00    -0.126 Cl
ENDBRANCH  25  26
ENDBRANCH  23  24
ENDBRANCH   9  22
BRANCH   1  28
HETATM   28  C2  UNL     1      29.058   1.025  53.203  1.00  0.00     0.127 C 
HETATM   29  C1  UNL     1      29.764  -0.212  53.658  1.00  0.00     0.027 C 
ENDBRANCH   1  28
TORSDOF 7
ENDMDL
MODEL 2
REMARK VINA RESULT:      -7.5      1.288      1.444
REMARK  7 active torsions:
REMARK  status: ('A' for Active; 'I' for Inactive)
REMARK    1  A    between atoms: C2_2  and  N1_3 
REMARK    2  A    between atoms: C6_9  and  N4_10 
REMARK    3  A    between atoms: N4_10  and  C7_11 
REMARK    4  A    between atoms: C11_15  and  N5_16 
REMARK    5  A    between atoms: N7_19  and  C13_20 
REMARK    6  A    between atoms: C14_21  and  C15_22 
REMARK    7  A    between atoms: C16_23  and  C17_24 
ROOT
HETATM    1  N1  UNL     1      27.603   0.840  53.684  1.00  0.00    -0.324 N 
HETATM    2  C3  UNL     1      27.023   0.257  54.756  1.00  0.00     0.213 A 
HETATM    3  N2  UNL     1      25.670   0.254  54.597  1.00  0.00    -0.221 NA
HETATM    4  C4  UNL     1      25.372   0.835  53.419  1.00  0.00     0.197 A 
HETATM    5  C5  UNL     1      26.574   1.189  52.875  1.00  0.00     0.172 A 
HETATM    6  N3  UNL     1      26.520   1.832  51.606  1.00  0.00    -0.170 N 
HETATM    7  C6  UNL     1      25.318   2.116  50.903  1.00  0.00     0.719 A 
HETATM    8  N6  UNL     1      24.210   1.761  51.464  1.00  0.00     0.025 NA
HETATM    9  N7  UNL     1      24.168   1.123  52.707  1.00  0.00    -0.208 N 
HETATM   10  H7  UNL     1      27.449   2.111  51.174  1.00  0.00     0.186 HD
ENDROOT
BRANCH   7  11
HETATM   11  N4  UNL     1      25.311   2.763  49.635  1.00  0.00    -0.218 N 
HETATM   12  H8  UNL     1      24.991   2.129  48.845  1.00  0.00     0.178 HD
BRANCH  11  13
HETATM   13  C7  UNL     1      25.696   4.119  49.464  1.00  0.00     0.101 C 
HETATM   14  C8  UNL     1      27.159   4.350  49.205  1.00  0.00     0.026 C 
HETATM   15  C9  UNL     1      27.264   5.713  48.511  1.00  0.00     0.004 C 
HETATM   16  C10 UNL     1      26.018   6.528  48.628  1.00  0.00     0.035 C 
HETATM   17  C11 UNL     1      25.348   6.472  49.969  1.00  0.00     0.220 C 
HETATM   18  C12 UNL     1      25.292   5.067  50.552  1.00  0.00     0.060 C 
BRANCH  17  19
HETATM   19  N5  UNL     1      26.040   7.401  50.844  1.00  0.00     0.083 N 
HETATM   20  H17 UNL     1      27.051   7.122  51.004  1.00  0.00     0.313 HD
HETATM   21  H18 UNL     1      25.954   8.384  50.534  1.00  0.00     0.313 HD
ENDBRANCH  17  19
ENDBRANCH  11  13
ENDBRANCH   7  11
BRANCH   9  22
HETATM   22  C13 UNL     1      22.975   0.714  53.363  1.00  0.00     0.121 C 
HETATM   23  C14 UNL     1      22.370  -0.447  53.193  1.00  0.00     0.019 C 
BRANCH  23  24
HETATM   24  C15 UNL     1      21.158  -0.776  53.903  1.00  0.00    -0.002 C 
HETATM   25  C16 UNL     1      19.963  -0.502  53.414  1.00  0.00    -0.012 C 
BRANCH  25  26
HETATM   26  C17 UNL     1      19.666   0.147  52.135  1.00  0.00     0.141 C 
HETATM   27 CL1  UNL     1      19.703   1.934  52.279  1.00  0.00    -0.126 Cl
ENDBRANCH  25  26
ENDBRANCH  23  24
ENDBRANCH   9  22
BRANCH   1  28
HETATM   28  C2  UNL     1      29.022   1.059  53.430  1.00  0.00     0.127 C 
HETATM   29  C1  UNL     1      29.823  -0.204  53.481  1.00  0.00     0.027 C 
ENDBRANCH   1  28
TORSDOF 7
ENDMDL
MODEL 3
REMARK VINA RESULT:      -7.3      1.911      5.985
REMARK  7 active torsions:
REMARK  status: ('A' for Active; 'I' for Inactive)
REMARK    1  A    between atoms: C2_2  and  N1_3 
REMARK    2  A    between atoms: C6_9  and  N4_10 
REMARK    3  A    between atoms: N4_10  and  C7_11 
REMARK    4  A    between atoms: C11_15  and  N5_16 
REMARK    5  A    between atoms: N7_19  and  C13_20 
REMARK    6  A    between atoms: C14_21  and  C15_22 
REMARK    7  A    between atoms: C16_23  and  C17_24 
ROOT
HETATM    1  N1  UNL     1      25.017   6.071  49.049  1.00  0.00    -0.324 N 
HETATM    2  C3  UNL     1      23.810   6.072  48.443  1.00  0.00     0.213 A 
HETATM    3  N2  UNL     1      23.143   4.925  48.752  1.00  0.00    -0.221 NA
HETATM    4  C4  UNL     1      23.919   4.179  49.562  1.00  0.00     0.197 A 
HETATM    5  C5  UNL     1      25.065   4.902  49.731  1.00  0.00     0.172 A 
HETATM    6  N3  UNL     1      26.059   4.310  50.564  1.00  0.00    -0.170 N 
HETATM    7  C6  UNL     1      25.920   3.049  51.203  1.00  0.00     0.719 A 
HETATM    8  N6  UNL     1      24.816   2.409  51.007  1.00  0.00     0.025 NA
HETATM    9  N7  UNL     1      23.786   2.912  50.207  1.00  0.00    -0.208 N 
HETATM   10  H7  UNL     1      26.954   4.864  50.702  1.00  0.00     0.186 HD
ENDROOT
BRANCH   7  11
HETATM   11  N4  UNL     1      26.941   2.496  52.026  1.00  0.00    -0.218 N 
HETATM   12  H8  UNL     1      27.836   3.068  52.022  1.00  0.00     0.178 HD
BRANCH  11  13
HETATM   13  C7  UNL     1      26.762   1.301  52.772  1.00  0.00     0.101 C 
HETATM   14  C8  UNL     1      27.552   1.207  54.047  1.00  0.00     0.026 C 
HETATM   15  C9  UNL     1      26.826   0.188  54.931  1.00  0.00     0.004 C 
HETATM   16  C10 UNL     1      25.835  -0.639  54.180  1.00  0.00     0.035 C 
HETATM   17  C11 UNL     1      26.282  -1.084  52.819  1.00  0.00     0.220 C 
HETATM   18  C12 UNL     1      26.979   0.016  52.030  1.00  0.00     0.060 C 
BRANCH  17  19
HETATM   19  N5  UNL     1      27.126  -2.251  52.995  1.00  0.00     0.083 N 
HETATM   20  H17 UNL     1      26.621  -3.151  52.745  1.00  0.00     0.313 HD
HETATM   21  H18 UNL     1      28.033  -2.168  52.505  1.00  0.00     0.313 HD
ENDBRANCH  17  19
ENDBRANCH  11  13
ENDBRANCH   7  11
BRANCH   9  22
HETATM   22  C13 UNL     1      22.555   2.245  49.964  1.00  0.00     0.121 C 
HETATM   23  C14 UNL     1      22.041   1.292  50.719  1.00  0.00     0.019 C 
BRANCH  23  24
HETATM   24  C15 UNL     1      20.781   0.670  50.392  1.00  0.00    -0.002 C 
HETATM   25  C16 UNL     1      19.906   0.330  51.322  1.00  0.00    -0.012 C 
BRANCH  25  26
HETATM   26  C17 UNL     1      20.045   0.514  52.767  1.00  0.00     0.141 C 
HETATM   27 CL1  UNL     1      20.990  -0.816  53.512  1.00  0.00    -0.126 Cl
ENDBRANCH  25  26
ENDBRANCH  23  24
ENDBRANCH   9  22
BRANCH   1  28
HETATM   28  C2  UNL     1      26.057   7.092  48.998  1.00  0.00     0.127 C 
HETATM   29  C1  UNL     1      27.281   6.640  48.267  1.00  0.00     0.027 C 
ENDBRANCH   1  28
TORSDOF 7
ENDMDL
MODEL 4
REMARK VINA RESULT:      -7.2      2.978      7.202
REMARK  7 active torsions:
REMARK  status: ('A' for Active; 'I' for Inactive)
REMARK    1  A    between atoms: C2_2  and  N1_3 
REMARK    2  A    between atoms: C6_9  and  N4_10 
REMARK    3  A    between atoms: N4_10  and  C7_11 
REMARK    4  A    between atoms: C11_15  and  N5_16 
REMARK    5  A    between atoms: N7_19  and  C13_20 
REMARK    6  A    between atoms: C14_21  and  C15_22 
REMARK    7  A    between atoms: C16_23  and  C17_24 
ROOT
HETATM    1  N1  UNL     1      27.235   1.084  53.840  1.00  0.00    -0.324 N 
HETATM    2  C3  UNL     1      28.343   1.776  53.493  1.00  0.00     0.213 A 
HETATM    3  N2  UNL     1      28.095   2.502  52.367  1.00  0.00    -0.221 NA
HETATM    4  C4  UNL     1      26.823   2.281  51.983  1.00  0.00     0.197 A 
HETATM    5  C5  UNL     1      26.313   1.407  52.901  1.00  0.00     0.172 A 
HETATM    6  N3  UNL     1      24.958   1.015  52.705  1.00  0.00    -0.170 N 
HETATM    7  C6  UNL     1      24.139   1.472  51.638  1.00  0.00     0.719 A 
HETATM    8  N6  UNL     1      24.672   2.296  50.798  1.00  0.00     0.025 NA
HETATM    9  N7  UNL     1      25.994   2.736  50.913  1.00  0.00    -0.208 N 
HETATM   10  H7  UNL     1      24.552   0.336  53.413  1.00  0.00     0.186 HD
ENDROOT
BRANCH   7  11
HETATM   11  N4  UNL     1      22.789   1.052  51.480  1.00  0.00    -0.218 N 
HETATM   12  H8  UNL     1      22.396   1.262  50.515  1.00  0.00     0.178 HD
BRANCH  11  13
HETATM   13  C7  UNL     1      22.056   0.418  52.517  1.00  0.00     0.101 C 
HETATM   14  C8  UNL     1      22.532  -0.956  52.901  1.00  0.00     0.026 C 
HETATM   15  C9  UNL     1      22.026  -1.205  54.326  1.00  0.00     0.004 C 
HETATM   16  C10 UNL     1      20.964  -0.244  54.748  1.00  0.00     0.035 C 
HETATM   17  C11 UNL     1      19.951   0.085  53.691  1.00  0.00     0.220 C 
HETATM   18  C12 UNL     1      20.572   0.324  52.322  1.00  0.00     0.060 C 
BRANCH  17  19
HETATM   19  N5  UNL     1      18.975  -0.988  53.670  1.00  0.00     0.083 N 
HETATM   20  H17 UNL     1      19.353  -1.865  53.208  1.00  0.00     0.313 HD
HETATM   21  H18 UNL     1      18.575  -1.184  54.603  1.00  0.00     0.313 HD
ENDBRANCH  17  19
ENDBRANCH  11  13
ENDBRANCH   7  11
BRANCH   9  22
HETATM   22  C13 UNL     1      26.623   3.642  50.015  1.00  0.00     0.121 C 
HETATM   23  C14 UNL     1      26.084   4.753  49.549  1.00  0.00     0.019 C 
BRANCH  23  24
HETATM   24  C15 UNL     1      26.799   5.613  48.639  1.00  0.00    -0.002 C 
HETATM   25  C16 UNL     1      26.873   6.919  48.821  1.00  0.00    -0.012 C 
BRANCH  25  26
HETATM   26  C17 UNL     1      26.278   7.687  49.917  1.00  0.00     0.141 C 
HETATM   27 CL1  UNL     1      27.249   9.145  50.302  1.00  0.00    -0.126 Cl
ENDBRANCH  25  26
ENDBRANCH  23  24
ENDBRANCH   9  22
BRANCH   1  28
HETATM   28  C2  UNL     1      27.047   0.183  54.970  1.00  0.00     0.127 C 
HETATM   29  C1  UNL     1      25.686  -0.436  55.000  1.00  0.00     0.027 C 
ENDBRANCH   1  28
TORSDOF 7
ENDMDL
MODEL 5
REMARK VINA RESULT:      -7.2      3.136      7.369
REMARK  7 active torsions:
REMARK  status: ('A' for Active; 'I' for Inactive)
REMARK    1  A    between atoms: C2_2  and  N1_3 
REMARK    2  A    between atoms: C6_9  and  N4_10 
REMARK    3  A    between atoms: N4_10  and  C7_11 
REMARK    4  A    between atoms: C11_15  and  N5_16 
REMARK    5  A    between atoms: N7_19  and  C13_20 
REMARK    6  A    between atoms: C14_21  and  C15_22 
REMARK    7  A    between atoms: C16_23  and  C17_24 
ROOT
HETATM    1  N1  UNL     1      19.091  -0.130  52.406  1.00  0.00    -0.324 N 
HETATM    2  C3  UNL     1      18.590   0.738  51.500  1.00  0.00     0.213 A 
HETATM    3  N2  UNL     1      19.583   1.557  51.054  1.00  0.00    -0.221 NA
HETATM    4  C4  UNL     1      20.732   1.218  51.671  1.00  0.00     0.197 A 
HETATM    5  C5  UNL     1      20.406   0.180  52.498  1.00  0.00     0.172 A 
HETATM    6  N3  UNL     1      21.474  -0.360  53.271  1.00  0.00    -0.170 N 
HETATM    7  C6  UNL     1      22.813   0.112  53.226  1.00  0.00     0.719 A 
HETATM    8  N6  UNL     1      23.064   1.096  52.428  1.00  0.00     0.025 NA
HETATM    9  N7  UNL     1      22.079   1.688  51.631  1.00  0.00    -0.208 N 
HETATM   10  H7  UNL     1      21.232  -1.167  53.916  1.00  0.00     0.186 HD
ENDROOT
BRANCH   7  11
HETATM   11  N4  UNL     1      23.849  -0.458  54.018  1.00  0.00    -0.218 N 
HETATM   12  H8  UNL     1      23.483  -1.062  54.812  1.00  0.00     0.178 HD
BRANCH  11  13
HETATM   13  C7  UNL     1      25.226  -0.232  53.758  1.00  0.00     0.101 C 
HETATM   14  C8  UNL     1      25.869  -1.190  52.794  1.00  0.00     0.026 C 
HETATM   15  C9  UNL     1      27.104  -0.474  52.234  1.00  0.00     0.004 C 
HETATM   16  C10 UNL     1      27.498   0.725  53.031  1.00  0.00     0.035 C 
HETATM   17  C11 UNL     1      27.397   0.559  54.519  1.00  0.00     0.220 C 
HETATM   18  C12 UNL     1      26.124  -0.153  54.956  1.00  0.00     0.060 C 
BRANCH  17  19
HETATM   19  N5  UNL     1      28.592  -0.132  54.965  1.00  0.00     0.083 N 
HETATM   20  H17 UNL     1      28.488  -0.519  55.948  1.00  0.00     0.313 HD
HETATM   21  H18 UNL     1      28.911  -0.854  54.297  1.00  0.00     0.313 HD
ENDBRANCH  17  19
ENDBRANCH  11  13
ENDBRANCH   7  11
BRANCH   9  22
HETATM   22  C13 UNL     1      22.308   2.770  50.739  1.00  0.00     0.121 C 
HETATM   23  C14 UNL     1      23.122   2.745  49.700  1.00  0.00     0.019 C 
BRANCH  23  24
HETATM   24  C15 UNL     1      23.291   3.896  48.847  1.00  0.00    -0.002 C 
HETATM   25  C16 UNL     1      24.304   4.731  48.991  1.00  0.00    -0.012 C 
BRANCH  25  26
HETATM   26  C17 UNL     1      25.378   4.646  49.983  1.00  0.00     0.141 C 
HETATM   27 CL1  UNL     1      26.732   3.624  49.401  1.00  0.00    -0.126 Cl
ENDBRANCH  25  26
ENDBRANCH  23  24
ENDBRANCH   9  22
BRANCH   1  28
HETATM   28  C2  UNL     1      18.391  -1.179  53.138  1.00  0.00     0.127 C 
HETATM   29  C1  UNL     1      16.946  -1.283  52.767  1.00  0.00     0.027 C 
ENDBRANCH   1  28
TORSDOF 7
ENDMDL
MODEL 6
REMARK VINA RESULT:      -7.2      2.158      4.793
REMARK  7 active torsions:
REMARK  status: ('A' for Active; 'I' for Inactive)
REMARK    1  A    between atoms: C2_2  and  N1_3 
REMARK    2  A    between atoms: C6_9  and  N4_10 
REMARK    3  A    between atoms: N4_10  and  C7_11 
REMARK    4  A    between atoms: C11_15  and  N5_16 
REMARK    5  A    between atoms: N7_19  and  C13_20 
REMARK    6  A    between atoms: C14_21  and  C15_22 
REMARK    7  A    between atoms: C16_23  and  C17_24 
ROOT
HETATM    1  N1  UNL     1      22.817  -0.238  53.354  1.00  0.00    -0.324 N 
HETATM    2  C3  UNL     1      23.815  -0.728  54.122  1.00  0.00     0.213 A 
HETATM    3  N2  UNL     1      24.990  -0.127  53.782  1.00  0.00    -0.221 NA
HETATM    4  C4  UNL     1      24.752   0.756  52.792  1.00  0.00     0.197 A 
HETATM    5  C5  UNL     1      23.411   0.671  52.545  1.00  0.00     0.172 A 
HETATM    6  N3  UNL     1      22.910   1.524  51.520  1.00  0.00    -0.170 N 
HETATM    7  C6  UNL     1      23.709   2.427  50.769  1.00  0.00     0.719 A 
HETATM    8  N6  UNL     1      24.970   2.465  51.044  1.00  0.00     0.025 NA
HETATM    9  N7  UNL     1      25.549   1.666  52.033  1.00  0.00    -0.208 N 
HETATM   10  H7  UNL     1      21.869   1.466  51.321  1.00  0.00     0.186 HD
ENDROOT
BRANCH   7  11
HETATM   11  N4  UNL     1      23.165   3.261  49.752  1.00  0.00    -0.218 N 
HETATM   12  H8  UNL     1      22.590   2.726  49.036  1.00  0.00     0.178 HD
BRANCH  11  13
HETATM   13  C7  UNL     1      23.377   4.664  49.715  1.00  0.00     0.101 C 
HETATM   14  C8  UNL     1      24.624   5.113  49.005  1.00  0.00     0.026 C 
HETATM   15  C9  UNL     1      24.385   6.568  48.590  1.00  0.00     0.004 C 
HETATM   16  C10 UNL     1      23.224   7.194  49.291  1.00  0.00     0.035 C 
HETATM   17  C11 UNL     1      23.101   6.850  50.746  1.00  0.00     0.220 C 
HETATM   18  C12 UNL     1      23.348   5.376  51.034  1.00  0.00     0.060 C 
BRANCH  17  19
HETATM   19  N5  UNL     1      24.011   7.712  51.478  1.00  0.00     0.083 N 
HETATM   20  H17 UNL     1      24.595   8.318  50.833  1.00  0.00     0.313 HD
HETATM   21  H18 UNL     1      23.535   8.269  52.208  1.00  0.00     0.313 HD
ENDBRANCH  17  19
ENDBRANCH  11  13
ENDBRANCH   7  11
BRANCH   9  22
HETATM   22  C13 UNL     1      26.929   1.674  52.371  1.00  0.00     0.121 C 
HETATM   23  C14 UNL     1      27.457   2.290  53.411  1.00  0.00     0.019 C 
BRANCH  23  24
HETATM   24  C15 UNL     1      28.875   2.244  53.676  1.00  0.00    -0.002 C 
HETATM   25  C16 UNL     1      29.452   1.186  54.217  1.00  0.00    -0.012 C 
BRANCH  25  26
HETATM   26  C17 UNL     1      28.798  -0.059  54.623  1.00  0.00     0.141 C 
HETATM   27 CL1  UNL     1      29.009  -1.346  53.391  1.00  0.00    -0.126 Cl
ENDBRANCH  25  26
ENDBRANCH  23  24
ENDBRANCH   9  22
BRANCH   1  28
HETATM   28  C2  UNL     1      21.403  -0.593  53.374  1.00  0.00     0.127 C 
HETATM   29  C1  UNL     1      20.578   0.350  54.191  1.00  0.00     0.027 C 
ENDBRANCH   1  28
TORSDOF 7
ENDMDL
MODEL 7
REMARK VINA RESULT:      -7.2      2.358      5.220
REMARK  7 active torsions:
REMARK  status: ('A' for Active; 'I' for Inactive)
REMARK    1  A    between atoms: C2_2  and  N1_3 
REMARK    2  A    between atoms: C6_9  and  N4_10 
REMARK    3  A    between atoms: N4_10  and  C7_11 
REMARK    4  A    between atoms: C11_15  and  N5_16 
REMARK    5  A    between atoms: N7_19  and  C13_20 
REMARK    6  A    between atoms: C14_21  and  C15_22 
REMARK    7  A    between atoms: C16_23  and  C17_24 
ROOT
HETATM    1  N1  UNL     1      20.412   0.255  52.435  1.00  0.00    -0.324 N 
HETATM    2  C3  UNL     1      20.688  -0.442  53.559  1.00  0.00     0.213 A 
HETATM    3  N2  UNL     1      22.017  -0.344  53.843  1.00  0.00    -0.221 NA
HETATM    4  C4  UNL     1      22.605   0.420  52.902  1.00  0.00     0.197 A 
HETATM    5  C5  UNL     1      21.601   0.776  52.047  1.00  0.00     0.172 A 
HETATM    6  N3  UNL     1      21.981   1.600  50.948  1.00  0.00    -0.170 N 
HETATM    7  C6  UNL     1      23.306   2.052  50.707  1.00  0.00     0.719 A 
HETATM    8  N6  UNL     1      24.215   1.684  51.548  1.00  0.00     0.025 NA
HETATM    9  N7  UNL     1      23.934   0.877  52.654  1.00  0.00    -0.208 N 
HETATM   10  H7  UNL     1      21.208   1.884  50.278  1.00  0.00     0.186 HD
ENDROOT
BRANCH   7  11
HETATM   11  N4  UNL     1      23.640   2.874  49.595  1.00  0.00    -0.218 N 
HETATM   12  H8  UNL     1      23.471   2.400  48.659  1.00  0.00     0.178 HD
BRANCH  11  13
HETATM   13  C7  UNL     1      24.147   4.193  49.739  1.00  0.00     0.101 C 
HETATM   14  C8  UNL     1      25.644   4.322  49.692  1.00  0.00     0.026 C 
HETATM   15  C9  UNL     1      25.940   5.773  49.299  1.00  0.00     0.004 C 
HETATM   16  C10 UNL     1      24.755   6.672  49.441  1.00  0.00     0.035 C 
HETATM   17  C11 UNL     1      23.920   6.431  50.664  1.00  0.00     0.220 C 
HETATM   18  C12 UNL     1      23.683   4.954  50.945  1.00  0.00     0.060 C 
BRANCH  17  19
HETATM   19  N5  UNL     1      24.566   7.104  51.775  1.00  0.00     0.083 N 
HETATM   20  H17 UNL     1      24.739   8.132  51.575  1.00  0.00     0.313 HD
HETATM   21  H18 UNL     1      24.072   6.962  52.672  1.00  0.00     0.313 HD
ENDBRANCH  17  19
ENDBRANCH  11  13
ENDBRANCH   7  11
BRANCH   9  22
HETATM   22  C13 UNL     1      24.900   0.448  53.604  1.00  0.00     0.121 C 
HETATM   23  C14 UNL     1      26.117   0.024  53.318  1.00  0.00     0.019 C 
BRANCH  23  24
HETATM   24  C15 UNL     1      27.032  -0.394  54.353  1.00  0.00    -0.002 C 
HETATM   25  C16 UNL     1      28.298  -0.016  54.362  1.00  0.00    -0.012 C 
BRANCH  25  26
HETATM   26  C17 UNL     1      28.964   0.846  53.384  1.00  0.00     0.141 C 
HETATM   27 CL1  UNL     1      28.731   2.582  53.769  1.00  0.00    -0.126 Cl
ENDBRANCH  25  26
ENDBRANCH  23  24
ENDBRANCH   9  22
BRANCH   1  28
HETATM   28  C2  UNL     1      19.128   0.425  51.767  1.00  0.00     0.127 C 
HETATM   29  C1  UNL     1      18.148  -0.653  52.107  1.00  0.00     0.027 C 
ENDBRANCH   1  28
TORSDOF 7
ENDMDL
MODEL 8
REMARK VINA RESULT:      -7.1      3.650      6.531
REMARK  7 active torsions:
REMARK  status: ('A' for Active; 'I' for Inactive)
REMARK    1  A    between atoms: C2_2  and  N1_3 
REMARK    2  A    between atoms: C6_9  and  N4_10 
REMARK    3  A    between atoms: N4_10  and  C7_11 
REMARK    4  A    between atoms: C11_15  and  N5_16 
REMARK    5  A    between atoms: N7_19  and  C13_20 
REMARK    6  A    between atoms: C14_21  and  C15_22 
REMARK    7  A    between atoms: C16_23  and  C17_24 
ROOT
HETATM    1  N1  UNL     1      21.569   0.076  53.580  1.00  0.00    -0.324 N 
HETATM    2  C3  UNL     1      20.532  -0.112  52.735  1.00  0.00     0.213 A 
HETATM    3  N2  UNL     1      20.815   0.458  51.530  1.00  0.00    -0.221 NA
HETATM    4  C4  UNL     1      22.039   1.016  51.594  1.00  0.00     0.197 A 
HETATM    5  C5  UNL     1      22.484   0.771  52.862  1.00  0.00     0.172 A 
HETATM    6  N3  UNL     1      23.779   1.272  53.178  1.00  0.00    -0.170 N 
HETATM    7  C6  UNL     1      24.602   1.991  52.270  1.00  0.00     0.719 A 
HETATM    8  N6  UNL     1      24.131   2.196  51.085  1.00  0.00     0.025 NA
HETATM    9  N7  UNL     1      22.871   1.740  50.687  1.00  0.00    -0.208 N 
HETATM   10  H7  UNL     1      24.135   1.086  54.160  1.00  0.00     0.186 HD
ENDROOT
BRANCH   7  11
HETATM   11  N4  UNL     1      25.891   2.475  52.629  1.00  0.00    -0.218 N 
HETATM   12  H8  UNL     1      26.031   3.502  52.396  1.00  0.00     0.178 HD
BRANCH  11  13
HETATM   13  C7  UNL     1      26.877   1.655  53.238  1.00  0.00     0.101 C 
HETATM   14  C8  UNL     1      28.282   2.189  53.196  1.00  0.00     0.026 C 
HETATM   15  C9  UNL     1      29.040   1.499  54.336  1.00  0.00     0.004 C 
HETATM   16  C10 UNL     1      28.326   0.304  54.876  1.00  0.00     0.035 C 
HETATM   17  C11 UNL     1      27.670  -0.564  53.843  1.00  0.00     0.220 C 
HETATM   18  C12 UNL     1      26.938   0.232  52.771  1.00  0.00     0.060 C 
BRANCH  17  19
HETATM   19  N5  UNL     1      28.694  -1.427  53.282  1.00  0.00     0.083 N 
HETATM   20  H17 UNL     1      28.813  -2.321  53.840  1.00  0.00     0.313 HD
HETATM   21  H18 UNL     1      28.552  -1.615  52.275  1.00  0.00     0.313 HD
ENDBRANCH  17  19
ENDBRANCH  11  13
ENDBRANCH   7  11
BRANCH   9  22
HETATM   22  C13 UNL     1      22.312   1.941  49.396  1.00  0.00     0.121 C 
HETATM   23  C14 UNL     1      22.877   2.622  48.416  1.00  0.00     0.019 C 
BRANCH  23  24
HETATM   24  C15 UNL     1      22.233   2.774  47.134  1.00  0.00    -0.002 C 
HETATM   25  C16 UNL     1      21.643   3.899  46.776  1.00  0.00    -0.012 C 
BRANCH  25  26
HETATM   26  C17 UNL     1      21.541   5.127  47.567  1.00  0.00     0.141 C 
HETATM   27 CL1  UNL     1      23.062   6.075  47.510  1.00  0.00    -0.126 Cl
ENDBRANCH  25  26
ENDBRANCH  23  24
ENDBRANCH   9  22
BRANCH   1  28
HETATM   28  C2  UNL     1      21.699  -0.362  54.965  1.00  0.00     0.127 C 
HETATM   29  C1  UNL     1      22.661  -1.496  55.127  1.00  0.00     0.027 C 
ENDBRANCH   1  28
TORSDOF 7
ENDMDL
MODEL 9
REMARK VINA RESULT:      -7.0      2.504      4.791
REMARK  7 active torsions:
REMARK  status: ('A' for Active; 'I' for Inactive)
REMARK    1  A    between atoms: C2_2  and  N1_3 
REMARK    2  A    between atoms: C6_9  and  N4_10 
REMARK    3  A    between atoms: N4_10  and  C7_11 
REMARK    4  A    between atoms: C11_15  and  N5_16 
REMARK    5  A    between atoms: N7_19  and  C13_20 
REMARK    6  A    between atoms: C14_21  and  C15_22 
REMARK    7  A    between atoms: C16_23  and  C17_24 
ROOT
HETATM    1  N1  UNL     1      22.789   2.574  49.949  1.00  0.00    -0.324 N 
HETATM    2  C3  UNL     1      22.398   1.901  51.053  1.00  0.00     0.213 A 
HETATM    3  N2  UNL     1      23.454   1.767  51.904  1.00  0.00    -0.221 NA
HETATM    4  C4  UNL     1      24.532   2.355  51.351  1.00  0.00     0.197 A 
HETATM    5  C5  UNL     1      24.102   2.844  50.150  1.00  0.00     0.172 A 
HETATM    6  N3  UNL     1      25.079   3.521  49.365  1.00  0.00    -0.170 N 
HETATM    7  C6  UNL     1      26.432   3.705  49.755  1.00  0.00     0.719 A 
HETATM    8  N6  UNL     1      26.785   3.221  50.900  1.00  0.00     0.025 NA
HETATM    9  N7  UNL     1      25.894   2.544  51.737  1.00  0.00    -0.208 N 
HETATM   10  H7  UNL     1      24.754   3.905  48.430  1.00  0.00     0.186 HD
ENDROOT
BRANCH   7  11
HETATM   11  N4  UNL     1      27.375   4.388  48.938  1.00  0.00    -0.218 N 
HETATM   12  H8  UNL     1      28.209   3.786  48.670  1.00  0.00     0.178 HD
BRANCH  11  13
HETATM   13  C7  UNL     1      27.202   5.737  48.529  1.00  0.00     0.101 C 
HETATM   14  C8  UNL     1      28.467   6.488  48.218  1.00  0.00     0.026 C 
HETATM   15  C9  UNL     1      28.066   7.645  47.297  1.00  0.00     0.004 C 
HETATM   16  C10 UNL     1      26.595   7.902  47.284  1.00  0.00     0.035 C 
HETATM   17  C11 UNL     1      25.923   7.804  48.622  1.00  0.00     0.220 C 
HETATM   18  C12 UNL     1      26.392   6.609  49.440  1.00  0.00     0.060 C 
BRANCH  17  19
HETATM   19  N5  UNL     1      26.138   9.061  49.314  1.00  0.00     0.083 N 
HETATM   20  H17 UNL     1      26.939   9.617  48.894  1.00  0.00     0.313 HD
HETATM   21  H18 UNL     1      25.276   9.626  49.396  1.00  0.00     0.313 HD
ENDBRANCH  17  19
ENDBRANCH  11  13
ENDBRANCH   7  11
BRANCH   9  22
HETATM   22  C13 UNL     1      26.236   1.996  53.003  1.00  0.00     0.121 C 
HETATM   23  C14 UNL     1      26.584   0.742  53.224  1.00  0.00     0.019 C 
BRANCH  23  24
HETATM   24  C15 UNL     1      26.915   0.273  54.547  1.00  0.00    -0.002 C 
HETATM   25  C16 UNL     1      28.166   0.121  54.944  1.00  0.00    -0.012 C 
BRANCH  25  26
HETATM   26  C17 UNL     1      29.373   0.386  54.159  1.00  0.00     0.141 C 
HETATM   27 CL1  UNL     1      29.965  -1.096  53.341  1.00  0.00    -0.126 Cl
ENDBRANCH  25  26
ENDBRANCH  23  24
ENDBRANCH   9  22
BRANCH   1  28
HETATM   28  C2  UNL     1      21.993   2.942  48.784  1.00  0.00     0.127 C 
HETATM   29  C1  UNL     1      22.321   2.126  47.574  1.00  0.00     0.027 C 
ENDBRANCH   1  28
TORSDOF 7
ENDMDL
