MODEL 1
REMARK VINA RESULT:      -8.4      0.000      0.000
REMARK  3 active torsions:
REMARK  status: ('A' for Active; 'I' for Inactive)
REMARK    1  A    between atoms: O1_2  and  C2_3 
REMARK    2  A    between atoms: C5_6  and  C6_7 
REMARK    3  A    between atoms: C6_7  and  C7_8 
ROOT
HETATM    1  C7  UNL     1      24.092   2.803  51.654  1.00  0.00     0.009 C 
HETATM    2  C8  UNL     1      24.862   3.621  50.957  1.00  0.00     0.051 A 
HETATM    3  C9  UNL     1      25.954   3.204  50.091  1.00  0.00     0.031 A 
HETATM    4  C10 UNL     1      26.909   3.620  49.274  1.00  0.00     0.002 A 
HETATM    5  C11 UNL     1      27.554   4.783  48.653  1.00  0.00     0.000 A 
HETATM    6  C12 UNL     1      27.573   6.085  48.534  1.00  0.00     0.000 A 
HETATM    7  C13 UNL     1      27.048   7.376  48.865  1.00  0.00     0.006 A 
HETATM    8  C14 UNL     1      26.074   7.833  49.629  1.00  0.00     0.084 A 
HETATM    9  C15 UNL     1      25.046   7.238  50.520  1.00  0.00     0.304 A 
HETATM   10  O2  UNL     1      24.092   7.548  51.280  1.00  0.00    -0.258 OA
HETATM   11  O3  UNL     1      25.280   5.900  50.434  1.00  0.00    -0.195 OA
HETATM   12  N1  UNL     1      24.528   5.013  51.122  1.00  0.00    -0.258 N 
HETATM   13  H15 UNL     1      23.765   5.326  51.724  1.00  0.00     0.195 HD
ENDROOT
BRANCH   1  14
HETATM   14  C6  UNL     1      24.000   1.335  51.844  1.00  0.00     0.068 C 
BRANCH  14  15
HETATM   15  C5  UNL     1      25.218   0.927  52.635  1.00  0.00    -0.054 A 
HETATM   16  C4  UNL     1      25.953  -0.112  52.106  1.00  0.00     0.010 A 
HETATM   17  C3  UNL     1      27.101  -0.572  52.756  1.00  0.00     0.037 A 
HETATM   18  C2  UNL     1      27.450   0.070  53.949  1.00  0.00     0.068 A 
HETATM   19  C17 UNL     1      26.689   1.099  54.437  1.00  0.00     0.037 A 
HETATM   20  C16 UNL     1      25.556   1.553  53.797  1.00  0.00     0.010 A 
BRANCH  18  21
HETATM   21  O1  UNL     1      28.599  -0.455  54.517  1.00  0.00    -0.356 OA
HETATM   22  C1  UNL     1      29.763  -0.797  53.802  1.00  0.00     0.210 C 
ENDBRANCH  18  21
ENDBRANCH  14  15
ENDBRANCH   1  14
TORSDOF 3
ENDMDL
MODEL 2
REMARK VINA RESULT:      -8.3      4.579      7.404
REMARK  3 active torsions:
REMARK  status: ('A' for Active; 'I' for Inactive)
REMARK    1  A    between atoms: O1_2  and  C2_3 
REMARK    2  A    between atoms: C5_6  and  C6_7 
REMARK    3  A    between atoms: C6_7  and  C7_8 
ROOT
HETATM    1  C7  UNL     1      23.959   0.457  52.710  1.00  0.00     0.009 C 
HETATM    2  C8  UNL     1      25.251   0.565  52.965  1.00  0.00     0.051 A 
HETATM    3  C9  UNL     1      25.936   1.803  53.304  1.00  0.00     0.031 A 
HETATM    4  C10 UNL     1      27.102   2.349  53.611  1.00  0.00     0.002 A 
HETATM    5  C11 UNL     1      28.533   2.110  53.832  1.00  0.00     0.000 A 
HETATM    6  C12 UNL     1      29.500   1.231  53.860  1.00  0.00     0.000 A 
HETATM    7  C13 UNL     1      29.967  -0.116  53.715  1.00  0.00     0.006 A 
HETATM    8  C14 UNL     1      29.421  -1.279  53.416  1.00  0.00     0.084 A 
HETATM    9  C15 UNL     1      28.057  -1.765  53.083  1.00  0.00     0.304 A 
HETATM   10  O2  UNL     1      27.420  -2.810  52.787  1.00  0.00    -0.258 OA
HETATM   11  O3  UNL     1      27.292  -0.640  53.134  1.00  0.00    -0.195 OA
HETATM   12  N1  UNL     1      25.965  -0.685  52.883  1.00  0.00    -0.258 N 
HETATM   13  H15 UNL     1      25.504  -1.565  52.648  1.00  0.00     0.195 HD
ENDROOT
BRANCH   1  14
HETATM   14  C6  UNL     1      22.806   1.388  52.658  1.00  0.00     0.068 C 
BRANCH  14  15
HETATM   15  C5  UNL     1      21.573   0.559  52.916  1.00  0.00    -0.054 A 
HETATM   16  C4  UNL     1      20.470   0.875  52.151  1.00  0.00     0.010 A 
HETATM   17  C3  UNL     1      19.273   0.172  52.308  1.00  0.00     0.037 A 
HETATM   18  C2  UNL     1      19.261  -0.848  53.265  1.00  0.00     0.068 A 
HETATM   19  C17 UNL     1      20.382  -1.127  54.003  1.00  0.00     0.037 A 
HETATM   20  C16 UNL     1      21.563  -0.433  53.850  1.00  0.00     0.010 A 
BRANCH  18  21
HETATM   21  O1  UNL     1      18.034  -1.485  53.347  1.00  0.00    -0.356 OA
HETATM   22  C1  UNL     1      17.840  -2.793  53.833  1.00  0.00     0.210 C 
ENDBRANCH  18  21
ENDBRANCH  14  15
ENDBRANCH   1  14
TORSDOF 3
ENDMDL
MODEL 3
REMARK VINA RESULT:      -8.1      4.132      7.277
REMARK  3 active torsions:
REMARK  status: ('A' for Active; 'I' for Inactive)
REMARK    1  A    between atoms: O1_2  and  C2_3 
REMARK    2  A    between atoms: C5_6  and  C6_7 
REMARK    3  A    between atoms: C6_7  and  C7_8 
ROOT
HETATM    1  C7  UNL     1      23.960  -0.255  53.079  1.00  0.00     0.009 C 
HETATM    2  C8  UNL     1      25.241   0.031  53.230  1.00  0.00     0.051 A 
HETATM    3  C9  UNL     1      25.771   1.351  53.537  1.00  0.00     0.031 A 
HETATM    4  C10 UNL     1      26.872   2.053  53.759  1.00  0.00     0.002 A 
HETATM    5  C11 UNL     1      28.336   2.016  53.859  1.00  0.00     0.000 A 
HETATM    6  C12 UNL     1      29.415   1.281  53.789  1.00  0.00     0.000 A 
HETATM    7  C13 UNL     1      30.052   0.016  53.579  1.00  0.00     0.006 A 
HETATM    8  C14 UNL     1      29.650  -1.210  53.301  1.00  0.00     0.084 A 
HETATM    9  C15 UNL     1      28.345  -1.880  53.069  1.00  0.00     0.304 A 
HETATM   10  O2  UNL     1      27.838  -3.002  52.805  1.00  0.00    -0.258 OA
HETATM   11  O3  UNL     1      27.437  -0.875  53.207  1.00  0.00    -0.195 OA
HETATM   12  N1  UNL     1      26.113  -1.104  53.063  1.00  0.00    -0.258 N 
HETATM   13  H15 UNL     1      25.761  -2.038  52.848  1.00  0.00     0.195 HD
ENDROOT
BRANCH   1  14
HETATM   14  C6  UNL     1      22.688   0.504  53.140  1.00  0.00     0.068 C 
BRANCH  14  15
HETATM   15  C5  UNL     1      22.428   1.021  51.747  1.00  0.00    -0.054 A 
HETATM   16  C4  UNL     1      21.444   0.363  51.041  1.00  0.00     0.010 A 
HETATM   17  C3  UNL     1      21.120   0.757  49.739  1.00  0.00     0.037 A 
HETATM   18  C2  UNL     1      21.839   1.835  49.210  1.00  0.00     0.068 A 
HETATM   19  C17 UNL     1      22.809   2.458  49.950  1.00  0.00     0.037 A 
HETATM   20  C16 UNL     1      23.129   2.069  51.233  1.00  0.00     0.010 A 
BRANCH  18  21
HETATM   21  O1  UNL     1      21.448   2.150  47.919  1.00  0.00    -0.356 OA
HETATM   22  C1  UNL     1      20.255   2.821  47.585  1.00  0.00     0.210 C 
ENDBRANCH  18  21
ENDBRANCH  14  15
ENDBRANCH   1  14
TORSDOF 3
ENDMDL
MODEL 4
REMARK VINA RESULT:      -8.1      3.374      6.863
REMARK  3 active torsions:
REMARK  status: ('A' for Active; 'I' for Inactive)
REMARK    1  A    between atoms: O1_2  and  C2_3 
REMARK    2  A    between atoms: C5_6  and  C6_7 
REMARK    3  A    between atoms: C6_7  and  C7_8 
ROOT
HETATM    1  C7  UNL     1      24.554   2.774  53.059  1.00  0.00     0.009 C 
HETATM    2  C8  UNL     1      25.434   1.787  53.068  1.00  0.00     0.051 A 
HETATM    3  C9  UNL     1      25.146   0.409  52.701  1.00  0.00     0.031 A 
HETATM    4  C10 UNL     1      25.654  -0.807  52.569  1.00  0.00     0.002 A 
HETATM    5  C11 UNL     1      26.856  -1.640  52.692  1.00  0.00     0.000 A 
HETATM    6  C12 UNL     1      28.126  -1.683  53.000  1.00  0.00     0.000 A 
HETATM    7  C13 UNL     1      29.326  -1.037  53.439  1.00  0.00     0.006 A 
HETATM    8  C14 UNL     1      29.666   0.190  53.786  1.00  0.00     0.084 A 
HETATM    9  C15 UNL     1      28.976   1.500  53.893  1.00  0.00     0.304 A 
HETATM   10  O2  UNL     1      29.175   2.705  54.200  1.00  0.00    -0.258 OA
HETATM   11  O3  UNL     1      27.699   1.224  53.514  1.00  0.00    -0.195 OA
HETATM   12  N1  UNL     1      26.753   2.190  53.484  1.00  0.00    -0.258 N 
HETATM   13  H15 UNL     1      26.976   3.152  53.745  1.00  0.00     0.195 HD
ENDROOT
BRANCH   1  14
HETATM   14  C6  UNL     1      23.116   2.911  52.728  1.00  0.00     0.068 C 
BRANCH  14  15
HETATM   15  C5  UNL     1      23.014   2.868  51.224  1.00  0.00    -0.054 A 
HETATM   16  C4  UNL     1      22.269   1.831  50.706  1.00  0.00     0.010 A 
HETATM   17  C3  UNL     1      22.108   1.693  49.324  1.00  0.00     0.037 A 
HETATM   18  C2  UNL     1      22.736   2.649  48.519  1.00  0.00     0.068 A 
HETATM   19  C17 UNL     1      23.468   3.663  49.079  1.00  0.00     0.037 A 
HETATM   20  C16 UNL     1      23.627   3.799  50.441  1.00  0.00     0.010 A 
BRANCH  18  21
HETATM   21  O1  UNL     1      22.520   2.429  47.168  1.00  0.00    -0.356 OA
HETATM   22  C1  UNL     1      21.962   3.371  46.282  1.00  0.00     0.210 C 
ENDBRANCH  18  21
ENDBRANCH  14  15
ENDBRANCH   1  14
TORSDOF 3
ENDMDL
MODEL 5
REMARK VINA RESULT:      -8.0      2.821      7.120
REMARK  3 active torsions:
REMARK  status: ('A' for Active; 'I' for Inactive)
REMARK    1  A    between atoms: O1_2  and  C2_3 
REMARK    2  A    between atoms: C5_6  and  C6_7 
REMARK    3  A    between atoms: C6_7  and  C7_8 
ROOT
HETATM    1  C7  UNL     1      24.843   2.562  53.280  1.00  0.00     0.009 C 
HETATM    2  C8  UNL     1      25.730   1.584  53.249  1.00  0.00     0.051 A 
HETATM    3  C9  UNL     1      25.472   0.237  52.763  1.00  0.00     0.031 A 
HETATM    4  C10 UNL     1      25.997  -0.961  52.557  1.00  0.00     0.002 A 
HETATM    5  C11 UNL     1      27.201  -1.794  52.665  1.00  0.00     0.000 A 
HETATM    6  C12 UNL     1      28.457  -1.853  53.024  1.00  0.00     0.000 A 
HETATM    7  C13 UNL     1      29.631  -1.236  53.564  1.00  0.00     0.006 A 
HETATM    8  C14 UNL     1      29.944  -0.038  54.021  1.00  0.00     0.084 A 
HETATM    9  C15 UNL     1      29.237   1.255  54.201  1.00  0.00     0.304 A 
HETATM   10  O2  UNL     1      29.411   2.433  54.611  1.00  0.00    -0.258 OA
HETATM   11  O3  UNL     1      27.980   1.002  53.747  1.00  0.00    -0.195 OA
HETATM   12  N1  UNL     1      27.027   1.961  53.753  1.00  0.00    -0.258 N 
HETATM   13  H15 UNL     1      27.229   2.900  54.098  1.00  0.00     0.195 HD
ENDROOT
BRANCH   1  14
HETATM   14  C6  UNL     1      23.418   2.716  52.899  1.00  0.00     0.068 C 
BRANCH  14  15
HETATM   15  C5  UNL     1      23.405   3.319  51.517  1.00  0.00    -0.054 A 
HETATM   16  C4  UNL     1      23.371   4.697  51.467  1.00  0.00     0.010 A 
HETATM   17  C3  UNL     1      23.356   5.363  50.238  1.00  0.00     0.037 A 
HETATM   18  C2  UNL     1      23.376   4.565  49.089  1.00  0.00     0.068 A 
HETATM   19  C17 UNL     1      23.410   3.199  49.188  1.00  0.00     0.037 A 
HETATM   20  C16 UNL     1      23.424   2.541  50.399  1.00  0.00     0.010 A 
BRANCH  18  21
HETATM   21  O1  UNL     1      23.359   5.313  47.924  1.00  0.00    -0.356 OA
HETATM   22  C1  UNL     1      22.336   5.269  46.957  1.00  0.00     0.210 C 
ENDBRANCH  18  21
ENDBRANCH  14  15
ENDBRANCH   1  14
TORSDOF 3
ENDMDL
MODEL 6
REMARK VINA RESULT:      -7.9      2.654      7.551
REMARK  3 active torsions:
REMARK  status: ('A' for Active; 'I' for Inactive)
REMARK    1  A    between atoms: O1_2  and  C2_3 
REMARK    2  A    between atoms: C5_6  and  C6_7 
REMARK    3  A    between atoms: C6_7  and  C7_8 
ROOT
HETATM    1  C7  UNL     1      24.554   2.415  51.000  1.00  0.00     0.009 C 
HETATM    2  C8  UNL     1      24.022   1.642  51.931  1.00  0.00     0.051 A 
HETATM    3  C9  UNL     1      22.596   1.492  52.178  1.00  0.00     0.031 A 
HETATM    4  C10 UNL     1      21.682   0.893  52.925  1.00  0.00     0.002 A 
HETATM    5  C11 UNL     1      21.439  -0.042  54.031  1.00  0.00     0.000 A 
HETATM    6  C12 UNL     1      21.971  -0.833  54.926  1.00  0.00     0.000 A 
HETATM    7  C13 UNL     1      23.120  -1.416  55.551  1.00  0.00     0.006 A 
HETATM    8  C14 UNL     1      24.427  -1.335  55.389  1.00  0.00     0.084 A 
HETATM    9  C15 UNL     1      25.349  -0.601  54.485  1.00  0.00     0.304 A 
HETATM   10  O2  UNL     1      26.572  -0.439  54.232  1.00  0.00    -0.258 OA
HETATM   11  O3  UNL     1      24.513   0.118  53.687  1.00  0.00    -0.195 OA
HETATM   12  N1  UNL     1      24.996   0.927  52.717  1.00  0.00    -0.258 N 
HETATM   13  H15 UNL     1      26.000   1.017  52.560  1.00  0.00     0.195 HD
ENDROOT
BRANCH   1  14
HETATM   14  C6  UNL     1      24.034   3.330  49.956  1.00  0.00     0.068 C 
BRANCH  14  15
HETATM   15  C5  UNL     1      25.211   4.135  49.466  1.00  0.00    -0.054 A 
HETATM   16  C4  UNL     1      24.931   5.430  49.084  1.00  0.00     0.010 A 
HETATM   17  C3  UNL     1      25.947   6.266  48.612  1.00  0.00     0.037 A 
HETATM   18  C2  UNL     1      27.235   5.721  48.552  1.00  0.00     0.068 A 
HETATM   19  C17 UNL     1      27.465   4.429  48.943  1.00  0.00     0.037 A 
HETATM   20  C16 UNL     1      26.464   3.603  49.408  1.00  0.00     0.010 A 
BRANCH  18  21
HETATM   21  O1  UNL     1      28.170   6.624  48.073  1.00  0.00    -0.356 OA
HETATM   22  C1  UNL     1      29.565   6.483  48.214  1.00  0.00     0.210 C 
ENDBRANCH  18  21
ENDBRANCH  14  15
ENDBRANCH   1  14
TORSDOF 3
ENDMDL
MODEL 7
REMARK VINA RESULT:      -7.9      2.192      3.047
REMARK  3 active torsions:
REMARK  status: ('A' for Active; 'I' for Inactive)
REMARK    1  A    between atoms: O1_2  and  C2_3 
REMARK    2  A    between atoms: C5_6  and  C6_7 
REMARK    3  A    between atoms: C6_7  and  C7_8 
ROOT
HETATM    1  C7  UNL     1      25.452   5.141  49.867  1.00  0.00     0.009 C 
HETATM    2  C8  UNL     1      26.519   5.794  49.442  1.00  0.00     0.051 A 
HETATM    3  C9  UNL     1      27.626   5.199  48.709  1.00  0.00     0.031 A 
HETATM    4  C10 UNL     1      28.795   5.431  48.133  1.00  0.00     0.002 A 
HETATM    5  C11 UNL     1      29.813   6.439  47.815  1.00  0.00     0.000 A 
HETATM    6  C12 UNL     1      30.171   7.694  47.908  1.00  0.00     0.000 A 
HETATM    7  C13 UNL     1      29.922   9.033  48.350  1.00  0.00     0.006 A 
HETATM    8  C14 UNL     1      28.959   9.647  49.009  1.00  0.00     0.084 A 
HETATM    9  C15 UNL     1      27.662   9.255  49.618  1.00  0.00     0.304 A 
HETATM   10  O2  UNL     1      26.681   9.724  50.253  1.00  0.00    -0.258 OA
HETATM   11  O3  UNL     1      27.575   7.921  49.360  1.00  0.00    -0.195 OA
HETATM   12  N1  UNL     1      26.509   7.198  49.769  1.00  0.00    -0.258 N 
HETATM   13  H15 UNL     1      25.742   7.636  50.281  1.00  0.00     0.195 HD
ENDROOT
BRANCH   1  14
HETATM   14  C6  UNL     1      24.970   3.740  49.806  1.00  0.00     0.068 C 
BRANCH  14  15
HETATM   15  C5  UNL     1      25.328   3.104  51.126  1.00  0.00    -0.054 A 
HETATM   16  C4  UNL     1      26.573   2.515  51.185  1.00  0.00     0.010 A 
HETATM   17  C3  UNL     1      27.009   1.895  52.360  1.00  0.00     0.037 A 
HETATM   18  C2  UNL     1      26.125   1.908  53.445  1.00  0.00     0.068 A 
HETATM   19  C17 UNL     1      24.898   2.507  53.339  1.00  0.00     0.037 A 
HETATM   20  C16 UNL     1      24.467   3.118  52.181  1.00  0.00     0.010 A 
BRANCH  18  21
HETATM   21  O1  UNL     1      26.645   1.271  54.560  1.00  0.00    -0.356 OA
HETATM   22  C1  UNL     1      26.301  -0.031  54.973  1.00  0.00     0.210 C 
ENDBRANCH  18  21
ENDBRANCH  14  15
ENDBRANCH   1  14
TORSDOF 3
ENDMDL
MODEL 8
REMARK VINA RESULT:      -7.8      2.532      7.397
REMARK  3 active torsions:
REMARK  status: ('A' for Active; 'I' for Inactive)
REMARK    1  A    between atoms: O1_2  and  C2_3 
REMARK    2  A    between atoms: C5_6  and  C6_7 
REMARK    3  A    between atoms: C6_7  and  C7_8 
ROOT
HETATM    1  C7  UNL     1      26.356   3.776  50.151  1.00  0.00     0.009 C 
HETATM    2  C8  UNL     1      25.913   2.840  50.973  1.00  0.00     0.051 A 
HETATM    3  C9  UNL     1      24.521   2.436  51.106  1.00  0.00     0.031 A 
HETATM    4  C10 UNL     1      23.682   1.627  51.733  1.00  0.00     0.002 A 
HETATM    5  C11 UNL     1      23.542   0.562  52.734  1.00  0.00     0.000 A 
HETATM    6  C12 UNL     1      24.150  -0.214  53.593  1.00  0.00     0.000 A 
HETATM    7  C13 UNL     1      25.346  -0.660  54.242  1.00  0.00     0.006 A 
HETATM    8  C14 UNL     1      26.627  -0.352  54.180  1.00  0.00     0.084 A 
HETATM    9  C15 UNL     1      27.459   0.607  53.409  1.00  0.00     0.304 A 
HETATM   10  O2  UNL     1      28.649   0.991  53.257  1.00  0.00    -0.258 OA
HETATM   11  O3  UNL     1      26.558   1.254  52.620  1.00  0.00    -0.195 OA
HETATM   12  N1  UNL     1      26.949   2.221  51.760  1.00  0.00    -0.258 N 
HETATM   13  H15 UNL     1      27.931   2.489  51.681  1.00  0.00     0.195 HD
ENDROOT
BRANCH   1  14
HETATM   14  C6  UNL     1      25.746   4.691  49.157  1.00  0.00     0.068 C 
BRANCH  14  15
HETATM   15  C5  UNL     1      26.864   5.549  48.620  1.00  0.00    -0.054 A 
HETATM   16  C4  UNL     1      28.106   4.953  48.577  1.00  0.00     0.010 A 
HETATM   17  C3  UNL     1      29.215   5.656  48.098  1.00  0.00     0.037 A 
HETATM   18  C2  UNL     1      28.993   6.971  47.676  1.00  0.00     0.068 A 
HETATM   19  C17 UNL     1      27.740   7.522  47.736  1.00  0.00     0.037 A 
HETATM   20  C16 UNL     1      26.646   6.829  48.209  1.00  0.00     0.010 A 
BRANCH  18  21
HETATM   21  O1  UNL     1      30.148   7.583  47.219  1.00  0.00    -0.356 OA
HETATM   22  C1  UNL     1      31.349   7.676  47.950  1.00  0.00     0.210 C 
ENDBRANCH  18  21
ENDBRANCH  14  15
ENDBRANCH   1  14
TORSDOF 3
ENDMDL
MODEL 9
REMARK VINA RESULT:      -7.5      4.758      7.577
REMARK  3 active torsions:
REMARK  status: ('A' for Active; 'I' for Inactive)
REMARK    1  A    between atoms: O1_2  and  C2_3 
REMARK    2  A    between atoms: C5_6  and  C6_7 
REMARK    3  A    between atoms: C6_7  and  C7_8 
ROOT
HETATM    1  C7  UNL     1      22.401   0.606  52.143  1.00  0.00     0.009 C 
HETATM    2  C8  UNL     1      23.678   0.863  52.367  1.00  0.00     0.051 A 
HETATM    3  C9  UNL     1      24.503   1.756  51.568  1.00  0.00     0.031 A 
HETATM    4  C10 UNL     1      25.713   2.275  51.423  1.00  0.00     0.002 A 
HETATM    5  C11 UNL     1      27.081   2.331  51.950  1.00  0.00     0.000 A 
HETATM    6  C12 UNL     1      27.915   1.910  52.866  1.00  0.00     0.000 A 
HETATM    7  C13 UNL     1      28.201   1.117  54.023  1.00  0.00     0.006 A 
HETATM    8  C14 UNL     1      27.519   0.293  54.797  1.00  0.00     0.084 A 
HETATM    9  C15 UNL     1      26.125  -0.216  54.849  1.00  0.00     0.304 A 
HETATM   10  O2  UNL     1      25.370  -0.978  55.509  1.00  0.00    -0.258 OA
HETATM   11  O3  UNL     1      25.520   0.391  53.792  1.00  0.00    -0.195 OA
HETATM   12  N1  UNL     1      24.217   0.169  53.509  1.00  0.00    -0.258 N 
HETATM   13  H15 UNL     1      23.655  -0.461  54.083  1.00  0.00     0.195 HD
ENDROOT
BRANCH   1  14
HETATM   14  C6  UNL     1      21.392   1.033  51.144  1.00  0.00     0.068 C 
BRANCH  14  15
HETATM   15  C5  UNL     1      20.092   0.380  51.540  1.00  0.00    -0.054 A 
HETATM   16  C4  UNL     1      20.091  -0.253  52.765  1.00  0.00     0.010 A 
HETATM   17  C3  UNL     1      18.939  -0.892  53.232  1.00  0.00     0.037 A 
HETATM   18  C2  UNL     1      17.815  -0.853  52.400  1.00  0.00     0.068 A 
HETATM   19  C17 UNL     1      17.863  -0.211  51.191  1.00  0.00     0.037 A 
HETATM   20  C16 UNL     1      18.998   0.419  50.729  1.00  0.00     0.010 A 
BRANCH  18  21
HETATM   21  O1  UNL     1      16.727  -1.512  52.948  1.00  0.00    -0.356 OA
HETATM   22  C1  UNL     1      15.514  -1.756  52.274  1.00  0.00     0.210 C 
ENDBRANCH  18  21
ENDBRANCH  14  15
ENDBRANCH   1  14
TORSDOF 3
ENDMDL
