MODEL 1
REMARK VINA RESULT:      -7.4      0.000      0.000
REMARK  4 active torsions:
REMARK  status: ('A' for Active; 'I' for Inactive)
REMARK    1  A    between atoms: C2_2  and  C3_4 
REMARK    2  A    between atoms: C4_6  and  C5_7 
REMARK    3  A    between atoms: C5_7  and  C6_8 
REMARK    4  A    between atoms: C15_20  and  C16_21 
ROOT
HETATM    1  C6  UNL     1      24.425   1.531  53.023  1.00  0.00     0.031 C 
HETATM    2  N1  UNL     1      25.163   2.863  53.030  1.00  0.00    -0.378 N 
HETATM    3  C7  UNL     1      24.568   3.301  51.798  1.00  0.00     0.059 A 
HETATM    4  C8  UNL     1      23.682   3.728  52.707  1.00  0.00    -0.008 A 
HETATM    5  C9  UNL     1      22.487   3.442  52.157  1.00  0.00     0.022 A 
HETATM    6  N2  UNL     1      23.128   2.990  51.183  1.00  0.00     0.000 N 
HETATM    7  C10 UNL     1      24.073   2.689  50.520  1.00  0.00     0.009 A 
HETATM    8  C11 UNL     1      25.411   2.845  50.826  1.00  0.00     0.038 A 
HETATM    9  C12 UNL     1      22.684   2.382  49.907  1.00  0.00     0.045 A 
HETATM   10  C13 UNL     1      21.793   2.791  51.054  1.00  0.00     0.044 A 
HETATM   11  C14 UNL     1      20.982   3.258  51.986  1.00  0.00     0.038 A 
HETATM   12  N3  UNL     1      22.141   1.544  51.925  1.00  0.00    -0.399 N 
HETATM   13  C15 UNL     1      22.971   1.209  53.091  1.00  0.00     0.161 C 
HETATM   14  H5  UNL     1      25.792   2.931  53.882  1.00  0.00     0.160 HD
HETATM   15  H11 UNL     1      21.594   0.709  51.562  1.00  0.00     0.154 HD
ENDROOT
BRANCH   1  16
HETATM   16  C5  UNL     1      25.321   0.510  52.950  1.00  0.00     0.029 C 
BRANCH  16  17
HETATM   17  C4  UNL     1      26.537  -0.234  53.007  1.00  0.00     0.041 C 
HETATM   18  C3  UNL     1      27.305  -1.300  52.811  1.00  0.00     0.112 C 
HETATM   19  F1  UNL     1      26.768  -2.369  52.230  1.00  0.00    -0.209 F 
BRANCH  18  20
HETATM   20  C2  UNL     1      28.629  -1.064  53.279  1.00  0.00     0.074 C 
HETATM   21  C1  UNL     1      29.399  -2.145  53.268  1.00  0.00     0.098 C 
HETATM   22 CL1  UNL     1      29.375   0.389  53.834  1.00  0.00    -0.117 Cl
ENDBRANCH  18  20
ENDBRANCH  16  17
ENDBRANCH   1  16
BRANCH  13  23
HETATM   23  C16 UNL     1      22.728  -0.162  53.528  1.00  0.00     0.422 C 
HETATM   24  O1  UNL     1      22.030  -1.050  53.134  1.00  0.00    -0.428 OA
ENDBRANCH  13  23
TORSDOF 4
ENDMDL
MODEL 2
REMARK VINA RESULT:      -7.3      1.419      1.787
REMARK  4 active torsions:
REMARK  status: ('A' for Active; 'I' for Inactive)
REMARK    1  A    between atoms: C2_2  and  C3_4 
REMARK    2  A    between atoms: C4_6  and  C5_7 
REMARK    3  A    between atoms: C5_7  and  C6_8 
REMARK    4  A    between atoms: C15_20  and  C16_21 
ROOT
HETATM    1  C6  UNL     1      23.264   0.756  53.133  1.00  0.00     0.031 C 
HETATM    2  N1  UNL     1      23.614   2.230  52.975  1.00  0.00    -0.378 N 
HETATM    3  C7  UNL     1      22.910   2.355  51.729  1.00  0.00     0.059 A 
HETATM    4  C8  UNL     1      21.951   2.625  52.624  1.00  0.00    -0.008 A 
HETATM    5  C9  UNL     1      20.873   1.971  52.152  1.00  0.00     0.022 A 
HETATM    6  N2  UNL     1      21.603   1.604  51.205  1.00  0.00     0.000 N 
HETATM    7  C10 UNL     1      22.588   1.498  50.540  1.00  0.00     0.009 A 
HETATM    8  C11 UNL     1      23.836   2.039  50.777  1.00  0.00     0.038 A 
HETATM    9  C12 UNL     1      21.328   0.765  50.016  1.00  0.00     0.045 A 
HETATM   10  C13 UNL     1      20.370   1.042  51.150  1.00  0.00     0.044 A 
HETATM   11  C14 UNL     1      19.472   1.372  52.060  1.00  0.00     0.038 A 
HETATM   12  N3  UNL     1      21.051   0.037  52.129  1.00  0.00    -0.399 N 
HETATM   13  C15 UNL     1      21.952   0.065  53.289  1.00  0.00     0.161 C 
HETATM   14  H5  UNL     1      24.209   2.556  53.791  1.00  0.00     0.160 HD
HETATM   15  H11 UNL     1      20.747  -0.949  51.874  1.00  0.00     0.154 HD
ENDROOT
BRANCH   1  16
HETATM   16  C5  UNL     1      24.403   0.011  53.129  1.00  0.00     0.029 C 
BRANCH  16  17
HETATM   17  C4  UNL     1      25.778  -0.366  53.194  1.00  0.00     0.041 C 
HETATM   18  C3  UNL     1      26.838  -1.101  52.882  1.00  0.00     0.112 C 
HETATM   19  F1  UNL     1      26.685  -2.100  52.018  1.00  0.00    -0.209 F 
BRANCH  18  20
HETATM   20  C2  UNL     1      27.997  -0.636  53.568  1.00  0.00     0.074 C 
HETATM   21  C1  UNL     1      27.727   0.193  54.569  1.00  0.00     0.098 C 
HETATM   22 CL1  UNL     1      29.665  -0.991  53.310  1.00  0.00    -0.117 Cl
ENDBRANCH  18  20
ENDBRANCH  16  17
ENDBRANCH   1  16
BRANCH  13  23
HETATM   23  C16 UNL     1      22.094  -1.265  53.873  1.00  0.00     0.422 C 
HETATM   24  O1  UNL     1      21.839  -1.736  54.943  1.00  0.00    -0.428 OA
ENDBRANCH  13  23
TORSDOF 4
ENDMDL
MODEL 3
REMARK VINA RESULT:      -7.3      3.770      6.004
REMARK  4 active torsions:
REMARK  status: ('A' for Active; 'I' for Inactive)
REMARK    1  A    between atoms: C2_2  and  C3_4 
REMARK    2  A    between atoms: C4_6  and  C5_7 
REMARK    3  A    between atoms: C5_7  and  C6_8 
REMARK    4  A    between atoms: C15_20  and  C16_21 
ROOT
HETATM    1  C6  UNL     1      25.310  -0.365  53.454  1.00  0.00     0.031 C 
HETATM    2  N1  UNL     1      25.693  -0.675  52.013  1.00  0.00    -0.378 N 
HETATM    3  C7  UNL     1      26.685   0.364  51.960  1.00  0.00     0.059 A 
HETATM    4  C8  UNL     1      27.389  -0.676  52.425  1.00  0.00    -0.008 A 
HETATM    5  C9  UNL     1      28.157  -0.142  53.393  1.00  0.00     0.022 A 
HETATM    6  N2  UNL     1      27.621   0.952  53.110  1.00  0.00     0.000 N 
HETATM    7  C10 UNL     1      26.905   1.725  52.550  1.00  0.00     0.009 A 
HETATM    8  C11 UNL     1      26.004   1.469  51.536  1.00  0.00     0.038 A 
HETATM    9  C12 UNL     1      27.809   2.314  53.663  1.00  0.00     0.045 A 
HETATM   10  C13 UNL     1      28.451   1.049  54.178  1.00  0.00     0.044 A 
HETATM   11  C14 UNL     1      29.125  -0.019  54.566  1.00  0.00     0.038 A 
HETATM   12  N3  UNL     1      27.167   0.554  54.913  1.00  0.00    -0.399 N 
HETATM   13  C15 UNL     1      26.096  -0.433  54.719  1.00  0.00     0.161 C 
HETATM   14  H5  UNL     1      25.106  -1.477  51.640  1.00  0.00     0.160 HD
HETATM   15  H11 UNL     1      27.067   1.089  55.825  1.00  0.00     0.154 HD
ENDROOT
BRANCH   1  16
HETATM   16  C5  UNL     1      24.008   0.024  53.509  1.00  0.00     0.029 C 
BRANCH  16  17
HETATM   17  C4  UNL     1      22.582  -0.001  53.469  1.00  0.00     0.041 C 
HETATM   18  C3  UNL     1      21.363   0.039  53.996  1.00  0.00     0.112 C 
HETATM   19  F1  UNL     1      21.246   0.192  55.312  1.00  0.00    -0.209 F 
BRANCH  18  20
HETATM   20  C2  UNL     1      20.369  -0.084  52.984  1.00  0.00     0.074 C 
HETATM   21  C1  UNL     1      20.748   0.393  51.804  1.00  0.00     0.098 C 
HETATM   22 CL1  UNL     1      18.783  -0.757  53.052  1.00  0.00    -0.117 Cl
ENDBRANCH  18  20
ENDBRANCH  16  17
ENDBRANCH   1  16
BRANCH  13  23
HETATM   23  C16 UNL     1      25.239  -0.512  55.898  1.00  0.00     0.422 C 
HETATM   24  O1  UNL     1      25.233  -1.197  56.878  1.00  0.00    -0.428 OA
ENDBRANCH  13  23
TORSDOF 4
ENDMDL
MODEL 4
REMARK VINA RESULT:      -7.2      3.018      4.021
REMARK  4 active torsions:
REMARK  status: ('A' for Active; 'I' for Inactive)
REMARK    1  A    between atoms: C2_2  and  C3_4 
REMARK    2  A    between atoms: C4_6  and  C5_7 
REMARK    3  A    between atoms: C5_7  and  C6_8 
REMARK    4  A    between atoms: C15_20  and  C16_21 
ROOT
HETATM    1  C6  UNL     1      25.460   2.767  50.678  1.00  0.00     0.031 C 
HETATM    2  N1  UNL     1      24.280   1.912  51.123  1.00  0.00    -0.378 N 
HETATM    3  C7  UNL     1      23.489   3.048  51.508  1.00  0.00     0.059 A 
HETATM    4  C8  UNL     1      23.170   2.907  50.214  1.00  0.00    -0.008 A 
HETATM    5  C9  UNL     1      23.153   4.168  49.744  1.00  0.00     0.022 A 
HETATM    6  N2  UNL     1      23.448   4.526  50.906  1.00  0.00     0.000 N 
HETATM    7  C10 UNL     1      23.710   4.423  52.065  1.00  0.00     0.009 A 
HETATM    8  C11 UNL     1      23.815   3.268  52.815  1.00  0.00     0.038 A 
HETATM    9  C12 UNL     1      23.673   5.865  51.499  1.00  0.00     0.045 A 
HETATM   10  C13 UNL     1      23.427   5.568  50.039  1.00  0.00     0.044 A 
HETATM   11  C14 UNL     1      23.086   5.351  48.782  1.00  0.00     0.038 A 
HETATM   12  N3  UNL     1      24.879   5.062  49.774  1.00  0.00    -0.399 N 
HETATM   13  C15 UNL     1      25.588   3.787  49.599  1.00  0.00     0.161 C 
HETATM   14  H5  UNL     1      24.500   0.883  50.990  1.00  0.00     0.160 HD
HETATM   15  H11 UNL     1      25.523   5.901  49.681  1.00  0.00     0.154 HD
ENDROOT
BRANCH   1  16
HETATM   16  C5  UNL     1      26.547   2.481  51.444  1.00  0.00     0.029 C 
BRANCH  16  17
HETATM   17  C4  UNL     1      27.401   1.882  52.418  1.00  0.00     0.041 C 
HETATM   18  C3  UNL     1      28.383   1.872  53.312  1.00  0.00     0.112 C 
HETATM   19  F1  UNL     1      29.041   3.003  53.544  1.00  0.00    -0.209 F 
BRANCH  18  20
HETATM   20  C2  UNL     1      28.533   0.576  53.885  1.00  0.00     0.074 C 
HETATM   21  C1  UNL     1      27.556   0.246  54.720  1.00  0.00     0.098 C 
HETATM   22 CL1  UNL     1      29.761  -0.613  53.650  1.00  0.00    -0.117 Cl
ENDBRANCH  18  20
ENDBRANCH  16  17
ENDBRANCH   1  16
BRANCH  13  23
HETATM   23  C16 UNL     1      26.977   4.011  49.211  1.00  0.00     0.422 C 
HETATM   24  O1  UNL     1      27.535   4.843  48.558  1.00  0.00    -0.428 OA
ENDBRANCH  13  23
TORSDOF 4
ENDMDL
MODEL 5
REMARK VINA RESULT:      -7.2      3.351      4.748
REMARK  4 active torsions:
REMARK  status: ('A' for Active; 'I' for Inactive)
REMARK    1  A    between atoms: C2_2  and  C3_4 
REMARK    2  A    between atoms: C4_6  and  C5_7 
REMARK    3  A    between atoms: C5_7  and  C6_8 
REMARK    4  A    between atoms: C15_20  and  C16_21 
ROOT
HETATM    1  C6  UNL     1      24.153   2.512  50.733  1.00  0.00     0.031 C 
HETATM    2  N1  UNL     1      22.887   2.649  49.898  1.00  0.00    -0.378 N 
HETATM    3  C7  UNL     1      22.828   4.075  50.059  1.00  0.00     0.059 A 
HETATM    4  C8  UNL     1      23.596   3.946  48.969  1.00  0.00    -0.008 A 
HETATM    5  C9  UNL     1      24.573   4.852  49.151  1.00  0.00     0.022 A 
HETATM    6  N2  UNL     1      24.003   5.141  50.226  1.00  0.00     0.000 N 
HETATM    7  C10 UNL     1      23.190   5.095  51.098  1.00  0.00     0.009 A 
HETATM    8  C11 UNL     1      22.092   4.263  51.194  1.00  0.00     0.038 A 
HETATM    9  C12 UNL     1      24.323   6.137  51.275  1.00  0.00     0.045 A 
HETATM   10  C13 UNL     1      25.169   5.816  50.067  1.00  0.00     0.044 A 
HETATM   11  C14 UNL     1      25.862   5.647  48.956  1.00  0.00     0.038 A 
HETATM   12  N3  UNL     1      25.734   4.491  50.667  1.00  0.00    -0.399 N 
HETATM   13  C15 UNL     1      25.531   3.042  50.530  1.00  0.00     0.161 C 
HETATM   14  H5  UNL     1      22.566   1.696  49.558  1.00  0.00     0.160 HD
HETATM   15  H11 UNL     1      26.500   4.730  51.364  1.00  0.00     0.154 HD
ENDROOT
BRANCH   1  16
HETATM   16  C5  UNL     1      23.897   1.753  51.833  1.00  0.00     0.029 C 
BRANCH  16  17
HETATM   17  C4  UNL     1      23.306   0.800  52.716  1.00  0.00     0.041 C 
HETATM   18  C3  UNL     1      23.305  -0.268  53.506  1.00  0.00     0.112 C 
HETATM   19  F1  UNL     1      24.443  -0.936  53.670  1.00  0.00    -0.209 F 
BRANCH  18  20
HETATM   20  C2  UNL     1      22.012  -0.486  54.062  1.00  0.00     0.074 C 
HETATM   21  C1  UNL     1      21.842  -1.707  54.552  1.00  0.00     0.098 C 
HETATM   22 CL1  UNL     1      20.664   0.581  54.205  1.00  0.00    -0.117 Cl
ENDBRANCH  18  20
ENDBRANCH  16  17
ENDBRANCH   1  16
BRANCH  13  23
HETATM   23  C16 UNL     1      26.528   2.300  51.295  1.00  0.00     0.422 C 
HETATM   24  O1  UNL     1      27.519   2.607  51.888  1.00  0.00    -0.428 OA
ENDBRANCH  13  23
TORSDOF 4
ENDMDL
MODEL 6
REMARK VINA RESULT:      -6.9      1.586      1.731
REMARK  4 active torsions:
REMARK  status: ('A' for Active; 'I' for Inactive)
REMARK    1  A    between atoms: C2_2  and  C3_4 
REMARK    2  A    between atoms: C4_6  and  C5_7 
REMARK    3  A    between atoms: C5_7  and  C6_8 
REMARK    4  A    between atoms: C15_20  and  C16_21 
ROOT
HETATM    1  C6  UNL     1      23.905   2.467  52.961  1.00  0.00     0.031 C 
HETATM    2  N1  UNL     1      24.279   3.941  52.877  1.00  0.00    -0.378 N 
HETATM    3  C7  UNL     1      23.916   4.045  51.491  1.00  0.00     0.059 A 
HETATM    4  C8  UNL     1      22.759   4.320  52.106  1.00  0.00    -0.008 A 
HETATM    5  C9  UNL     1      21.840   3.653  51.384  1.00  0.00     0.022 A 
HETATM    6  N2  UNL     1      22.789   3.279  50.661  1.00  0.00     0.000 N 
HETATM    7  C10 UNL     1      23.911   3.171  50.271  1.00  0.00     0.009 A 
HETATM    8  C11 UNL     1      25.056   3.724  50.811  1.00  0.00     0.038 A 
HETATM    9  C12 UNL     1      22.830   2.422  49.453  1.00  0.00     0.045 A 
HETATM   10  C13 UNL     1      21.613   2.707  50.300  1.00  0.00     0.044 A 
HETATM   11  C14 UNL     1      20.512   3.043  50.946  1.00  0.00     0.038 A 
HETATM   12  N3  UNL     1      22.025   1.719  51.435  1.00  0.00    -0.399 N 
HETATM   13  C15 UNL     1      22.599   1.769  52.787  1.00  0.00     0.161 C 
HETATM   14  H5  UNL     1      24.644   4.282  53.813  1.00  0.00     0.160 HD
HETATM   15  H11 UNL     1      21.800   0.728  51.125  1.00  0.00     0.154 HD
ENDROOT
BRANCH   1  16
HETATM   16  C5  UNL     1      25.010   1.730  53.259  1.00  0.00     0.029 C 
BRANCH  16  17
HETATM   17  C4  UNL     1      26.344   1.368  53.612  1.00  0.00     0.041 C 
HETATM   18  C3  UNL     1      27.269   0.725  54.316  1.00  0.00     0.112 C 
HETATM   19  F1  UNL     1      26.872  -0.095  55.284  1.00  0.00    -0.209 F 
BRANCH  18  20
HETATM   20  C2  UNL     1      28.575   1.054  53.854  1.00  0.00     0.074 C 
HETATM   21  C1  UNL     1      28.764   2.355  53.668  1.00  0.00     0.098 C 
HETATM   22 CL1  UNL     1      29.930   0.040  53.521  1.00  0.00    -0.117 Cl
ENDBRANCH  18  20
ENDBRANCH  16  17
ENDBRANCH   1  16
BRANCH  13  23
HETATM   23  C16 UNL     1      22.592   0.448  53.406  1.00  0.00     0.422 C 
HETATM   24  O1  UNL     1      21.945  -0.061  54.274  1.00  0.00    -0.428 OA
ENDBRANCH  13  23
TORSDOF 4
ENDMDL
MODEL 7
REMARK VINA RESULT:      -6.9      3.741      6.182
REMARK  4 active torsions:
REMARK  status: ('A' for Active; 'I' for Inactive)
REMARK    1  A    between atoms: C2_2  and  C3_4 
REMARK    2  A    between atoms: C4_6  and  C5_7 
REMARK    3  A    between atoms: C5_7  and  C6_8 
REMARK    4  A    between atoms: C15_20  and  C16_21 
ROOT
HETATM    1  C6  UNL     1      24.825   2.840  51.442  1.00  0.00     0.031 C 
HETATM    2  N1  UNL     1      24.038   2.882  52.746  1.00  0.00    -0.378 N 
HETATM    3  C7  UNL     1      24.561   1.625  53.205  1.00  0.00     0.059 A 
HETATM    4  C8  UNL     1      25.470   2.495  53.665  1.00  0.00    -0.008 A 
HETATM    5  C9  UNL     1      26.649   1.891  53.424  1.00  0.00     0.022 A 
HETATM    6  N2  UNL     1      25.982   0.946  52.948  1.00  0.00     0.000 N 
HETATM    7  C10 UNL     1      25.020   0.325  52.612  1.00  0.00     0.009 A 
HETATM    8  C11 UNL     1      23.693   0.691  52.718  1.00  0.00     0.038 A 
HETATM    9  C12 UNL     1      26.391  -0.350  52.357  1.00  0.00     0.045 A 
HETATM   10  C13 UNL     1      27.318   0.758  52.799  1.00  0.00     0.044 A 
HETATM   11  C14 UNL     1      28.151   1.653  53.296  1.00  0.00     0.038 A 
HETATM   12  N3  UNL     1      27.056   1.641  51.541  1.00  0.00    -0.399 N 
HETATM   13  C15 UNL     1      26.291   2.842  51.175  1.00  0.00     0.161 C 
HETATM   14  H5  UNL     1      23.446   3.761  52.790  1.00  0.00     0.160 HD
HETATM   15  H11 UNL     1      27.617   1.253  50.727  1.00  0.00     0.154 HD
ENDROOT
BRANCH   1  16
HETATM   16  C5  UNL     1      23.965   2.805  50.389  1.00  0.00     0.029 C 
BRANCH  16  17
HETATM   17  C4  UNL     1      22.841   2.498  49.564  1.00  0.00     0.041 C 
HETATM   18  C3  UNL     1      21.846   1.737  49.122  1.00  0.00     0.112 C 
HETATM   19  F1  UNL     1      21.667   0.543  49.679  1.00  0.00    -0.209 F 
BRANCH  18  20
HETATM   20  C2  UNL     1      21.123   2.399  48.090  1.00  0.00     0.074 C 
HETATM   21  C1  UNL     1      21.888   2.835  47.097  1.00  0.00     0.098 C 
HETATM   22 CL1  UNL     1      19.432   2.703  47.929  1.00  0.00    -0.117 Cl
ENDBRANCH  18  20
ENDBRANCH  16  17
ENDBRANCH   1  16
BRANCH  13  23
HETATM   23  C16 UNL     1      26.605   3.266  49.814  1.00  0.00     0.422 C 
HETATM   24  O1  UNL     1      27.386   4.038  49.342  1.00  0.00    -0.428 OA
ENDBRANCH  13  23
TORSDOF 4
ENDMDL
MODEL 8
REMARK VINA RESULT:      -6.5      8.991     11.110
REMARK  4 active torsions:
REMARK  status: ('A' for Active; 'I' for Inactive)
REMARK    1  A    between atoms: C2_2  and  C3_4 
REMARK    2  A    between atoms: C4_6  and  C5_7 
REMARK    3  A    between atoms: C5_7  and  C6_8 
REMARK    4  A    between atoms: C15_20  and  C16_21 
ROOT
HETATM    1  C6  UNL     1      31.679   6.186  48.613  1.00  0.00     0.031 C 
HETATM    2  N1  UNL     1      32.406   4.854  48.739  1.00  0.00    -0.378 N 
HETATM    3  C7  UNL     1      33.300   5.138  47.651  1.00  0.00     0.059 A 
HETATM    4  C8  UNL     1      33.957   5.653  48.699  1.00  0.00    -0.008 A 
HETATM    5  C9  UNL     1      34.438   6.823  48.237  1.00  0.00     0.022 A 
HETATM    6  N2  UNL     1      33.899   6.529  47.148  1.00  0.00     0.000 N 
HETATM    7  C10 UNL     1      33.274   5.894  46.355  1.00  0.00     0.009 A 
HETATM    8  C11 UNL     1      32.653   4.674  46.542  1.00  0.00     0.038 A 
HETATM    9  C12 UNL     1      33.850   7.240  45.849  1.00  0.00     0.045 A 
HETATM   10  C13 UNL     1      34.452   7.768  47.129  1.00  0.00     0.044 A 
HETATM   11  C14 UNL     1      35.098   8.198  48.197  1.00  0.00     0.038 A 
HETATM   12  N3  UNL     1      33.075   8.126  47.769  1.00  0.00    -0.399 N 
HETATM   13  C15 UNL     1      32.156   7.589  48.782  1.00  0.00     0.161 C 
HETATM   14  H5  UNL     1      31.983   4.277  49.523  1.00  0.00     0.160 HD
HETATM   15  H11 UNL     1      32.727   9.036  47.346  1.00  0.00     0.154 HD
ENDROOT
BRANCH   1  16
HETATM   16  C5  UNL     1      30.373   5.969  48.301  1.00  0.00     0.029 C 
BRANCH  16  17
HETATM   17  C4  UNL     1      28.956   5.842  48.408  1.00  0.00     0.041 C 
HETATM   18  C3  UNL     1      27.696   6.169  48.143  1.00  0.00     0.112 C 
HETATM   19  F1  UNL     1      27.465   7.177  47.308  1.00  0.00    -0.209 F 
BRANCH  18  20
HETATM   20  C2  UNL     1      26.794   5.314  48.839  1.00  0.00     0.074 C 
HETATM   21  C1  UNL     1      25.657   5.905  49.185  1.00  0.00     0.098 C 
HETATM   22 CL1  UNL     1      26.945   3.653  49.279  1.00  0.00    -0.117 Cl
ENDBRANCH  18  20
ENDBRANCH  16  17
ENDBRANCH   1  16
BRANCH  13  23
HETATM   23  C16 UNL     1      31.060   8.518  49.038  1.00  0.00     0.422 C 
HETATM   24  O1  UNL     1      30.923   9.467  49.752  1.00  0.00    -0.428 OA
ENDBRANCH  13  23
TORSDOF 4
ENDMDL
MODEL 9
REMARK VINA RESULT:      -6.4      2.985      3.689
REMARK  4 active torsions:
REMARK  status: ('A' for Active; 'I' for Inactive)
REMARK    1  A    between atoms: C2_2  and  C3_4 
REMARK    2  A    between atoms: C4_6  and  C5_7 
REMARK    3  A    between atoms: C5_7  and  C6_8 
REMARK    4  A    between atoms: C15_20  and  C16_21 
ROOT
HETATM    1  C6  UNL     1      23.140   4.671  52.044  1.00  0.00     0.031 C 
HETATM    2  N1  UNL     1      24.128   5.828  52.122  1.00  0.00    -0.378 N 
HETATM    3  C7  UNL     1      24.057   6.100  50.713  1.00  0.00     0.059 A 
HETATM    4  C8  UNL     1      23.059   6.851  51.196  1.00  0.00    -0.008 A 
HETATM    5  C9  UNL     1      22.059   6.669  50.313  1.00  0.00     0.022 A 
HETATM    6  N2  UNL     1      22.846   5.922  49.690  1.00  0.00     0.000 N 
HETATM    7  C10 UNL     1      23.852   5.334  49.440  1.00  0.00     0.009 A 
HETATM    8  C11 UNL     1      25.029   5.315  50.162  1.00  0.00     0.038 A 
HETATM    9  C12 UNL     1      22.687   5.151  48.435  1.00  0.00     0.045 A 
HETATM   10  C13 UNL     1      21.606   5.935  49.139  1.00  0.00     0.044 A 
HETATM   11  C14 UNL     1      20.679   6.716  49.663  1.00  0.00     0.038 A 
HETATM   12  N3  UNL     1      21.372   4.853  50.238  1.00  0.00    -0.399 N 
HETATM   13  C15 UNL     1      21.703   4.626  51.652  1.00  0.00     0.161 C 
HETATM   14  H5  UNL     1      24.462   5.960  53.121  1.00  0.00     0.160 HD
HETATM   15  H11 UNL     1      20.785   4.069  49.827  1.00  0.00     0.154 HD
ENDROOT
BRANCH   1  16
HETATM   16  C5  UNL     1      23.754   3.518  52.423  1.00  0.00     0.029 C 
BRANCH  16  17
HETATM   17  C4  UNL     1      24.540   2.327  52.395  1.00  0.00     0.041 C 
HETATM   18  C3  UNL     1      25.502   1.532  51.942  1.00  0.00     0.112 C 
HETATM   19  F1  UNL     1      26.257   1.961  50.935  1.00  0.00    -0.209 F 
BRANCH  18  20
HETATM   20  C2  UNL     1      25.542   0.313  52.678  1.00  0.00     0.074 C 
HETATM   21  C1  UNL     1      26.616  -0.425  52.430  1.00  0.00     0.098 C 
HETATM   22 CL1  UNL     1      24.433  -0.330  53.832  1.00  0.00    -0.117 Cl
ENDBRANCH  18  20
ENDBRANCH  16  17
ENDBRANCH   1  16
BRANCH  13  23
HETATM   23  C16 UNL     1      21.027   3.437  52.162  1.00  0.00     0.422 C 
HETATM   24  O1  UNL     1      19.980   3.244  52.707  1.00  0.00    -0.428 OA
ENDBRANCH  13  23
TORSDOF 4
ENDMDL
