MODEL 1
REMARK VINA RESULT:      -7.5      0.000      0.000
REMARK  8 active torsions:
REMARK  status: ('A' for Active; 'I' for Inactive)
REMARK    1  A    between atoms: O1_1  and  C1_2 
REMARK    2  A    between atoms: C1_2  and  C2_3 
REMARK    3  A    between atoms: C2_3  and  C3_4 
REMARK    4  A    between atoms: C3_4  and  N1_5 
REMARK    5  A    between atoms: N1_5  and  C4_6 
REMARK    6  A    between atoms: C6_8  and  C7_9 
REMARK    7  A    between atoms: C10_13  and  N3_14 
REMARK    8  A    between atoms: N3_14  and  C11_15 
ROOT
HETATM    1  C7  UNL     1      23.489   1.570  52.659  1.00  0.00     0.088 A 
HETATM    2  C8  UNL     1      22.292   1.008  53.087  1.00  0.00     0.148 A 
HETATM    3  N2  UNL     1      22.295  -0.145  53.773  1.00  0.00    -0.267 NA
HETATM    4  C9  UNL     1      23.504  -0.710  54.015  1.00  0.00     0.166 A 
HETATM    5  C10 UNL     1      24.712  -0.174  53.602  1.00  0.00     0.146 A 
HETATM    6  N4  UNL     1      24.647   0.980  52.919  1.00  0.00    -0.228 NA
ENDROOT
BRANCH   1   7
HETATM    7  C6  UNL     1      23.500   2.824  51.915  1.00  0.00     0.011 A 
HETATM    8  C5  UNL     1      23.849   4.069  52.274  1.00  0.00     0.046 A 
HETATM    9  C4  UNL     1      23.686   5.025  51.148  1.00  0.00     0.365 A 
HETATM   10  N5  UNL     1      23.199   4.184  50.090  1.00  0.00    -0.262 NA
HETATM   11  C17 UNL     1      23.101   2.974  50.525  1.00  0.00     0.127 A 
BRANCH   9  12
HETATM   12  N1  UNL     1      24.912   5.693  50.829  1.00  0.00     0.112 N 
HETATM   13  H8  UNL     1      25.693   5.324  51.385  1.00  0.00     0.319 HD
BRANCH  12  14
HETATM   14  C3  UNL     1      25.129   5.608  49.395  1.00  0.00     0.275 C 
BRANCH  14  15
HETATM   15  C2  UNL     1      26.530   5.137  49.073  1.00  0.00     0.056 C 
BRANCH  15  16
HETATM   16  C1  UNL     1      26.706   3.680  49.427  1.00  0.00     0.165 C 
BRANCH  16  17
HETATM   17  O1  UNL     1      27.033   3.566  50.788  1.00  0.00    -0.401 OA
HETATM   18  H1  UNL     1      26.516   4.226  51.304  1.00  0.00     0.209 HD
ENDBRANCH  16  17
ENDBRANCH  15  16
ENDBRANCH  14  15
ENDBRANCH  12  14
ENDBRANCH   9  12
ENDBRANCH   1   7
BRANCH   5  19
HETATM   19  N3  UNL     1      25.867  -0.915  53.957  1.00  0.00    -0.340 N 
HETATM   20  H13 UNL     1      25.380  -1.705  54.389  1.00  0.00     0.167 HD
BRANCH  19  21
HETATM   21  C11 UNL     1      27.270  -0.736  53.818  1.00  0.00     0.035 A 
HETATM   22  C12 UNL     1      28.031  -1.726  53.238  1.00  0.00     0.029 A 
HETATM   23  C13 UNL     1      29.399  -1.494  53.128  1.00  0.00     0.004 A 
HETATM   24  C14 UNL     1      29.933  -0.299  53.598  1.00  0.00     0.024 A 
HETATM   25  C15 UNL     1      29.110   0.666  54.176  1.00  0.00     0.036 A 
HETATM   26 CL1  UNL     1      29.779   2.187  54.775  1.00  0.00    -0.084 Cl
HETATM   27  C16 UNL     1      27.735   0.467  54.301  1.00  0.00     0.053 A 
ENDBRANCH  19  21
ENDBRANCH   5  19
TORSDOF 8
ENDMDL
MODEL 2
REMARK VINA RESULT:      -7.4      3.103      6.845
REMARK  8 active torsions:
REMARK  status: ('A' for Active; 'I' for Inactive)
REMARK    1  A    between atoms: O1_1  and  C1_2 
REMARK    2  A    between atoms: C1_2  and  C2_3 
REMARK    3  A    between atoms: C2_3  and  C3_4 
REMARK    4  A    between atoms: C3_4  and  N1_5 
REMARK    5  A    between atoms: N1_5  and  C4_6 
REMARK    6  A    between atoms: C6_8  and  C7_9 
REMARK    7  A    between atoms: C10_13  and  N3_14 
REMARK    8  A    between atoms: N3_14  and  C11_15 
ROOT
HETATM    1  C7  UNL     1      24.717   2.207  51.537  1.00  0.00     0.088 A 
HETATM    2  C8  UNL     1      23.505   1.704  51.079  1.00  0.00     0.148 A 
HETATM    3  N2  UNL     1      22.878   2.291  50.046  1.00  0.00    -0.267 NA
HETATM    4  C9  UNL     1      23.485   3.373  49.496  1.00  0.00     0.166 A 
HETATM    5  C10 UNL     1      24.691   3.896  49.932  1.00  0.00     0.146 A 
HETATM    6  N4  UNL     1      25.271   3.269  50.968  1.00  0.00    -0.228 NA
ENDROOT
BRANCH   1   7
HETATM    7  C6  UNL     1      25.409   1.579  52.656  1.00  0.00     0.011 A 
HETATM    8  C5  UNL     1      25.341   0.338  53.162  1.00  0.00     0.046 A 
HETATM    9  C4  UNL     1      26.254   0.174  54.322  1.00  0.00     0.365 A 
HETATM   10  N5  UNL     1      26.861   1.470  54.430  1.00  0.00    -0.262 NA
HETATM   11  C17 UNL     1      26.388   2.236  53.507  1.00  0.00     0.127 A 
BRANCH   9  12
HETATM   12  N1  UNL     1      27.198  -0.885  54.118  1.00  0.00     0.112 N 
HETATM   13  H8  UNL     1      27.072  -1.323  53.196  1.00  0.00     0.319 HD
BRANCH  12  14
HETATM   14  C3  UNL     1      28.535  -0.364  54.335  1.00  0.00     0.275 C 
BRANCH  14  15
HETATM   15  C2  UNL     1      29.565  -1.121  53.523  1.00  0.00     0.056 C 
BRANCH  15  16
HETATM   16  C1  UNL     1      28.926  -2.261  52.769  1.00  0.00     0.165 C 
BRANCH  16  17
HETATM   17  O1  UNL     1      28.893  -3.401  53.588  1.00  0.00    -0.401 OA
HETATM   18  H1  UNL     1      27.994  -3.802  53.554  1.00  0.00     0.209 HD
ENDBRANCH  16  17
ENDBRANCH  15  16
ENDBRANCH  14  15
ENDBRANCH  12  14
ENDBRANCH   9  12
ENDBRANCH   1   7
BRANCH   5  19
HETATM   19  N3  UNL     1      25.161   5.029  49.222  1.00  0.00    -0.340 N 
HETATM   20  H13 UNL     1      24.244   5.431  49.010  1.00  0.00     0.167 HD
BRANCH  19  21
HETATM   21  C11 UNL     1      26.436   5.544  48.863  1.00  0.00     0.035 A 
HETATM   22  C12 UNL     1      27.501   4.684  48.711  1.00  0.00     0.029 A 
HETATM   23  C13 UNL     1      28.726   5.246  48.358  1.00  0.00     0.004 A 
HETATM   24  C14 UNL     1      28.823   6.622  48.176  1.00  0.00     0.024 A 
HETATM   25  C15 UNL     1      27.707   7.439  48.344  1.00  0.00     0.036 A 
HETATM   26 CL1  UNL     1      27.821   9.187  48.115  1.00  0.00    -0.084 Cl
HETATM   27  C16 UNL     1      26.466   6.910  48.697  1.00  0.00     0.053 A 
ENDBRANCH  19  21
ENDBRANCH   5  19
TORSDOF 8
ENDMDL
MODEL 3
REMARK VINA RESULT:      -7.4      2.726      6.690
REMARK  8 active torsions:
REMARK  status: ('A' for Active; 'I' for Inactive)
REMARK    1  A    between atoms: O1_1  and  C1_2 
REMARK    2  A    between atoms: C1_2  and  C2_3 
REMARK    3  A    between atoms: C2_3  and  C3_4 
REMARK    4  A    between atoms: C3_4  and  N1_5 
REMARK    5  A    between atoms: N1_5  and  C4_6 
REMARK    6  A    between atoms: C6_8  and  C7_9 
REMARK    7  A    between atoms: C10_13  and  N3_14 
REMARK    8  A    between atoms: N3_14  and  C11_15 
ROOT
HETATM    1  C7  UNL     1      25.186   2.059  52.250  1.00  0.00     0.088 A 
HETATM    2  C8  UNL     1      24.220   2.724  52.995  1.00  0.00     0.148 A 
HETATM    3  N2  UNL     1      23.694   3.874  52.545  1.00  0.00    -0.267 NA
HETATM    4  C9  UNL     1      24.152   4.332  51.353  1.00  0.00     0.166 A 
HETATM    5  C10 UNL     1      25.114   3.692  50.589  1.00  0.00     0.146 A 
HETATM    6  N4  UNL     1      25.604   2.546  51.089  1.00  0.00    -0.228 NA
ENDROOT
BRANCH   1   7
HETATM    7  C6  UNL     1      25.764   0.807  52.725  1.00  0.00     0.011 A 
HETATM    8  C5  UNL     1      26.566  -0.088  52.126  1.00  0.00     0.046 A 
HETATM    9  C4  UNL     1      26.889  -1.219  53.034  1.00  0.00     0.365 A 
HETATM   10  N5  UNL     1      26.178  -0.873  54.232  1.00  0.00    -0.262 NA
HETATM   11  C17 UNL     1      25.562   0.245  54.050  1.00  0.00     0.127 A 
BRANCH   9  12
HETATM   12  N1  UNL     1      28.301  -1.364  53.228  1.00  0.00     0.112 N 
HETATM   13  H8  UNL     1      28.813  -1.248  52.344  1.00  0.00     0.319 HD
BRANCH  12  14
HETATM   14  C3  UNL     1      28.724  -0.445  54.269  1.00  0.00     0.275 C 
BRANCH  14  15
HETATM   15  C2  UNL     1      29.593   0.663  53.711  1.00  0.00     0.056 C 
BRANCH  15  16
HETATM   16  C1  UNL     1      29.032   2.019  54.063  1.00  0.00     0.165 C 
BRANCH  16  17
HETATM   17  O1  UNL     1      29.003   2.824  52.913  1.00  0.00    -0.401 OA
HETATM   18  H1  UNL     1      28.914   2.253  52.116  1.00  0.00     0.209 HD
ENDBRANCH  16  17
ENDBRANCH  15  16
ENDBRANCH  14  15
ENDBRANCH  12  14
ENDBRANCH   9  12
ENDBRANCH   1   7
BRANCH   5  19
HETATM   19  N3  UNL     1      25.456   4.329  49.370  1.00  0.00    -0.340 N 
HETATM   20  H13 UNL     1      24.699   3.931  48.806  1.00  0.00     0.167 HD
BRANCH  19  21
HETATM   21  C11 UNL     1      26.469   5.230  48.946  1.00  0.00     0.035 A 
HETATM   22  C12 UNL     1      27.727   4.754  48.653  1.00  0.00     0.029 A 
HETATM   23  C13 UNL     1      28.679   5.683  48.241  1.00  0.00     0.004 A 
HETATM   24  C14 UNL     1      28.330   7.026  48.144  1.00  0.00     0.024 A 
HETATM   25  C15 UNL     1      27.038   7.446  48.455  1.00  0.00     0.036 A 
HETATM   26 CL1  UNL     1      26.586   9.150  48.335  1.00  0.00    -0.084 Cl
HETATM   27  C16 UNL     1      26.060   6.543  48.870  1.00  0.00     0.053 A 
ENDBRANCH  19  21
ENDBRANCH   5  19
TORSDOF 8
ENDMDL
MODEL 4
REMARK VINA RESULT:      -7.3      3.312      7.319
REMARK  8 active torsions:
REMARK  status: ('A' for Active; 'I' for Inactive)
REMARK    1  A    between atoms: O1_1  and  C1_2 
REMARK    2  A    between atoms: C1_2  and  C2_3 
REMARK    3  A    between atoms: C2_3  and  C3_4 
REMARK    4  A    between atoms: C3_4  and  N1_5 
REMARK    5  A    between atoms: N1_5  and  C4_6 
REMARK    6  A    between atoms: C6_8  and  C7_9 
REMARK    7  A    between atoms: C10_13  and  N3_14 
REMARK    8  A    between atoms: N3_14  and  C11_15 
ROOT
HETATM    1  C7  UNL     1      26.238   2.586  51.591  1.00  0.00     0.088 A 
HETATM    2  C8  UNL     1      24.869   2.536  51.353  1.00  0.00     0.148 A 
HETATM    3  N2  UNL     1      24.358   3.088  50.241  1.00  0.00    -0.267 NA
HETATM    4  C9  UNL     1      25.235   3.680  49.392  1.00  0.00     0.166 A 
HETATM    5  C10 UNL     1      26.602   3.745  49.603  1.00  0.00     0.146 A 
HETATM    6  N4  UNL     1      27.056   3.177  50.732  1.00  0.00    -0.228 NA
ENDROOT
BRANCH   1   7
HETATM    7  C6  UNL     1      26.808   1.988  52.793  1.00  0.00     0.011 A 
HETATM    8  C5  UNL     1      26.377   0.992  53.582  1.00  0.00     0.046 A 
HETATM    9  C4  UNL     1      27.319   0.742  54.704  1.00  0.00     0.365 A 
HETATM   10  N5  UNL     1      28.349   1.714  54.471  1.00  0.00    -0.262 NA
HETATM   11  C17 UNL     1      28.057   2.395  53.416  1.00  0.00     0.127 A 
BRANCH   9  12
HETATM   12  N1  UNL     1      27.797  -0.609  54.712  1.00  0.00     0.112 N 
HETATM   13  H8  UNL     1      27.280  -1.191  54.041  1.00  0.00     0.319 HD
BRANCH  12  14
HETATM   14  C3  UNL     1      29.231  -0.595  54.486  1.00  0.00     0.275 C 
BRANCH  14  15
HETATM   15  C2  UNL     1      29.598  -1.320  53.209  1.00  0.00     0.056 C 
BRANCH  15  16
HETATM   16  C1  UNL     1      28.505  -2.275  52.795  1.00  0.00     0.165 C 
BRANCH  16  17
HETATM   17  O1  UNL     1      28.647  -3.481  53.501  1.00  0.00    -0.401 OA
HETATM   18  H1  UNL     1      29.109  -4.139  52.932  1.00  0.00     0.209 HD
ENDBRANCH  16  17
ENDBRANCH  15  16
ENDBRANCH  14  15
ENDBRANCH  12  14
ENDBRANCH   9  12
ENDBRANCH   1   7
BRANCH   5  19
HETATM   19  N3  UNL     1      27.349   4.404  48.595  1.00  0.00    -0.340 N 
HETATM   20  H13 UNL     1      27.345   3.636  47.917  1.00  0.00     0.167 HD
BRANCH  19  21
HETATM   21  C11 UNL     1      27.950   5.683  48.450  1.00  0.00     0.035 A 
HETATM   22  C12 UNL     1      27.184   6.818  48.594  1.00  0.00     0.029 A 
HETATM   23  C13 UNL     1      27.828   8.043  48.442  1.00  0.00     0.004 A 
HETATM   24  C14 UNL     1      29.190   8.072  48.156  1.00  0.00     0.024 A 
HETATM   25  C15 UNL     1      29.911   6.887  48.022  1.00  0.00     0.036 A 
HETATM   26 CL1  UNL     1      31.640   6.914  47.660  1.00  0.00    -0.084 Cl
HETATM   27  C16 UNL     1      29.298   5.643  48.169  1.00  0.00     0.053 A 
ENDBRANCH  19  21
ENDBRANCH   5  19
TORSDOF 8
ENDMDL
MODEL 5
REMARK VINA RESULT:      -7.3      3.035      5.521
REMARK  8 active torsions:
REMARK  status: ('A' for Active; 'I' for Inactive)
REMARK    1  A    between atoms: O1_1  and  C1_2 
REMARK    2  A    between atoms: C1_2  and  C2_3 
REMARK    3  A    between atoms: C2_3  and  C3_4 
REMARK    4  A    between atoms: C3_4  and  N1_5 
REMARK    5  A    between atoms: N1_5  and  C4_6 
REMARK    6  A    between atoms: C6_8  and  C7_9 
REMARK    7  A    between atoms: C10_13  and  N3_14 
REMARK    8  A    between atoms: N3_14  and  C11_15 
ROOT
HETATM    1  C7  UNL     1      25.051   4.982  49.424  1.00  0.00     0.088 A 
HETATM    2  C8  UNL     1      23.931   5.271  48.653  1.00  0.00     0.148 A 
HETATM    3  N2  UNL     1      22.711   4.900  49.071  1.00  0.00    -0.267 NA
HETATM    4  C9  UNL     1      22.642   4.245  50.257  1.00  0.00     0.166 A 
HETATM    5  C10 UNL     1      23.740   3.944  51.046  1.00  0.00     0.146 A 
HETATM    6  N4  UNL     1      24.935   4.339  50.578  1.00  0.00    -0.228 NA
ENDROOT
BRANCH   1   7
HETATM    7  C6  UNL     1      26.383   5.382  48.985  1.00  0.00     0.011 A 
HETATM    8  C5  UNL     1      26.869   6.565  48.579  1.00  0.00     0.046 A 
HETATM    9  C4  UNL     1      28.310   6.469  48.227  1.00  0.00     0.365 A 
HETATM   10  N5  UNL     1      28.601   5.085  48.478  1.00  0.00    -0.262 NA
HETATM   11  C17 UNL     1      27.533   4.497  48.895  1.00  0.00     0.127 A 
BRANCH   9  12
HETATM   12  N1  UNL     1      29.112   7.372  48.998  1.00  0.00     0.112 N 
HETATM   13  H8  UNL     1      29.175   7.069  49.979  1.00  0.00     0.319 HD
BRANCH  12  14
HETATM   14  C3  UNL     1      30.403   7.515  48.350  1.00  0.00     0.275 C 
BRANCH  14  15
HETATM   15  C2  UNL     1      31.536   7.451  49.351  1.00  0.00     0.056 C 
BRANCH  15  16
HETATM   16  C1  UNL     1      32.028   6.035  49.522  1.00  0.00     0.165 C 
BRANCH  16  17
HETATM   17  O1  UNL     1      31.213   5.367  50.451  1.00  0.00    -0.401 OA
HETATM   18  H1  UNL     1      31.467   4.416  50.483  1.00  0.00     0.209 HD
ENDBRANCH  16  17
ENDBRANCH  15  16
ENDBRANCH  14  15
ENDBRANCH  12  14
ENDBRANCH   9  12
ENDBRANCH   1   7
BRANCH   5  19
HETATM   19  N3  UNL     1      23.459   3.257  52.254  1.00  0.00    -0.340 N 
HETATM   20  H13 UNL     1      23.321   4.087  52.838  1.00  0.00     0.167 HD
BRANCH  19  21
HETATM   21  C11 UNL     1      23.367   1.896  52.649  1.00  0.00     0.035 A 
HETATM   22  C12 UNL     1      22.130   1.328  52.862  1.00  0.00     0.029 A 
HETATM   23  C13 UNL     1      22.102  -0.010  53.247  1.00  0.00     0.004 A 
HETATM   24  C14 UNL     1      23.297  -0.705  53.399  1.00  0.00     0.024 A 
HETATM   25  C15 UNL     1      24.518  -0.074  53.169  1.00  0.00     0.036 A 
HETATM   26 CL1  UNL     1      26.041  -0.950  53.359  1.00  0.00    -0.084 Cl
HETATM   27  C16 UNL     1      24.583   1.263  52.781  1.00  0.00     0.053 A 
ENDBRANCH  19  21
ENDBRANCH   5  19
TORSDOF 8
ENDMDL
MODEL 6
REMARK VINA RESULT:      -7.1      3.447      5.468
REMARK  8 active torsions:
REMARK  status: ('A' for Active; 'I' for Inactive)
REMARK    1  A    between atoms: O1_1  and  C1_2 
REMARK    2  A    between atoms: C1_2  and  C2_3 
REMARK    3  A    between atoms: C2_3  and  C3_4 
REMARK    4  A    between atoms: C3_4  and  N1_5 
REMARK    5  A    between atoms: N1_5  and  C4_6 
REMARK    6  A    between atoms: C6_8  and  C7_9 
REMARK    7  A    between atoms: C10_13  and  N3_14 
REMARK    8  A    between atoms: N3_14  and  C11_15 
ROOT
HETATM    1  C7  UNL     1      24.530   4.534  49.463  1.00  0.00     0.088 A 
HETATM    2  C8  UNL     1      23.438   4.643  48.610  1.00  0.00     0.148 A 
HETATM    3  N2  UNL     1      22.237   4.176  48.987  1.00  0.00    -0.267 NA
HETATM    4  C9  UNL     1      22.160   3.608  50.217  1.00  0.00     0.166 A 
HETATM    5  C10 UNL     1      23.230   3.486  51.088  1.00  0.00     0.146 A 
HETATM    6  N4  UNL     1      24.406   3.970  50.657  1.00  0.00    -0.228 NA
ENDROOT
BRANCH   1   7
HETATM    7  C6  UNL     1      25.839   5.040  49.068  1.00  0.00     0.011 A 
HETATM    8  C5  UNL     1      26.235   6.249  48.641  1.00  0.00     0.046 A 
HETATM    9  C4  UNL     1      27.693   6.274  48.356  1.00  0.00     0.365 A 
HETATM   10  N5  UNL     1      28.097   4.932  48.669  1.00  0.00    -0.262 NA
HETATM   11  C17 UNL     1      27.067   4.261  49.060  1.00  0.00     0.127 A 
BRANCH   9  12
HETATM   12  N1  UNL     1      28.374   7.271  49.128  1.00  0.00     0.112 N 
HETATM   13  H8  UNL     1      29.200   6.879  49.598  1.00  0.00     0.319 HD
BRANCH  12  14
HETATM   14  C3  UNL     1      28.677   8.399  48.266  1.00  0.00     0.275 C 
BRANCH  14  15
HETATM   15  C2  UNL     1      28.312   9.713  48.923  1.00  0.00     0.056 C 
BRANCH  15  16
HETATM   16  C1  UNL     1      27.188   9.530  49.913  1.00  0.00     0.165 C 
BRANCH  16  17
HETATM   17  O1  UNL     1      27.714   9.493  51.215  1.00  0.00    -0.401 OA
HETATM   18  H1  UNL     1      28.492   8.890  51.236  1.00  0.00     0.209 HD
ENDBRANCH  16  17
ENDBRANCH  15  16
ENDBRANCH  14  15
ENDBRANCH  12  14
ENDBRANCH   9  12
ENDBRANCH   1   7
BRANCH   5  19
HETATM   19  N3  UNL     1      22.944   2.865  52.330  1.00  0.00    -0.340 N 
HETATM   20  H13 UNL     1      22.423   3.645  52.740  1.00  0.00     0.167 HD
BRANCH  19  21
HETATM   21  C11 UNL     1      23.223   1.604  52.922  1.00  0.00     0.035 A 
HETATM   22  C12 UNL     1      24.529   1.204  53.092  1.00  0.00     0.029 A 
HETATM   23  C13 UNL     1      24.741  -0.041  53.678  1.00  0.00     0.004 A 
HETATM   24  C14 UNL     1      23.650  -0.815  54.062  1.00  0.00     0.024 A 
HETATM   25  C15 UNL     1      22.350  -0.353  53.863  1.00  0.00     0.036 A 
HETATM   26 CL1  UNL     1      20.959  -1.328  54.347  1.00  0.00    -0.084 Cl
HETATM   27  C16 UNL     1      22.102   0.889  53.280  1.00  0.00     0.053 A 
ENDBRANCH  19  21
ENDBRANCH   5  19
TORSDOF 8
ENDMDL
MODEL 7
REMARK VINA RESULT:      -7.0      3.891      5.677
REMARK  8 active torsions:
REMARK  status: ('A' for Active; 'I' for Inactive)
REMARK    1  A    between atoms: O1_1  and  C1_2 
REMARK    2  A    between atoms: C1_2  and  C2_3 
REMARK    3  A    between atoms: C2_3  and  C3_4 
REMARK    4  A    between atoms: C3_4  and  N1_5 
REMARK    5  A    between atoms: N1_5  and  C4_6 
REMARK    6  A    between atoms: C6_8  and  C7_9 
REMARK    7  A    between atoms: C10_13  and  N3_14 
REMARK    8  A    between atoms: N3_14  and  C11_15 
ROOT
HETATM    1  C7  UNL     1      21.674   0.088  53.466  1.00  0.00     0.088 A 
HETATM    2  C8  UNL     1      21.405  -0.518  54.688  1.00  0.00     0.148 A 
HETATM    3  N2  UNL     1      22.383  -1.146  55.359  1.00  0.00    -0.267 NA
HETATM    4  C9  UNL     1      23.613  -1.152  54.787  1.00  0.00     0.166 A 
HETATM    5  C10 UNL     1      23.911  -0.557  53.572  1.00  0.00     0.146 A 
HETATM    6  N4  UNL     1      22.894   0.056  52.946  1.00  0.00    -0.228 NA
ENDROOT
BRANCH   1   7
HETATM    7  C6  UNL     1      20.623   0.776  52.728  1.00  0.00     0.011 A 
HETATM    8  C5  UNL     1      19.782   0.352  51.771  1.00  0.00     0.046 A 
HETATM    9  C4  UNL     1      18.877   1.441  51.321  1.00  0.00     0.365 A 
HETATM   10  N5  UNL     1      19.294   2.550  52.131  1.00  0.00    -0.262 NA
HETATM   11  C17 UNL     1      20.256   2.172  52.902  1.00  0.00     0.127 A 
BRANCH   9  12
HETATM   12  N1  UNL     1      17.497   1.096  51.489  1.00  0.00     0.112 N 
HETATM   13  H8  UNL     1      16.884   1.762  51.003  1.00  0.00     0.319 HD
BRANCH  12  14
HETATM   14  C3  UNL     1      17.308  -0.281  51.067  1.00  0.00     0.275 C 
BRANCH  14  15
HETATM   15  C2  UNL     1      16.305  -0.998  51.946  1.00  0.00     0.056 C 
BRANCH  15  16
HETATM   16  C1  UNL     1      17.001  -1.895  52.940  1.00  0.00     0.165 C 
BRANCH  16  17
HETATM   17  O1  UNL     1      17.540  -1.115  53.976  1.00  0.00    -0.401 OA
HETATM   18  H1  UNL     1      17.115  -1.364  54.828  1.00  0.00     0.209 HD
ENDBRANCH  16  17
ENDBRANCH  15  16
ENDBRANCH  14  15
ENDBRANCH  12  14
ENDBRANCH   9  12
ENDBRANCH   1   7
BRANCH   5  19
HETATM   19  N3  UNL     1      25.258  -0.670  53.146  1.00  0.00    -0.340 N 
HETATM   20  H13 UNL     1      25.155  -1.555  52.642  1.00  0.00     0.167 HD
BRANCH  19  21
HETATM   21  C11 UNL     1      26.438   0.107  53.297  1.00  0.00     0.035 A 
HETATM   22  C12 UNL     1      26.351   1.481  53.336  1.00  0.00     0.029 A 
HETATM   23  C13 UNL     1      27.540   2.190  53.486  1.00  0.00     0.004 A 
HETATM   24  C14 UNL     1      28.743   1.499  53.589  1.00  0.00     0.024 A 
HETATM   25  C15 UNL     1      28.765   0.106  53.543  1.00  0.00     0.036 A 
HETATM   26 CL1  UNL     1      30.288  -0.780  53.673  1.00  0.00    -0.084 Cl
HETATM   27  C16 UNL     1      27.594  -0.635  53.394  1.00  0.00     0.053 A 
ENDBRANCH  19  21
ENDBRANCH   5  19
TORSDOF 8
ENDMDL
MODEL 8
REMARK VINA RESULT:      -6.9      2.727      6.897
REMARK  8 active torsions:
REMARK  status: ('A' for Active; 'I' for Inactive)
REMARK    1  A    between atoms: O1_1  and  C1_2 
REMARK    2  A    between atoms: C1_2  and  C2_3 
REMARK    3  A    between atoms: C2_3  and  C3_4 
REMARK    4  A    between atoms: C3_4  and  N1_5 
REMARK    5  A    between atoms: N1_5  and  C4_6 
REMARK    6  A    between atoms: C6_8  and  C7_9 
REMARK    7  A    between atoms: C10_13  and  N3_14 
REMARK    8  A    between atoms: N3_14  and  C11_15 
ROOT
HETATM    1  C7  UNL     1      22.787   2.472  52.487  1.00  0.00     0.088 A 
HETATM    2  C8  UNL     1      21.430   2.458  52.189  1.00  0.00     0.148 A 
HETATM    3  N2  UNL     1      20.810   3.587  51.809  1.00  0.00    -0.267 NA
HETATM    4  C9  UNL     1      21.571   4.708  51.737  1.00  0.00     0.166 A 
HETATM    5  C10 UNL     1      22.924   4.753  52.027  1.00  0.00     0.146 A 
HETATM    6  N4  UNL     1      23.490   3.594  52.402  1.00  0.00    -0.228 NA
ENDROOT
BRANCH   1   7
HETATM    7  C6  UNL     1      23.474   1.253  52.897  1.00  0.00     0.011 A 
HETATM    8  C5  UNL     1      24.763   0.888  52.821  1.00  0.00     0.046 A 
HETATM    9  C4  UNL     1      24.976  -0.472  53.380  1.00  0.00     0.365 A 
HETATM   10  N5  UNL     1      23.654  -0.853  53.792  1.00  0.00    -0.262 NA
HETATM   11  C17 UNL     1      22.835   0.105  53.521  1.00  0.00     0.127 A 
BRANCH   9  12
HETATM   12  N1  UNL     1      25.930  -0.468  54.450  1.00  0.00     0.112 N 
HETATM   13  H8  UNL     1      25.809  -1.288  55.059  1.00  0.00     0.319 HD
BRANCH  12  14
HETATM   14  C3  UNL     1      27.262  -0.357  53.883  1.00  0.00     0.275 C 
BRANCH  14  15
HETATM   15  C2  UNL     1      27.516  -1.432  52.848  1.00  0.00     0.056 C 
BRANCH  15  16
HETATM   16  C1  UNL     1      28.848  -2.102  53.079  1.00  0.00     0.165 C 
BRANCH  16  17
HETATM   17  O1  UNL     1      28.642  -3.455  53.395  1.00  0.00    -0.401 OA
HETATM   18  H1  UNL     1      29.299  -4.007  52.913  1.00  0.00     0.209 HD
ENDBRANCH  16  17
ENDBRANCH  15  16
ENDBRANCH  14  15
ENDBRANCH  12  14
ENDBRANCH   9  12
ENDBRANCH   1   7
BRANCH   5  19
HETATM   19  N3  UNL     1      23.542   6.020  51.887  1.00  0.00    -0.340 N 
HETATM   20  H13 UNL     1      23.220   6.414  52.776  1.00  0.00     0.167 HD
BRANCH  19  21
HETATM   21  C11 UNL     1      24.353   6.651  50.905  1.00  0.00     0.035 A 
HETATM   22  C12 UNL     1      24.177   7.989  50.631  1.00  0.00     0.029 A 
HETATM   23  C13 UNL     1      25.001   8.553  49.660  1.00  0.00     0.004 A 
HETATM   24  C14 UNL     1      25.948   7.760  49.019  1.00  0.00     0.024 A 
HETATM   25  C15 UNL     1      26.078   6.411  49.342  1.00  0.00     0.036 A 
HETATM   26 CL1  UNL     1      27.278   5.397  48.534  1.00  0.00    -0.084 Cl
HETATM   27  C16 UNL     1      25.270   5.814  50.309  1.00  0.00     0.053 A 
ENDBRANCH  19  21
ENDBRANCH   5  19
TORSDOF 8
ENDMDL
MODEL 9
REMARK VINA RESULT:      -6.8      2.072      6.274
REMARK  8 active torsions:
REMARK  status: ('A' for Active; 'I' for Inactive)
REMARK    1  A    between atoms: O1_1  and  C1_2 
REMARK    2  A    between atoms: C1_2  and  C2_3 
REMARK    3  A    between atoms: C2_3  and  C3_4 
REMARK    4  A    between atoms: C3_4  and  N1_5 
REMARK    5  A    between atoms: N1_5  and  C4_6 
REMARK    6  A    between atoms: C6_8  and  C7_9 
REMARK    7  A    between atoms: C10_13  and  N3_14 
REMARK    8  A    between atoms: N3_14  and  C11_15 
ROOT
HETATM    1  C7  UNL     1      23.236   0.832  52.331  1.00  0.00     0.088 A 
HETATM    2  C8  UNL     1      21.979   0.252  52.202  1.00  0.00     0.148 A 
HETATM    3  N2  UNL     1      21.002   0.898  51.545  1.00  0.00    -0.267 NA
HETATM    4  C9  UNL     1      21.311   2.115  51.032  1.00  0.00     0.166 A 
HETATM    5  C10 UNL     1      22.552   2.718  51.145  1.00  0.00     0.146 A 
HETATM    6  N4  UNL     1      23.490   2.026  51.812  1.00  0.00    -0.228 NA
ENDROOT
BRANCH   1   7
HETATM    7  C6  UNL     1      24.307   0.141  53.038  1.00  0.00     0.011 A 
HETATM    8  C5  UNL     1      25.617   0.020  52.773  1.00  0.00     0.046 A 
HETATM    9  C4  UNL     1      26.308  -0.795  53.805  1.00  0.00     0.365 A 
HETATM   10  N5  UNL     1      25.240  -1.134  54.704  1.00  0.00    -0.262 NA
HETATM   11  C17 UNL     1      24.143  -0.613  54.271  1.00  0.00     0.127 A 
BRANCH   9  12
HETATM   12  N1  UNL     1      27.376  -0.074  54.432  1.00  0.00     0.112 N 
HETATM   13  H8  UNL     1      27.337  -0.166  55.455  1.00  0.00     0.319 HD
BRANCH  12  14
HETATM   14  C3  UNL     1      28.634  -0.516  53.857  1.00  0.00     0.275 C 
BRANCH  14  15
HETATM   15  C2  UNL     1      29.606   0.634  53.700  1.00  0.00     0.056 C 
BRANCH  15  16
HETATM   16  C1  UNL     1      28.905   1.961  53.861  1.00  0.00     0.165 C 
BRANCH  16  17
HETATM   17  O1  UNL     1      28.254   2.293  52.661  1.00  0.00    -0.401 OA
HETATM   18  H1  UNL     1      28.925   2.531  51.981  1.00  0.00     0.209 HD
ENDBRANCH  16  17
ENDBRANCH  15  16
ENDBRANCH  14  15
ENDBRANCH  12  14
ENDBRANCH   9  12
ENDBRANCH   1   7
BRANCH   5  19
HETATM   19  N3  UNL     1      22.676   3.991  50.536  1.00  0.00    -0.340 N 
HETATM   20  H13 UNL     1      21.718   4.051  50.178  1.00  0.00     0.167 HD
BRANCH  19  21
HETATM   21  C11 UNL     1      23.711   4.954  50.398  1.00  0.00     0.035 A 
HETATM   22  C12 UNL     1      23.558   6.206  50.952  1.00  0.00     0.029 A 
HETATM   23  C13 UNL     1      24.606   7.108  50.785  1.00  0.00     0.004 A 
HETATM   24  C14 UNL     1      25.742   6.718  50.082  1.00  0.00     0.024 A 
HETATM   25  C15 UNL     1      25.837   5.435  49.546  1.00  0.00     0.036 A 
HETATM   26 CL1  UNL     1      27.275   4.932  48.652  1.00  0.00    -0.084 Cl
HETATM   27  C16 UNL     1      24.807   4.507  49.694  1.00  0.00     0.053 A 
ENDBRANCH  19  21
ENDBRANCH   5  19
TORSDOF 8
ENDMDL
