MODEL 1
REMARK VINA RESULT:      -8.6      0.000      0.000
REMARK  4 active torsions:
REMARK  status: ('A' for Active; 'I' for Inactive)
REMARK    1  A    between atoms: C2_2  and  N1_3 
REMARK    2  A    between atoms: C2_2  and  C9_13 
REMARK    3  A    between atoms: N1_3  and  C3_4 
REMARK    4  A    between atoms: C14_20  and  C15_21 
ROOT
HETATM    1  C9  UNL     1      24.390   0.685  52.001  1.00  0.00     0.056 C 
HETATM    2  C10 UNL     1      25.883   0.441  51.867  1.00  0.00    -0.006 C 
HETATM    3  C11 UNL     1      26.514   0.462  53.062  1.00  0.00    -0.019 C 
HETATM    4  C12 UNL     1      26.365   1.437  54.244  1.00  0.00     0.154 C 
HETATM    5  N3  UNL     1      25.844   0.336  55.119  1.00  0.00    -0.223 NA
HETATM    6  N4  UNL     1      27.031  -0.485  55.001  1.00  0.00    -0.318 N 
HETATM    7  C13 UNL     1      27.492  -0.520  53.623  1.00  0.00     0.051 C 
HETATM    8  C14 UNL     1      28.374  -1.090  52.838  1.00  0.00     0.049 C 
HETATM    9  C16 UNL     1      24.851  -0.370  54.273  1.00  0.00     0.077 C 
HETATM   10  C17 UNL     1      23.968  -1.110  55.290  1.00  0.00     0.028 C 
HETATM   11  C18 UNL     1      23.989   0.510  53.446  1.00  0.00     0.035 C 
HETATM   12  H12 UNL     1      27.635  -1.059  55.671  1.00  0.00     0.181 HD
ENDROOT
BRANCH   1  13
HETATM   13  C2  UNL     1      24.009   1.974  51.419  1.00  0.00    -0.009 C 
HETATM   14  C1  UNL     1      23.004   2.055  50.528  1.00  0.00     0.058 C 
BRANCH  13  15
HETATM   15  N1  UNL     1      24.523   3.262  51.616  1.00  0.00    -0.383 N 
HETATM   16  H3  UNL     1      24.994   3.545  52.502  1.00  0.00     0.160 HD
BRANCH  15  17
HETATM   17  C3  UNL     1      24.426   4.290  50.576  1.00  0.00     0.152 C 
HETATM   18  C4  UNL     1      25.688   4.367  49.823  1.00  0.00     0.029 C 
HETATM   19  C5  UNL     1      26.435   5.340  49.337  1.00  0.00     0.050 C 
HETATM   20 CL1  UNL     1      27.918   4.961  48.471  1.00  0.00    -0.083 Cl
HETATM   21  C6  UNL     1      26.151   6.765  49.447  1.00  0.00     0.139 C 
HETATM   22  N2  UNL     1      25.258   7.371  50.118  1.00  0.00    -0.270 NA
HETATM   23  C7  UNL     1      24.265   6.832  50.965  1.00  0.00     0.138 C 
HETATM   24  C8  UNL     1      23.961   5.572  51.120  1.00  0.00     0.055 C 
HETATM   25 CL2  UNL     1      22.667   5.215  52.258  1.00  0.00    -0.085 Cl
ENDBRANCH  15  17
ENDBRANCH  13  15
ENDBRANCH   1  13
BRANCH   8  26
HETATM   26  C15 UNL     1      29.336  -2.051  53.362  1.00  0.00     0.109 C 
HETATM   27  N5  UNL     1      29.000  -3.289  53.453  1.00  0.00    -0.312 NA
HETATM   28  H15 UNL     1      29.648  -4.007  53.819  1.00  0.00     0.186 HD
ENDBRANCH   8  26
TORSDOF 4
ENDMDL
MODEL 2
REMARK VINA RESULT:      -8.4      1.949      2.410
REMARK  4 active torsions:
REMARK  status: ('A' for Active; 'I' for Inactive)
REMARK    1  A    between atoms: C2_2  and  N1_3 
REMARK    2  A    between atoms: C2_2  and  C9_13 
REMARK    3  A    between atoms: N1_3  and  C3_4 
REMARK    4  A    between atoms: C14_20  and  C15_21 
ROOT
HETATM    1  C9  UNL     1      25.458   1.643  51.346  1.00  0.00     0.056 C 
HETATM    2  C10 UNL     1      26.849   1.096  51.618  1.00  0.00    -0.006 C 
HETATM    3  C11 UNL     1      27.013   0.741  52.911  1.00  0.00    -0.019 C 
HETATM    4  C12 UNL     1      26.606   1.477  54.201  1.00  0.00     0.154 C 
HETATM    5  N3  UNL     1      25.652   0.376  54.557  1.00  0.00    -0.223 NA
HETATM    6  N4  UNL     1      26.667  -0.655  54.600  1.00  0.00    -0.318 N 
HETATM    7  C13 UNL     1      27.573  -0.527  53.471  1.00  0.00     0.051 C 
HETATM    8  C14 UNL     1      28.579  -1.121  52.876  1.00  0.00     0.049 C 
HETATM    9  C16 UNL     1      24.926   0.092  53.295  1.00  0.00     0.077 C 
HETATM   10  C17 UNL     1      23.642  -0.609  53.763  1.00  0.00     0.028 C 
HETATM   11  C18 UNL     1      24.553   1.288  52.500  1.00  0.00     0.035 C 
HETATM   12  H12 UNL     1      26.904  -1.470  55.251  1.00  0.00     0.181 HD
ENDROOT
BRANCH   1  13
HETATM   13  C2  UNL     1      25.504   3.073  51.029  1.00  0.00    -0.009 C 
HETATM   14  C1  UNL     1      26.457   3.566  50.218  1.00  0.00     0.058 C 
BRANCH  13  15
HETATM   15  N1  UNL     1      24.682   4.132  51.434  1.00  0.00    -0.383 N 
HETATM   16  H3  UNL     1      24.880   4.696  52.289  1.00  0.00     0.160 HD
BRANCH  15  17
HETATM   17  C3  UNL     1      23.489   4.508  50.671  1.00  0.00     0.152 C 
HETATM   18  C4  UNL     1      23.150   3.448  49.709  1.00  0.00     0.029 C 
HETATM   19  C5  UNL     1      22.739   3.412  48.456  1.00  0.00     0.050 C 
HETATM   20 CL1  UNL     1      22.447   1.866  47.670  1.00  0.00    -0.083 Cl
HETATM   21  C6  UNL     1      22.490   4.572  47.610  1.00  0.00     0.139 C 
HETATM   22  N2  UNL     1      22.735   5.802  47.816  1.00  0.00    -0.270 NA
HETATM   23  C7  UNL     1      23.328   6.413  48.942  1.00  0.00     0.138 C 
HETATM   24  C8  UNL     1      23.618   5.848  50.083  1.00  0.00     0.055 C 
HETATM   25 CL2  UNL     1      24.359   6.881  51.300  1.00  0.00    -0.085 Cl
ENDBRANCH  15  17
ENDBRANCH  13  15
ENDBRANCH   1  13
BRANCH   8  26
HETATM   26  C15 UNL     1      29.140  -2.358  53.402  1.00  0.00     0.109 C 
HETATM   27  N5  UNL     1      28.561  -3.474  53.130  1.00  0.00    -0.312 NA
HETATM   28  H15 UNL     1      28.922  -4.378  53.482  1.00  0.00     0.186 HD
ENDBRANCH   8  26
TORSDOF 4
ENDMDL
MODEL 3
REMARK VINA RESULT:      -8.2      2.155      3.566
REMARK  4 active torsions:
REMARK  status: ('A' for Active; 'I' for Inactive)
REMARK    1  A    between atoms: C2_2  and  N1_3 
REMARK    2  A    between atoms: C2_2  and  C9_13 
REMARK    3  A    between atoms: N1_3  and  C3_4 
REMARK    4  A    between atoms: C14_20  and  C15_21 
ROOT
HETATM    1  C9  UNL     1      24.668   3.309  49.582  1.00  0.00     0.056 C 
HETATM    2  C10 UNL     1      25.790   2.716  50.417  1.00  0.00    -0.006 C 
HETATM    3  C11 UNL     1      25.360   2.304  51.630  1.00  0.00    -0.019 C 
HETATM    4  C12 UNL     1      24.425   2.996  52.638  1.00  0.00     0.154 C 
HETATM    5  N3  UNL     1      23.408   1.906  52.479  1.00  0.00    -0.223 NA
HETATM    6  N4  UNL     1      24.293   0.848  52.920  1.00  0.00    -0.318 N 
HETATM    7  C13 UNL     1      25.607   1.000  52.318  1.00  0.00     0.051 C 
HETATM    8  C14 UNL     1      26.770   0.406  52.203  1.00  0.00     0.049 C 
HETATM    9  C16 UNL     1      23.317   1.693  51.014  1.00  0.00     0.077 C 
HETATM   10  C17 UNL     1      21.956   1.006  50.829  1.00  0.00     0.028 C 
HETATM   11  C18 UNL     1      23.342   2.930  50.195  1.00  0.00     0.035 C 
HETATM   12  H12 UNL     1      24.212   0.002  53.568  1.00  0.00     0.181 HD
ENDROOT
BRANCH   1  13
HETATM   13  C2  UNL     1      24.856   4.749  49.387  1.00  0.00    -0.009 C 
HETATM   14  C1  UNL     1      23.966   5.468  48.680  1.00  0.00     0.058 C 
BRANCH  13  15
HETATM   15  N1  UNL     1      25.867   5.613  49.827  1.00  0.00    -0.383 N 
HETATM   16  H3  UNL     1      26.146   5.680  50.829  1.00  0.00     0.160 HD
BRANCH  15  17
HETATM   17  C3  UNL     1      26.591   6.478  48.892  1.00  0.00     0.152 C 
HETATM   18  C4  UNL     1      27.835   5.823  48.459  1.00  0.00     0.029 C 
HETATM   19  C5  UNL     1      29.079   6.211  48.249  1.00  0.00     0.050 C 
HETATM   20 CL1  UNL     1      30.285   5.048  47.715  1.00  0.00    -0.083 Cl
HETATM   21  C6  UNL     1      29.587   7.566  48.422  1.00  0.00     0.139 C 
HETATM   22  N2  UNL     1      29.026   8.591  48.923  1.00  0.00    -0.270 NA
HETATM   23  C7  UNL     1      27.730   8.718  49.467  1.00  0.00     0.138 C 
HETATM   24  C8  UNL     1      26.771   7.833  49.431  1.00  0.00     0.055 C 
HETATM   25 CL2  UNL     1      25.258   8.289  50.204  1.00  0.00    -0.085 Cl
ENDBRANCH  15  17
ENDBRANCH  13  15
ENDBRANCH   1  13
BRANCH   8  26
HETATM   26  C15 UNL     1      27.033  -0.866  52.864  1.00  0.00     0.109 C 
HETATM   27  N5  UNL     1      26.491  -1.102  54.007  1.00  0.00    -0.312 NA
HETATM   28  H15 UNL     1      26.648  -1.989  54.514  1.00  0.00     0.186 HD
ENDBRANCH   8  26
TORSDOF 4
ENDMDL
MODEL 4
REMARK VINA RESULT:      -8.2      2.487      7.677
REMARK  4 active torsions:
REMARK  status: ('A' for Active; 'I' for Inactive)
REMARK    1  A    between atoms: C2_2  and  N1_3 
REMARK    2  A    between atoms: C2_2  and  C9_13 
REMARK    3  A    between atoms: N1_3  and  C3_4 
REMARK    4  A    between atoms: C14_20  and  C15_21 
ROOT
HETATM    1  C9  UNL     1      24.583   3.228  49.677  1.00  0.00     0.056 C 
HETATM    2  C10 UNL     1      23.638   4.268  49.100  1.00  0.00    -0.006 C 
HETATM    3  C11 UNL     1      24.135   5.521  49.201  1.00  0.00    -0.019 C 
HETATM    4  C12 UNL     1      24.835   6.217  50.383  1.00  0.00     0.154 C 
HETATM    5  N3  UNL     1      26.106   6.331  49.595  1.00  0.00    -0.223 NA
HETATM    6  N4  UNL     1      25.520   7.120  48.532  1.00  0.00    -0.318 N 
HETATM    7  C13 UNL     1      24.225   6.581  48.151  1.00  0.00     0.051 C 
HETATM    8  C14 UNL     1      23.261   6.720  47.273  1.00  0.00     0.049 C 
HETATM    9  C16 UNL     1      26.279   4.994  48.977  1.00  0.00     0.077 C 
HETATM   10  C17 UNL     1      27.777   4.940  48.638  1.00  0.00     0.028 C 
HETATM   11  C18 UNL     1      25.949   3.845  49.856  1.00  0.00     0.035 C 
HETATM   12  H12 UNL     1      25.806   7.986  47.973  1.00  0.00     0.181 HD
ENDROOT
BRANCH   1  13
HETATM   13  C2  UNL     1      24.028   2.624  50.891  1.00  0.00    -0.009 C 
HETATM   14  C1  UNL     1      23.044   3.236  51.575  1.00  0.00     0.058 C 
BRANCH  13  15
HETATM   15  N1  UNL     1      24.339   1.427  51.549  1.00  0.00    -0.383 N 
HETATM   16  H3  UNL     1      24.280   0.499  51.077  1.00  0.00     0.160 HD
BRANCH  15  17
HETATM   17  C3  UNL     1      24.769   1.415  52.950  1.00  0.00     0.152 C 
HETATM   18  C4  UNL     1      26.145   1.925  53.060  1.00  0.00     0.029 C 
HETATM   19  C5  UNL     1      27.218   1.592  53.751  1.00  0.00     0.050 C 
HETATM   20 CL1  UNL     1      28.705   2.512  53.565  1.00  0.00    -0.083 Cl
HETATM   21  C6  UNL     1      27.310   0.488  54.698  1.00  0.00     0.139 C 
HETATM   22  N2  UNL     1      26.481  -0.441  54.954  1.00  0.00    -0.270 NA
HETATM   23  C7  UNL     1      25.211  -0.678  54.386  1.00  0.00     0.138 C 
HETATM   24  C8  UNL     1      24.551   0.104  53.576  1.00  0.00     0.055 C 
HETATM   25 CL2  UNL     1      22.980  -0.474  53.036  1.00  0.00    -0.085 Cl
ENDBRANCH  15  17
ENDBRANCH  13  15
ENDBRANCH   1  13
BRANCH   8  26
HETATM   26  C15 UNL     1      23.327   7.746  46.241  1.00  0.00     0.109 C 
HETATM   27  N5  UNL     1      24.469   8.051  45.733  1.00  0.00    -0.312 NA
HETATM   28  H15 UNL     1      24.566   8.772  44.998  1.00  0.00     0.186 HD
ENDBRANCH   8  26
TORSDOF 4
ENDMDL
MODEL 5
REMARK VINA RESULT:      -8.1      3.277      7.493
REMARK  4 active torsions:
REMARK  status: ('A' for Active; 'I' for Inactive)
REMARK    1  A    between atoms: C2_2  and  N1_3 
REMARK    2  A    between atoms: C2_2  and  C9_13 
REMARK    3  A    between atoms: N1_3  and  C3_4 
REMARK    4  A    between atoms: C14_20  and  C15_21 
ROOT
HETATM    1  C9  UNL     1      24.238   3.998  50.424  1.00  0.00     0.056 C 
HETATM    2  C10 UNL     1      24.005   3.647  48.964  1.00  0.00    -0.006 C 
HETATM    3  C11 UNL     1      22.890   2.904  48.790  1.00  0.00    -0.019 C 
HETATM    4  C12 UNL     1      22.369   1.694  49.588  1.00  0.00     0.154 C 
HETATM    5  N3  UNL     1      21.163   2.470  50.024  1.00  0.00    -0.223 NA
HETATM    6  N4  UNL     1      20.682   2.713  48.680  1.00  0.00    -0.318 N 
HETATM    7  C13 UNL     1      21.780   3.097  47.807  1.00  0.00     0.051 C 
HETATM    8  C14 UNL     1      22.042   3.518  46.594  1.00  0.00     0.049 C 
HETATM    9  C16 UNL     1      21.700   3.788  50.441  1.00  0.00     0.077 C 
HETATM   10  C17 UNL     1      20.602   4.357  51.353  1.00  0.00     0.028 C 
HETATM   11  C18 UNL     1      22.973   3.737  51.203  1.00  0.00     0.035 C 
HETATM   12  H12 UNL     1      19.734   2.678  48.187  1.00  0.00     0.181 HD
ENDROOT
BRANCH   1  13
HETATM   13  C2  UNL     1      25.425   3.318  50.950  1.00  0.00    -0.009 C 
HETATM   14  C1  UNL     1      26.464   3.029  50.145  1.00  0.00     0.058 C 
BRANCH  13  15
HETATM   15  N1  UNL     1      25.729   2.863  52.239  1.00  0.00    -0.383 N 
HETATM   16  H3  UNL     1      25.799   3.507  53.056  1.00  0.00     0.160 HD
BRANCH  15  17
HETATM   17  C3  UNL     1      25.971   1.443  52.511  1.00  0.00     0.152 C 
HETATM   18  C4  UNL     1      24.691   0.733  52.655  1.00  0.00     0.029 C 
HETATM   19  C5  UNL     1      24.220  -0.203  53.457  1.00  0.00     0.050 C 
HETATM   20 CL1  UNL     1      22.570  -0.779  53.263  1.00  0.00    -0.083 Cl
HETATM   21  C6  UNL     1      24.955  -0.842  54.540  1.00  0.00     0.139 C 
HETATM   22  N2  UNL     1      26.095  -0.564  55.030  1.00  0.00    -0.270 NA
HETATM   23  C7  UNL     1      26.993   0.461  54.663  1.00  0.00     0.138 C 
HETATM   24  C8  UNL     1      26.904   1.254  53.629  1.00  0.00     0.055 C 
HETATM   25 CL2  UNL     1      28.190   2.439  53.440  1.00  0.00    -0.085 Cl
ENDBRANCH  15  17
ENDBRANCH  13  15
ENDBRANCH   1  13
BRANCH   8  26
HETATM   26  C15 UNL     1      20.976   3.715  45.620  1.00  0.00     0.109 C 
HETATM   27  N5  UNL     1      21.265   3.711  44.366  1.00  0.00    -0.312 NA
HETATM   28  H15 UNL     1      20.544   3.847  43.638  1.00  0.00     0.186 HD
ENDBRANCH   8  26
TORSDOF 4
ENDMDL
MODEL 6
REMARK VINA RESULT:      -7.8      3.391      7.357
REMARK  4 active torsions:
REMARK  status: ('A' for Active; 'I' for Inactive)
REMARK    1  A    between atoms: C2_2  and  N1_3 
REMARK    2  A    between atoms: C2_2  and  C9_13 
REMARK    3  A    between atoms: N1_3  and  C3_4 
REMARK    4  A    between atoms: C14_20  and  C15_21 
ROOT
HETATM    1  C9  UNL     1      22.970   2.886  51.053  1.00  0.00     0.056 C 
HETATM    2  C10 UNL     1      24.246   3.051  50.246  1.00  0.00    -0.006 C 
HETATM    3  C11 UNL     1      24.134   4.016  49.306  1.00  0.00    -0.019 C 
HETATM    4  C12 UNL     1      22.988   4.312  48.321  1.00  0.00     0.154 C 
HETATM    5  N3  UNL     1      22.737   5.638  48.974  1.00  0.00    -0.223 NA
HETATM    6  N4  UNL     1      24.066   6.153  48.717  1.00  0.00    -0.318 N 
HETATM    7  C13 UNL     1      25.069   5.142  49.002  1.00  0.00     0.051 C 
HETATM    8  C14 UNL     1      26.365   4.958  49.079  1.00  0.00     0.049 C 
HETATM    9  C16 UNL     1      22.757   5.346  50.428  1.00  0.00     0.077 C 
HETATM   10  C17 UNL     1      21.997   6.528  51.048  1.00  0.00     0.028 C 
HETATM   11  C18 UNL     1      22.083   4.085  50.826  1.00  0.00     0.035 C 
HETATM   12  H12 UNL     1      24.475   7.080  48.373  1.00  0.00     0.181 HD
ENDROOT
BRANCH   1  13
HETATM   13  C2  UNL     1      22.331   1.597  50.776  1.00  0.00    -0.009 C 
HETATM   14  C1  UNL     1      21.835   1.325  49.555  1.00  0.00     0.058 C 
BRANCH  13  15
HETATM   15  N1  UNL     1      22.107   0.485  51.597  1.00  0.00    -0.383 N 
HETATM   16  H3  UNL     1      21.710  -0.407  51.231  1.00  0.00     0.160 HD
BRANCH  15  17
HETATM   17  C3  UNL     1      22.422   0.516  53.027  1.00  0.00     0.152 C 
HETATM   18  C4  UNL     1      23.839   0.183  53.239  1.00  0.00     0.029 C 
HETATM   19  C5  UNL     1      24.515  -0.546  54.108  1.00  0.00     0.050 C 
HETATM   20 CL1  UNL     1      26.264  -0.668  53.982  1.00  0.00    -0.083 Cl
HETATM   21  C6  UNL     1      23.939  -1.298  55.215  1.00  0.00     0.139 C 
HETATM   22  N2  UNL     1      22.722  -1.535  55.497  1.00  0.00    -0.270 NA
HETATM   23  C7  UNL     1      21.557  -1.132  54.810  1.00  0.00     0.138 C 
HETATM   24  C8  UNL     1      21.481  -0.296  53.810  1.00  0.00     0.055 C 
HETATM   25 CL2  UNL     1      19.873   0.004  53.163  1.00  0.00    -0.085 Cl
ENDBRANCH  15  17
ENDBRANCH  13  15
ENDBRANCH   1  13
BRANCH   8  26
HETATM   26  C15 UNL     1      27.296   6.042  48.789  1.00  0.00     0.109 C 
HETATM   27  N5  UNL     1      27.178   7.155  49.422  1.00  0.00    -0.312 NA
HETATM   28  H15 UNL     1      27.814   7.953  49.250  1.00  0.00     0.186 HD
ENDBRANCH   8  26
TORSDOF 4
ENDMDL
MODEL 7
REMARK VINA RESULT:      -7.8      3.903      6.458
REMARK  4 active torsions:
REMARK  status: ('A' for Active; 'I' for Inactive)
REMARK    1  A    between atoms: C2_2  and  N1_3 
REMARK    2  A    between atoms: C2_2  and  C9_13 
REMARK    3  A    between atoms: N1_3  and  C3_4 
REMARK    4  A    between atoms: C14_20  and  C15_21 
ROOT
HETATM    1  C9  UNL     1      22.956   0.514  52.097  1.00  0.00     0.056 C 
HETATM    2  C10 UNL     1      23.134   1.887  51.472  1.00  0.00    -0.006 C 
HETATM    3  C11 UNL     1      24.232   2.521  51.939  1.00  0.00    -0.019 C 
HETATM    4  C12 UNL     1      24.763   2.656  53.378  1.00  0.00     0.154 C 
HETATM    5  N3  UNL     1      25.994   1.878  53.023  1.00  0.00    -0.223 NA
HETATM    6  N4  UNL     1      26.432   2.804  51.999  1.00  0.00    -0.318 N 
HETATM    7  C13 UNL     1      25.311   3.215  51.171  1.00  0.00     0.051 C 
HETATM    8  C14 UNL     1      25.013   3.901  50.094  1.00  0.00     0.049 C 
HETATM    9  C16 UNL     1      25.490   0.719  52.247  1.00  0.00     0.077 C 
HETATM   10  C17 UNL     1      26.626  -0.310  52.349  1.00  0.00     0.028 C 
HETATM   11  C18 UNL     1      24.244   0.106  52.769  1.00  0.00     0.035 C 
HETATM   12  H12 UNL     1      27.362   3.247  51.714  1.00  0.00     0.181 HD
ENDROOT
BRANCH   1  13
HETATM   13  C2  UNL     1      21.779   0.476  52.968  1.00  0.00    -0.009 C 
HETATM   14  C1  UNL     1      21.883   0.066  54.246  1.00  0.00     0.058 C 
BRANCH  13  15
HETATM   15  N1  UNL     1      20.441   0.810  52.724  1.00  0.00    -0.383 N 
HETATM   16  H3  UNL     1      19.900   1.443  53.352  1.00  0.00     0.160 HD
BRANCH  15  17
HETATM   17  C3  UNL     1      19.722   0.281  51.561  1.00  0.00     0.152 C 
HETATM   18  C4  UNL     1      19.630   1.310  50.514  1.00  0.00     0.029 C 
HETATM   19  C5  UNL     1      18.698   1.716  49.673  1.00  0.00     0.050 C 
HETATM   20 CL1  UNL     1      19.034   3.029  48.552  1.00  0.00    -0.083 Cl
HETATM   21  C6  UNL     1      17.352   1.168  49.569  1.00  0.00     0.139 C 
HETATM   22  N2  UNL     1      16.751   0.329  50.311  1.00  0.00    -0.270 NA
HETATM   23  C7  UNL     1      17.219  -0.327  51.470  1.00  0.00     0.138 C 
HETATM   24  C8  UNL     1      18.437  -0.318  51.942  1.00  0.00     0.055 C 
HETATM   25 CL2  UNL     1      18.709  -1.238  53.417  1.00  0.00    -0.085 Cl
ENDBRANCH  15  17
ENDBRANCH  13  15
ENDBRANCH   1  13
BRANCH   8  26
HETATM   26  C15 UNL     1      26.047   4.585  49.329  1.00  0.00     0.109 C 
HETATM   27  N5  UNL     1      27.278   4.250  49.500  1.00  0.00    -0.312 NA
HETATM   28  H15 UNL     1      28.047   4.707  48.981  1.00  0.00     0.186 HD
ENDBRANCH   8  26
TORSDOF 4
ENDMDL
MODEL 8
REMARK VINA RESULT:      -7.6      1.860      2.611
REMARK  4 active torsions:
REMARK  status: ('A' for Active; 'I' for Inactive)
REMARK    1  A    between atoms: C2_2  and  N1_3 
REMARK    2  A    between atoms: C2_2  and  C9_13 
REMARK    3  A    between atoms: N1_3  and  C3_4 
REMARK    4  A    between atoms: C14_20  and  C15_21 
ROOT
HETATM    1  C9  UNL     1      22.969   2.388  50.050  1.00  0.00     0.056 C 
HETATM    2  C10 UNL     1      24.422   2.210  50.456  1.00  0.00    -0.006 C 
HETATM    3  C11 UNL     1      24.555   1.957  51.777  1.00  0.00    -0.019 C 
HETATM    4  C12 UNL     1      23.872   2.618  52.987  1.00  0.00     0.154 C 
HETATM    5  N3  UNL     1      23.185   1.331  53.334  1.00  0.00    -0.223 NA
HETATM    6  N4  UNL     1      24.412   0.584  53.514  1.00  0.00    -0.318 N 
HETATM    7  C13 UNL     1      25.355   0.887  52.449  1.00  0.00     0.051 C 
HETATM    8  C14 UNL     1      26.522   0.537  51.966  1.00  0.00     0.049 C 
HETATM    9  C16 UNL     1      22.662   0.829  52.041  1.00  0.00     0.077 C 
HETATM   10  C17 UNL     1      21.550  -0.148  52.451  1.00  0.00     0.028 C 
HETATM   11  C18 UNL     1      22.080   1.866  51.152  1.00  0.00     0.035 C 
HETATM   12  H12 UNL     1      24.782  -0.122  54.227  1.00  0.00     0.181 HD
ENDROOT
BRANCH   1  13
HETATM   13  C2  UNL     1      22.695   3.772  49.654  1.00  0.00    -0.009 C 
HETATM   14  C1  UNL     1      21.909   4.041  48.596  1.00  0.00     0.058 C 
BRANCH  13  15
HETATM   15  N1  UNL     1      23.122   4.988  50.202  1.00  0.00    -0.383 N 
HETATM   16  H3  UNL     1      22.954   5.240  51.200  1.00  0.00     0.160 HD
BRANCH  15  17
HETATM   17  C3  UNL     1      23.833   5.982  49.394  1.00  0.00     0.152 C 
HETATM   18  C4  UNL     1      25.181   5.493  49.064  1.00  0.00     0.029 C 
HETATM   19  C5  UNL     1      26.387   6.026  49.007  1.00  0.00     0.050 C 
HETATM   20 CL1  UNL     1      27.765   5.035  48.547  1.00  0.00    -0.083 Cl
HETATM   21  C6  UNL     1      26.716   7.415  49.299  1.00  0.00     0.139 C 
HETATM   22  N2  UNL     1      25.995   8.341  49.788  1.00  0.00    -0.270 NA
HETATM   23  C7  UNL     1      24.645   8.293  50.196  1.00  0.00     0.138 C 
HETATM   24  C8  UNL     1      23.801   7.313  50.015  1.00  0.00     0.055 C 
HETATM   25 CL2  UNL     1      22.176   7.555  50.644  1.00  0.00    -0.085 Cl
ENDBRANCH  15  17
ENDBRANCH  13  15
ENDBRANCH   1  13
BRANCH   8  26
HETATM   26  C15 UNL     1      27.318  -0.503  52.604  1.00  0.00     0.109 C 
HETATM   27  N5  UNL     1      26.720  -1.496  53.162  1.00  0.00    -0.312 NA
HETATM   28  H15 UNL     1      27.242  -2.258  53.628  1.00  0.00     0.186 HD
ENDBRANCH   8  26
TORSDOF 4
ENDMDL
MODEL 9
REMARK VINA RESULT:      -7.6      3.283      7.893
REMARK  4 active torsions:
REMARK  status: ('A' for Active; 'I' for Inactive)
REMARK    1  A    between atoms: C2_2  and  N1_3 
REMARK    2  A    between atoms: C2_2  and  C9_13 
REMARK    3  A    between atoms: N1_3  and  C3_4 
REMARK    4  A    between atoms: C14_20  and  C15_21 
ROOT
HETATM    1  C9  UNL     1      23.732   2.743  50.227  1.00  0.00     0.056 C 
HETATM    2  C10 UNL     1      22.552   3.039  51.136  1.00  0.00    -0.006 C 
HETATM    3  C11 UNL     1      21.855   4.123  50.731  1.00  0.00    -0.019 C 
HETATM    4  C12 UNL     1      22.352   5.498  50.249  1.00  0.00     0.154 C 
HETATM    5  N3  UNL     1      21.773   5.257  48.887  1.00  0.00    -0.223 NA
HETATM    6  N4  UNL     1      20.413   5.103  49.359  1.00  0.00    -0.318 N 
HETATM    7  C13 UNL     1      20.378   4.275  50.553  1.00  0.00     0.051 C 
HETATM    8  C14 UNL     1      19.552   3.693  51.388  1.00  0.00     0.049 C 
HETATM    9  C16 UNL     1      22.181   3.872  48.551  1.00  0.00     0.077 C 
HETATM   10  C17 UNL     1      22.068   3.820  47.020  1.00  0.00     0.028 C 
HETATM   11  C18 UNL     1      23.567   3.511  48.938  1.00  0.00     0.035 C 
HETATM   12  H12 UNL     1      19.450   5.446  49.045  1.00  0.00     0.181 HD
ENDROOT
BRANCH   1  13
HETATM   13  C2  UNL     1      25.004   2.978  50.914  1.00  0.00    -0.009 C 
HETATM   14  C1  UNL     1      26.010   3.623  50.296  1.00  0.00     0.058 C 
BRANCH  13  15
HETATM   15  N1  UNL     1      25.429   2.638  52.205  1.00  0.00    -0.383 N 
HETATM   16  H3  UNL     1      25.535   3.347  52.962  1.00  0.00     0.160 HD
BRANCH  15  17
HETATM   17  C3  UNL     1      25.754   1.255  52.562  1.00  0.00     0.152 C 
HETATM   18  C4  UNL     1      24.525   0.520  52.901  1.00  0.00     0.029 C 
HETATM   19  C5  UNL     1      24.178  -0.359  53.822  1.00  0.00     0.050 C 
HETATM   20 CL1  UNL     1      22.541  -0.999  53.856  1.00  0.00    -0.083 Cl
HETATM   21  C6  UNL     1      25.049  -0.882  54.867  1.00  0.00     0.139 C 
HETATM   22  N2  UNL     1      26.222  -0.528  55.207  1.00  0.00    -0.270 NA
HETATM   23  C7  UNL     1      27.036   0.488  54.662  1.00  0.00     0.138 C 
HETATM   24  C8  UNL     1      26.806   1.188  53.584  1.00  0.00     0.055 C 
HETATM   25 CL2  UNL     1      28.018   2.392  53.162  1.00  0.00    -0.085 Cl
ENDBRANCH  15  17
ENDBRANCH  13  15
ENDBRANCH   1  13
BRANCH   8  26
HETATM   26  C15 UNL     1      18.109   3.826  51.233  1.00  0.00     0.109 C 
HETATM   27  N5  UNL     1      17.639   4.837  50.591  1.00  0.00    -0.312 NA
HETATM   28  H15 UNL     1      16.623   4.975  50.456  1.00  0.00     0.186 HD
ENDBRANCH   8  26
TORSDOF 4
ENDMDL
