MODEL 1
REMARK VINA RESULT:      -7.4      0.000      0.000
REMARK  4 active torsions:
REMARK  status: ('A' for Active; 'I' for Inactive)
REMARK    1  A    between atoms: C2_2  and  O1_3 
REMARK    2  A    between atoms: O1_3  and  C3_4 
REMARK       I    between atoms: C3_4  and  N1_6 
REMARK    3  A    between atoms: N1_6  and  C4_7 
REMARK    4  A    between atoms: N2_11  and  C8_12 
ROOT
HETATM    1  C4  UNL     1      21.450   0.913  53.323  1.00  0.00     0.037 A 
HETATM    2  C5  UNL     1      20.954  -0.059  54.072  1.00  0.00     0.028 A 
HETATM    3  C6  UNL     1      21.868  -1.009  54.689  1.00  0.00     0.019 A 
HETATM    4  C7  UNL     1      23.182  -0.962  54.547  1.00  0.00     0.093 A 
HETATM    5  N2  UNL     1      23.665   0.101  53.734  1.00  0.00    -0.333 N 
HETATM    6  C13 UNL     1      22.894   1.120  53.054  1.00  0.00     0.136 A 
HETATM    7  C14 UNL     1      23.191   0.974  51.586  1.00  0.00     0.039 C 
ENDROOT
BRANCH   5   8
HETATM    8  C8  UNL     1      25.088   0.212  53.537  1.00  0.00     0.132 C 
HETATM    9  N3  UNL     1      25.510  -0.936  53.127  1.00  0.00    -0.226 NA
HETATM   10  C9  UNL     1      26.711  -1.593  52.736  1.00  0.00     0.234 C 
HETATM   11  N4  UNL     1      27.937  -1.405  53.097  1.00  0.00    -0.252 NA
HETATM   12  C10 UNL     1      28.555  -0.495  53.999  1.00  0.00     0.142 C 
HETATM   13  C11 UNL     1      28.162   0.581  54.702  1.00  0.00     0.154 C 
HETATM   14  O3  UNL     1      26.900   1.163  54.741  1.00  0.00    -0.354 OA
HETATM   15  C12 UNL     1      25.880   1.426  53.771  1.00  0.00     0.253 C 
ENDBRANCH   5   8
BRANCH   1  16
HETATM   16  N1  UNL     1      20.383   1.708  52.832  1.00  0.00    -0.304 N 
HETATM   17  C3  UNL     1      20.436   3.070  52.468  1.00  0.00     0.364 C 
HETATM   18  O2  UNL     1      21.258   4.020  52.413  1.00  0.00    -0.238 OA
HETATM   19  H6  UNL     1      19.435   1.268  52.713  1.00  0.00     0.171 HD
BRANCH  17  20
HETATM   20  O1  UNL     1      19.327   3.759  51.997  1.00  0.00    -0.304 OA
BRANCH  20  21
HETATM   21  C2  UNL     1      18.176   3.090  51.518  1.00  0.00     0.176 C 
HETATM   22  C1  UNL     1      16.927   3.926  51.693  1.00  0.00     0.034 C 
ENDBRANCH  20  21
ENDBRANCH  17  20
ENDBRANCH   1  16
TORSDOF 4
ENDMDL
MODEL 2
REMARK VINA RESULT:      -7.3      1.833      6.859
REMARK  4 active torsions:
REMARK  status: ('A' for Active; 'I' for Inactive)
REMARK    1  A    between atoms: C2_2  and  O1_3 
REMARK    2  A    between atoms: O1_3  and  C3_4 
REMARK       I    between atoms: C3_4  and  N1_6 
REMARK    3  A    between atoms: N1_6  and  C4_7 
REMARK    4  A    between atoms: N2_11  and  C8_12 
ROOT
HETATM    1  C4  UNL     1      24.175  -0.506  53.962  1.00  0.00     0.037 A 
HETATM    2  C5  UNL     1      23.459  -1.083  54.914  1.00  0.00     0.028 A 
HETATM    3  C6  UNL     1      22.018  -0.876  54.936  1.00  0.00     0.019 A 
HETATM    4  C7  UNL     1      21.370  -0.135  54.053  1.00  0.00     0.093 A 
HETATM    5  N2  UNL     1      22.184   0.463  53.051  1.00  0.00    -0.333 N 
HETATM    6  C13 UNL     1      23.619   0.356  52.891  1.00  0.00     0.136 A 
HETATM    7  C14 UNL     1      24.166   1.754  52.990  1.00  0.00     0.039 C 
ENDROOT
BRANCH   5   8
HETATM    8  C8  UNL     1      21.542   1.283  52.055  1.00  0.00     0.132 C 
HETATM    9  N3  UNL     1      21.719   0.711  50.913  1.00  0.00    -0.226 NA
HETATM   10  C9  UNL     1      21.411   0.885  49.534  1.00  0.00     0.234 C 
HETATM   11  N4  UNL     1      21.223   1.955  48.834  1.00  0.00    -0.252 NA
HETATM   12  C10 UNL     1      21.248   3.341  49.154  1.00  0.00     0.142 C 
HETATM   13  C11 UNL     1      21.330   4.068  50.282  1.00  0.00     0.154 C 
HETATM   14  O3  UNL     1      21.423   3.609  51.590  1.00  0.00    -0.354 OA
HETATM   15  C12 UNL     1      20.826   2.536  52.328  1.00  0.00     0.253 C 
ENDBRANCH   5   8
BRANCH   1  16
HETATM   16  N1  UNL     1      25.540  -0.847  54.140  1.00  0.00    -0.304 N 
HETATM   17  C3  UNL     1      26.548  -0.046  54.716  1.00  0.00     0.364 C 
HETATM   18  O2  UNL     1      26.695   1.091  55.232  1.00  0.00    -0.238 OA
HETATM   19  H6  UNL     1      25.874  -1.792  53.819  1.00  0.00     0.171 HD
BRANCH  17  20
HETATM   20  O1  UNL     1      27.861  -0.476  54.842  1.00  0.00    -0.304 OA
BRANCH  20  21
HETATM   21  C2  UNL     1      28.930   0.173  54.181  1.00  0.00     0.176 C 
HETATM   22  C1  UNL     1      29.876  -0.816  53.537  1.00  0.00     0.034 C 
ENDBRANCH  20  21
ENDBRANCH  17  20
ENDBRANCH   1  16
TORSDOF 4
ENDMDL
MODEL 3
REMARK VINA RESULT:      -7.2      2.190      6.957
REMARK  4 active torsions:
REMARK  status: ('A' for Active; 'I' for Inactive)
REMARK    1  A    between atoms: C2_2  and  O1_3 
REMARK    2  A    between atoms: O1_3  and  C3_4 
REMARK       I    between atoms: C3_4  and  N1_6 
REMARK    3  A    between atoms: N1_6  and  C4_7 
REMARK    4  A    between atoms: N2_11  and  C8_12 
ROOT
HETATM    1  C4  UNL     1      24.172   0.053  53.292  1.00  0.00     0.037 A 
HETATM    2  C5  UNL     1      23.308  -0.670  53.986  1.00  0.00     0.028 A 
HETATM    3  C6  UNL     1      21.899  -0.302  53.961  1.00  0.00     0.019 A 
HETATM    4  C7  UNL     1      21.421   0.724  53.278  1.00  0.00     0.093 A 
HETATM    5  N2  UNL     1      22.390   1.469  52.548  1.00  0.00    -0.333 N 
HETATM    6  C13 UNL     1      23.816   1.236  52.470  1.00  0.00     0.136 A 
HETATM    7  C14 UNL     1      24.483   2.476  53.001  1.00  0.00     0.039 C 
ENDROOT
BRANCH   5   8
HETATM    8  C8  UNL     1      21.937   2.601  51.781  1.00  0.00     0.132 C 
HETATM    9  N3  UNL     1      22.317   2.417  50.562  1.00  0.00    -0.226 NA
HETATM   10  C9  UNL     1      22.260   3.042  49.284  1.00  0.00     0.234 C 
HETATM   11  N4  UNL     1      22.202   4.288  48.950  1.00  0.00    -0.252 NA
HETATM   12  C10 UNL     1      22.170   5.495  49.704  1.00  0.00     0.142 C 
HETATM   13  C11 UNL     1      22.048   5.816  51.004  1.00  0.00     0.154 C 
HETATM   14  O3  UNL     1      21.905   4.956  52.086  1.00  0.00    -0.354 OA
HETATM   15  C12 UNL     1      21.185   3.741  52.321  1.00  0.00     0.253 C 
ENDBRANCH   5   8
BRANCH   1  16
HETATM   16  N1  UNL     1      25.472  -0.487  53.466  1.00  0.00    -0.304 N 
HETATM   17  C3  UNL     1      26.454  -0.059  54.383  1.00  0.00     0.364 C 
HETATM   18  O2  UNL     1      26.620   0.803  55.282  1.00  0.00    -0.238 OA
HETATM   19  H6  UNL     1      25.771  -1.295  52.861  1.00  0.00     0.171 HD
BRANCH  17  20
HETATM   20  O1  UNL     1      27.703  -0.659  54.471  1.00  0.00    -0.304 OA
BRANCH  20  21
HETATM   21  C2  UNL     1      28.900   0.093  54.430  1.00  0.00     0.176 C 
HETATM   22  C1  UNL     1      29.955  -0.578  53.578  1.00  0.00     0.034 C 
ENDBRANCH  20  21
ENDBRANCH  17  20
ENDBRANCH   1  16
TORSDOF 4
ENDMDL
MODEL 4
REMARK VINA RESULT:      -7.1      1.807      7.360
REMARK  4 active torsions:
REMARK  status: ('A' for Active; 'I' for Inactive)
REMARK    1  A    between atoms: C2_2  and  O1_3 
REMARK    2  A    between atoms: O1_3  and  C3_4 
REMARK       I    between atoms: C3_4  and  N1_6 
REMARK    3  A    between atoms: N1_6  and  C4_7 
REMARK    4  A    between atoms: N2_11  and  C8_12 
ROOT
HETATM    1  C4  UNL     1      24.024  -0.430  53.773  1.00  0.00     0.037 A 
HETATM    2  C5  UNL     1      23.326  -0.933  54.779  1.00  0.00     0.028 A 
HETATM    3  C6  UNL     1      21.892  -0.688  54.835  1.00  0.00     0.019 A 
HETATM    4  C7  UNL     1      21.233   0.018  53.931  1.00  0.00     0.093 A 
HETATM    5  N2  UNL     1      22.028   0.536  52.871  1.00  0.00    -0.333 N 
HETATM    6  C13 UNL     1      23.453   0.384  52.672  1.00  0.00     0.136 A 
HETATM    7  C14 UNL     1      24.037   1.771  52.674  1.00  0.00     0.039 C 
ENDROOT
BRANCH   5   8
HETATM    8  C8  UNL     1      21.374   1.315  51.850  1.00  0.00     0.132 C 
HETATM    9  N3  UNL     1      20.888   2.366  52.420  1.00  0.00    -0.226 NA
HETATM   10  C9  UNL     1      20.151   3.544  52.113  1.00  0.00     0.234 C 
HETATM   11  N4  UNL     1      19.270   3.780  51.198  1.00  0.00    -0.252 NA
HETATM   12  C10 UNL     1      18.706   2.982  50.164  1.00  0.00     0.142 C 
HETATM   13  C11 UNL     1      18.945   1.764  49.648  1.00  0.00     0.154 C 
HETATM   14  O3  UNL     1      19.921   0.851  50.029  1.00  0.00    -0.354 OA
HETATM   15  C12 UNL     1      21.293   0.948  50.430  1.00  0.00     0.253 C 
ENDBRANCH   5   8
BRANCH   1  16
HETATM   16  N1  UNL     1      25.386  -0.795  53.927  1.00  0.00    -0.304 N 
HETATM   17  C3  UNL     1      26.396  -0.056  54.577  1.00  0.00     0.364 C 
HETATM   18  O2  UNL     1      26.548   1.030  55.192  1.00  0.00    -0.238 OA
HETATM   19  H6  UNL     1      25.714  -1.711  53.526  1.00  0.00     0.171 HD
BRANCH  17  20
HETATM   20  O1  UNL     1      27.706  -0.506  54.671  1.00  0.00    -0.304 OA
BRANCH  20  21
HETATM   21  C2  UNL     1      28.740   0.024  53.865  1.00  0.00     0.176 C 
HETATM   22  C1  UNL     1      29.873  -0.963  53.685  1.00  0.00     0.034 C 
ENDBRANCH  20  21
ENDBRANCH  17  20
ENDBRANCH   1  16
TORSDOF 4
ENDMDL
MODEL 5
REMARK VINA RESULT:      -6.7      2.573      7.779
REMARK  4 active torsions:
REMARK  status: ('A' for Active; 'I' for Inactive)
REMARK    1  A    between atoms: C2_2  and  O1_3 
REMARK    2  A    between atoms: O1_3  and  C3_4 
REMARK       I    between atoms: C3_4  and  N1_6 
REMARK    3  A    between atoms: N1_6  and  C4_7 
REMARK    4  A    between atoms: N2_11  and  C8_12 
ROOT
HETATM    1  C4  UNL     1      25.921   2.177  52.132  1.00  0.00     0.037 A 
HETATM    2  C5  UNL     1      26.715   2.629  51.174  1.00  0.00     0.028 A 
HETATM    3  C6  UNL     1      26.120   3.199  49.975  1.00  0.00     0.019 A 
HETATM    4  C7  UNL     1      24.815   3.296  49.778  1.00  0.00     0.093 A 
HETATM    5  N2  UNL     1      24.006   2.797  50.837  1.00  0.00    -0.333 N 
HETATM    6  C13 UNL     1      24.439   2.204  52.084  1.00  0.00     0.136 A 
HETATM    7  C14 UNL     1      23.877   0.809  52.113  1.00  0.00     0.039 C 
ENDROOT
BRANCH   5   8
HETATM    8  C8  UNL     1      22.574   2.872  50.689  1.00  0.00     0.132 C 
HETATM    9  N3  UNL     1      22.110   3.468  51.734  1.00  0.00    -0.226 NA
HETATM   10  C9  UNL     1      20.876   3.897  52.300  1.00  0.00     0.234 C 
HETATM   11  N4  UNL     1      19.680   3.424  52.186  1.00  0.00    -0.252 NA
HETATM   12  C10 UNL     1      19.136   2.321  51.470  1.00  0.00     0.142 C 
HETATM   13  C11 UNL     1      19.590   1.450  50.552  1.00  0.00     0.154 C 
HETATM   14  O3  UNL     1      20.859   1.384  49.991  1.00  0.00    -0.354 OA
HETATM   15  C12 UNL     1      21.816   2.351  49.544  1.00  0.00     0.253 C 
ENDBRANCH   5   8
BRANCH   1  16
HETATM   16  N1  UNL     1      26.717   1.672  53.192  1.00  0.00    -0.304 N 
HETATM   17  C3  UNL     1      28.028   2.066  53.533  1.00  0.00     0.364 C 
HETATM   18  O2  UNL     1      28.920   2.867  53.155  1.00  0.00    -0.238 OA
HETATM   19  H6  UNL     1      26.319   0.921  53.813  1.00  0.00     0.171 HD
BRANCH  17  20
HETATM   20  O1  UNL     1      28.723   1.505  54.595  1.00  0.00    -0.304 OA
BRANCH  20  21
HETATM   21  C2  UNL     1      28.729   0.110  54.833  1.00  0.00     0.176 C 
HETATM   22  C1  UNL     1      29.543  -0.633  53.796  1.00  0.00     0.034 C 
ENDBRANCH  20  21
ENDBRANCH  17  20
ENDBRANCH   1  16
TORSDOF 4
ENDMDL
MODEL 6
REMARK VINA RESULT:      -6.6      2.082      3.046
REMARK  4 active torsions:
REMARK  status: ('A' for Active; 'I' for Inactive)
REMARK    1  A    between atoms: C2_2  and  O1_3 
REMARK    2  A    between atoms: O1_3  and  C3_4 
REMARK       I    between atoms: C3_4  and  N1_6 
REMARK    3  A    between atoms: N1_6  and  C4_7 
REMARK    4  A    between atoms: N2_11  and  C8_12 
ROOT
HETATM    1  C4  UNL     1      23.039   1.685  51.253  1.00  0.00     0.037 A 
HETATM    2  C5  UNL     1      23.071   2.653  50.352  1.00  0.00     0.028 A 
HETATM    3  C6  UNL     1      24.352   3.251  50.004  1.00  0.00     0.019 A 
HETATM    4  C7  UNL     1      25.503   2.882  50.541  1.00  0.00     0.093 A 
HETATM    5  N2  UNL     1      25.415   1.837  51.503  1.00  0.00    -0.333 N 
HETATM    6  C13 UNL     1      24.228   1.144  51.956  1.00  0.00     0.136 A 
HETATM    7  C14 UNL     1      24.129   1.386  53.438  1.00  0.00     0.039 C 
ENDROOT
BRANCH   5   8
HETATM    8  C8  UNL     1      26.632   1.385  52.128  1.00  0.00     0.132 C 
HETATM    9  N3  UNL     1      26.595   0.096  52.156  1.00  0.00    -0.226 NA
HETATM   10  C9  UNL     1      27.370  -1.019  52.583  1.00  0.00     0.234 C 
HETATM   11  N4  UNL     1      28.221  -1.142  53.546  1.00  0.00    -0.252 NA
HETATM   12  C10 UNL     1      28.710  -0.239  54.532  1.00  0.00     0.142 C 
HETATM   13  C11 UNL     1      28.603   1.080  54.768  1.00  0.00     0.154 C 
HETATM   14  O3  UNL     1      27.906   2.027  54.027  1.00  0.00    -0.354 OA
HETATM   15  C12 UNL     1      27.699   2.261  52.629  1.00  0.00     0.253 C 
ENDBRANCH   5   8
BRANCH   1  16
HETATM   16  N1  UNL     1      21.696   1.260  51.427  1.00  0.00    -0.304 N 
HETATM   17  C3  UNL     1      20.667   1.953  52.098  1.00  0.00     0.364 C 
HETATM   18  O2  UNL     1      20.478   3.029  52.719  1.00  0.00    -0.238 OA
HETATM   19  H6  UNL     1      21.401   0.333  51.027  1.00  0.00     0.171 HD
BRANCH  17  20
HETATM   20  O1  UNL     1      19.380   1.445  52.213  1.00  0.00    -0.304 OA
BRANCH  20  21
HETATM   21  C2  UNL     1      18.925   0.367  51.418  1.00  0.00     0.176 C 
HETATM   22  C1  UNL     1      18.050  -0.582  52.207  1.00  0.00     0.034 C 
ENDBRANCH  20  21
ENDBRANCH  17  20
ENDBRANCH   1  16
TORSDOF 4
ENDMDL
MODEL 7
REMARK VINA RESULT:      -6.4      3.187      7.985
REMARK  4 active torsions:
REMARK  status: ('A' for Active; 'I' for Inactive)
REMARK    1  A    between atoms: C2_2  and  O1_3 
REMARK    2  A    between atoms: O1_3  and  C3_4 
REMARK       I    between atoms: C3_4  and  N1_6 
REMARK    3  A    between atoms: N1_6  and  C4_7 
REMARK    4  A    between atoms: N2_11  and  C8_12 
ROOT
HETATM    1  C4  UNL     1      25.900   2.300  52.094  1.00  0.00     0.037 A 
HETATM    2  C5  UNL     1      26.717   2.372  51.056  1.00  0.00     0.028 A 
HETATM    3  C6  UNL     1      26.281   3.083  49.863  1.00  0.00     0.019 A 
HETATM    4  C7  UNL     1      25.102   3.670  49.749  1.00  0.00     0.093 A 
HETATM    5  N2  UNL     1      24.261   3.565  50.892  1.00  0.00    -0.333 N 
HETATM    6  C13 UNL     1      24.544   2.898  52.145  1.00  0.00     0.136 A 
HETATM    7  C14 UNL     1      23.494   1.832  52.309  1.00  0.00     0.039 C 
ENDROOT
BRANCH   5   8
HETATM    8  C8  UNL     1      22.961   4.183  50.836  1.00  0.00     0.132 C 
HETATM    9  N3  UNL     1      22.367   3.736  49.782  1.00  0.00    -0.226 NA
HETATM   10  C9  UNL     1      21.136   3.856  49.076  1.00  0.00     0.234 C 
HETATM   11  N4  UNL     1      20.306   4.840  48.980  1.00  0.00    -0.252 NA
HETATM   12  C10 UNL     1      20.289   6.155  49.526  1.00  0.00     0.142 C 
HETATM   13  C11 UNL     1      21.017   6.830  50.432  1.00  0.00     0.154 C 
HETATM   14  O3  UNL     1      22.106   6.375  51.165  1.00  0.00    -0.354 OA
HETATM   15  C12 UNL     1      22.440   5.144  51.817  1.00  0.00     0.253 C 
ENDBRANCH   5   8
BRANCH   1  16
HETATM   16  N1  UNL     1      26.532   1.567  53.131  1.00  0.00    -0.304 N 
HETATM   17  C3  UNL     1      26.677   0.166  53.214  1.00  0.00     0.364 C 
HETATM   18  O2  UNL     1      26.388  -0.871  52.565  1.00  0.00    -0.238 OA
HETATM   19  H6  UNL     1      26.949   2.091  53.942  1.00  0.00     0.171 HD
BRANCH  17  20
HETATM   20  O1  UNL     1      27.316  -0.455  54.278  1.00  0.00    -0.304 OA
BRANCH  20  21
HETATM   21  C2  UNL     1      28.611  -0.074  54.701  1.00  0.00     0.176 C 
HETATM   22  C1  UNL     1      29.681  -0.578  53.758  1.00  0.00     0.034 C 
ENDBRANCH  20  21
ENDBRANCH  17  20
ENDBRANCH   1  16
TORSDOF 4
ENDMDL
MODEL 8
REMARK VINA RESULT:      -6.1      3.869      7.897
REMARK  4 active torsions:
REMARK  status: ('A' for Active; 'I' for Inactive)
REMARK    1  A    between atoms: C2_2  and  O1_3 
REMARK    2  A    between atoms: O1_3  and  C3_4 
REMARK       I    between atoms: C3_4  and  N1_6 
REMARK    3  A    between atoms: N1_6  and  C4_7 
REMARK    4  A    between atoms: N2_11  and  C8_12 
ROOT
HETATM    1  C4  UNL     1      25.646   2.125  52.466  1.00  0.00     0.037 A 
HETATM    2  C5  UNL     1      25.058   2.704  53.501  1.00  0.00     0.028 A 
HETATM    3  C6  UNL     1      23.993   3.667  53.259  1.00  0.00     0.019 A 
HETATM    4  C7  UNL     1      23.570   4.004  52.053  1.00  0.00     0.093 A 
HETATM    5  N2  UNL     1      24.233   3.353  50.975  1.00  0.00    -0.333 N 
HETATM    6  C13 UNL     1      25.301   2.380  51.046  1.00  0.00     0.136 A 
HETATM    7  C14 UNL     1      26.472   2.975  50.310  1.00  0.00     0.039 C 
ENDROOT
BRANCH   5   8
HETATM    8  C8  UNL     1      23.820   3.675  49.632  1.00  0.00     0.132 C 
HETATM    9  N3  UNL     1      24.069   4.926  49.442  1.00  0.00    -0.226 NA
HETATM   10  C9  UNL     1      23.957   5.932  48.441  1.00  0.00     0.234 C 
HETATM   11  N4  UNL     1      23.115   6.075  47.472  1.00  0.00    -0.252 NA
HETATM   12  C10 UNL     1      21.999   5.308  47.033  1.00  0.00     0.142 C 
HETATM   13  C11 UNL     1      21.475   4.108  47.338  1.00  0.00     0.154 C 
HETATM   14  O3  UNL     1      21.935   3.187  48.272  1.00  0.00    -0.354 OA
HETATM   15  C12 UNL     1      23.228   2.725  48.681  1.00  0.00     0.253 C 
ENDBRANCH   5   8
BRANCH   1  16
HETATM   16  N1  UNL     1      26.643   1.233  52.940  1.00  0.00    -0.304 N 
HETATM   17  C3  UNL     1      26.443   0.057  53.693  1.00  0.00     0.364 C 
HETATM   18  O2  UNL     1      25.507  -0.617  54.192  1.00  0.00    -0.238 OA
HETATM   19  H6  UNL     1      27.652   1.440  52.726  1.00  0.00     0.171 HD
BRANCH  17  20
HETATM   20  O1  UNL     1      27.493  -0.748  54.110  1.00  0.00    -0.304 OA
BRANCH  20  21
HETATM   21  C2  UNL     1      28.775  -0.221  54.392  1.00  0.00     0.176 C 
HETATM   22  C1  UNL     1      29.848  -0.868  53.543  1.00  0.00     0.034 C 
ENDBRANCH  20  21
ENDBRANCH  17  20
ENDBRANCH   1  16
TORSDOF 4
ENDMDL
MODEL 9
REMARK VINA RESULT:      -6.1      3.062      3.918
REMARK  4 active torsions:
REMARK  status: ('A' for Active; 'I' for Inactive)
REMARK    1  A    between atoms: C2_2  and  O1_3 
REMARK    2  A    between atoms: O1_3  and  C3_4 
REMARK       I    between atoms: C3_4  and  N1_6 
REMARK    3  A    between atoms: N1_6  and  C4_7 
REMARK    4  A    between atoms: N2_11  and  C8_12 
ROOT
HETATM    1  C4  UNL     1      19.986   0.285  51.693  1.00  0.00     0.037 A 
HETATM    2  C5  UNL     1      20.110   0.802  50.481  1.00  0.00     0.028 A 
HETATM    3  C6  UNL     1      21.408   1.311  50.062  1.00  0.00     0.019 A 
HETATM    4  C7  UNL     1      22.486   1.290  50.828  1.00  0.00     0.093 A 
HETATM    5  N2  UNL     1      22.300   0.725  52.120  1.00  0.00    -0.333 N 
HETATM    6  C13 UNL     1      21.084   0.179  52.684  1.00  0.00     0.136 A 
HETATM    7  C14 UNL     1      20.778   0.995  53.912  1.00  0.00     0.039 C 
ENDROOT
BRANCH   5   8
HETATM    8  C8  UNL     1      23.434   0.670  53.007  1.00  0.00     0.132 C 
HETATM    9  N3  UNL     1      23.968   1.844  53.022  1.00  0.00    -0.226 NA
HETATM   10  C9  UNL     1      25.051   2.555  53.613  1.00  0.00     0.234 C 
HETATM   11  N4  UNL     1      26.211   2.155  54.014  1.00  0.00    -0.252 NA
HETATM   12  C10 UNL     1      26.849   0.882  54.026  1.00  0.00     0.142 C 
HETATM   13  C11 UNL     1      26.476  -0.384  53.772  1.00  0.00     0.154 C 
HETATM   14  O3  UNL     1      25.224  -0.845  53.385  1.00  0.00    -0.354 OA
HETATM   15  C12 UNL     1      23.875  -0.522  53.742  1.00  0.00     0.253 C 
ENDBRANCH   5   8
BRANCH   1  16
HETATM   16  N1  UNL     1      18.645  -0.142  51.878  1.00  0.00    -0.304 N 
HETATM   17  C3  UNL     1      18.183  -1.121  52.782  1.00  0.00     0.364 C 
HETATM   18  O2  UNL     1      18.624  -1.906  53.659  1.00  0.00    -0.238 OA
HETATM   19  H6  UNL     1      17.888   0.296  51.294  1.00  0.00     0.171 HD
BRANCH  17  20
HETATM   20  O1  UNL     1      16.843  -1.468  52.883  1.00  0.00    -0.304 OA
BRANCH  20  21
HETATM   21  C2  UNL     1      15.807  -0.540  52.624  1.00  0.00     0.176 C 
HETATM   22  C1  UNL     1      14.637  -1.189  51.915  1.00  0.00     0.034 C 
ENDBRANCH  20  21
ENDBRANCH  17  20
ENDBRANCH   1  16
TORSDOF 4
ENDMDL
