MODEL 1
REMARK VINA RESULT:      -8.2      0.000      0.000
REMARK  4 active torsions:
REMARK  status: ('A' for Active; 'I' for Inactive)
REMARK    1  A    between atoms: C7_7  and  C8_8 
REMARK    2  A    between atoms: C8_8  and  O1_9 
REMARK    3  A    between atoms: C10_13  and  N3_14 
REMARK    4  A    between atoms: N3_14  and  C12_16 
ROOT
HETATM    1  C1  UNL     1      20.359   0.897  50.548  1.00  0.00     0.049 C 
HETATM    2  C2  UNL     1      20.829   0.262  51.811  1.00  0.00    -0.053 A 
HETATM    3  C3  UNL     1      22.166   0.178  52.181  1.00  0.00     0.023 A 
HETATM    4  C4  UNL     1      22.524  -0.425  53.365  1.00  0.00     0.019 A 
HETATM    5  C5  UNL     1      21.511  -0.930  54.149  1.00  0.00     0.089 A 
HETATM    6  C6  UNL     1      20.177  -0.855  53.798  1.00  0.00     0.044 A 
HETATM    7  C7  UNL     1      19.824  -0.249  52.606  1.00  0.00    -0.027 A 
HETATM    8  N1  UNL     1      21.787  -1.515  55.284  1.00  0.00    -0.179 NA
HETATM    9  N2  UNL     1      23.096  -1.636  55.712  1.00  0.00    -0.308 N 
HETATM   10  C9  UNL     1      24.222  -1.135  54.969  1.00  0.00     0.199 A 
HETATM   11  C10 UNL     1      23.805  -0.491  53.696  1.00  0.00     0.043 A 
HETATM   12  H9  UNL     1      23.361  -2.108  56.620  1.00  0.00     0.182 HD
ENDROOT
BRANCH  11  13
HETATM   13  N3  UNL     1      24.853   0.030  52.890  1.00  0.00    -0.361 N 
HETATM   14  C11 UNL     1      25.098   1.280  52.195  1.00  0.00     0.155 C 
BRANCH  13  15
HETATM   15  C12 UNL     1      25.971  -0.822  52.661  1.00  0.00     0.102 C 
HETATM   16  C13 UNL     1      27.191  -0.608  53.123  1.00  0.00    -0.014 A 
HETATM   17  C14 UNL     1      28.253  -1.549  52.823  1.00  0.00     0.014 A 
HETATM   18  C17 UNL     1      27.487   0.566  53.932  1.00  0.00     0.062 A 
HETATM   19  C15 UNL     1      29.497  -1.435  53.229  1.00  0.00     0.008 A 
HETATM   20  C16 UNL     1      30.090  -0.369  54.053  1.00  0.00     0.049 A 
HETATM   21  S1  UNL     1      29.015   0.807  54.494  1.00  0.00    -0.113 SA
ENDBRANCH  13  15
ENDBRANCH  11  13
BRANCH   7  22
HETATM   22  C8  UNL     1      18.387  -0.172  52.236  1.00  0.00     0.203 C 
BRANCH  22  23
HETATM   23  O1  UNL     1      17.612  -0.960  53.089  1.00  0.00    -0.396 OA
HETATM   24  H8  UNL     1      16.696  -0.574  53.158  1.00  0.00     0.209 HD
ENDBRANCH  22  23
ENDBRANCH   7  22
TORSDOF 4
ENDMDL
MODEL 2
REMARK VINA RESULT:      -8.0      3.898      5.764
REMARK  4 active torsions:
REMARK  status: ('A' for Active; 'I' for Inactive)
REMARK    1  A    between atoms: C7_7  and  C8_8 
REMARK    2  A    between atoms: C8_8  and  O1_9 
REMARK    3  A    between atoms: C10_13  and  N3_14 
REMARK    4  A    between atoms: N3_14  and  C12_16 
ROOT
HETATM    1  C1  UNL     1      20.693   0.337  53.172  1.00  0.00     0.049 C 
HETATM    2  C2  UNL     1      22.179   0.411  53.087  1.00  0.00    -0.053 A 
HETATM    3  C3  UNL     1      22.861   1.268  52.231  1.00  0.00     0.023 A 
HETATM    4  C4  UNL     1      24.237   1.280  52.209  1.00  0.00     0.019 A 
HETATM    5  C5  UNL     1      24.891   0.416  53.060  1.00  0.00     0.089 A 
HETATM    6  C6  UNL     1      24.230  -0.442  53.917  1.00  0.00     0.044 A 
HETATM    7  C7  UNL     1      22.847  -0.449  53.934  1.00  0.00    -0.027 A 
HETATM    8  N1  UNL     1      26.196   0.379  53.084  1.00  0.00    -0.179 NA
HETATM    9  N2  UNL     1      26.938   1.202  52.257  1.00  0.00    -0.308 N 
HETATM   10  C9  UNL     1      26.349   2.142  51.341  1.00  0.00     0.199 A 
HETATM   11  C10 UNL     1      24.864   2.106  51.386  1.00  0.00     0.043 A 
HETATM   12  H9  UNL     1      27.995   1.197  52.243  1.00  0.00     0.182 HD
ENDROOT
BRANCH  11  13
HETATM   13  N3  UNL     1      24.193   3.000  50.507  1.00  0.00    -0.361 N 
HETATM   14  C11 UNL     1      23.446   2.866  49.271  1.00  0.00     0.155 C 
BRANCH  13  15
HETATM   15  C12 UNL     1      24.215   4.381  50.857  1.00  0.00     0.102 C 
HETATM   16  C13 UNL     1      25.010   5.285  50.312  1.00  0.00    -0.014 A 
HETATM   17  C14 UNL     1      24.942   6.665  50.751  1.00  0.00     0.014 A 
HETATM   18  C17 UNL     1      25.960   4.913  49.272  1.00  0.00     0.062 A 
HETATM   19  C15 UNL     1      25.684   7.642  50.280  1.00  0.00     0.008 A 
HETATM   20  C16 UNL     1      26.719   7.576  49.236  1.00  0.00     0.049 A 
HETATM   21  S1  UNL     1      26.937   6.060  48.612  1.00  0.00    -0.113 SA
ENDBRANCH  13  15
ENDBRANCH  11  13
BRANCH   7  22
HETATM   22  C8  UNL     1      22.143  -1.375  54.859  1.00  0.00     0.203 C 
BRANCH  22  23
HETATM   23  O1  UNL     1      23.017  -1.865  55.831  1.00  0.00    -0.396 OA
HETATM   24  H8  UNL     1      23.912  -2.027  55.423  1.00  0.00     0.209 HD
ENDBRANCH  22  23
ENDBRANCH   7  22
TORSDOF 4
ENDMDL
MODEL 3
REMARK VINA RESULT:      -7.8      4.062      7.114
REMARK  4 active torsions:
REMARK  status: ('A' for Active; 'I' for Inactive)
REMARK    1  A    between atoms: C7_7  and  C8_8 
REMARK    2  A    between atoms: C8_8  and  O1_9 
REMARK    3  A    between atoms: C10_13  and  N3_14 
REMARK    4  A    between atoms: N3_14  and  C12_16 
ROOT
HETATM    1  C1  UNL     1      28.449   2.498  53.464  1.00  0.00     0.049 C 
HETATM    2  C2  UNL     1      27.195   1.701  53.587  1.00  0.00    -0.053 A 
HETATM    3  C3  UNL     1      25.966   2.117  53.089  1.00  0.00     0.023 A 
HETATM    4  C4  UNL     1      24.850   1.325  53.242  1.00  0.00     0.019 A 
HETATM    5  C5  UNL     1      25.011   0.125  53.899  1.00  0.00     0.089 A 
HETATM    6  C6  UNL     1      26.225  -0.304  54.399  1.00  0.00     0.044 A 
HETATM    7  C7  UNL     1      27.342   0.496  54.243  1.00  0.00    -0.027 A 
HETATM    8  N1  UNL     1      23.989  -0.670  54.076  1.00  0.00    -0.179 NA
HETATM    9  N2  UNL     1      22.737  -0.317  53.610  1.00  0.00    -0.308 N 
HETATM   10  C9  UNL     1      22.469   0.909  52.906  1.00  0.00     0.199 A 
HETATM   11  C10 UNL     1      23.690   1.742  52.758  1.00  0.00     0.043 A 
HETATM   12  H9  UNL     1      21.884  -0.930  53.739  1.00  0.00     0.182 HD
ENDROOT
BRANCH  11  13
HETATM   13  N3  UNL     1      23.521   2.979  52.079  1.00  0.00    -0.361 N 
HETATM   14  C11 UNL     1      23.215   4.341  52.473  1.00  0.00     0.155 C 
BRANCH  13  15
HETATM   15  C12 UNL     1      23.673   2.959  50.662  1.00  0.00     0.102 C 
HETATM   16  C13 UNL     1      22.675   2.906  49.797  1.00  0.00    -0.014 A 
HETATM   17  C14 UNL     1      22.953   2.890  48.374  1.00  0.00     0.014 A 
HETATM   18  C17 UNL     1      21.292   2.863  50.254  1.00  0.00     0.062 A 
HETATM   19  C15 UNL     1      22.041   2.839  47.429  1.00  0.00     0.008 A 
HETATM   20  C16 UNL     1      20.578   2.788  47.580  1.00  0.00     0.049 A 
HETATM   21  S1  UNL     1      20.071   2.798  49.154  1.00  0.00    -0.113 SA
ENDBRANCH  13  15
ENDBRANCH  11  13
BRANCH   7  22
HETATM   22  C8  UNL     1      28.644   0.028  54.784  1.00  0.00     0.203 C 
BRANCH  22  23
HETATM   23  O1  UNL     1      29.054  -1.145  54.146  1.00  0.00    -0.396 OA
HETATM   24  H8  UNL     1      29.356  -1.806  54.828  1.00  0.00     0.209 HD
ENDBRANCH  22  23
ENDBRANCH   7  22
TORSDOF 4
ENDMDL
MODEL 4
REMARK VINA RESULT:      -7.8      3.831      6.340
REMARK  4 active torsions:
REMARK  status: ('A' for Active; 'I' for Inactive)
REMARK    1  A    between atoms: C7_7  and  C8_8 
REMARK    2  A    between atoms: C8_8  and  O1_9 
REMARK    3  A    between atoms: C10_13  and  N3_14 
REMARK    4  A    between atoms: N3_14  and  C12_16 
ROOT
HETATM    1  C1  UNL     1      20.771   0.638  53.931  1.00  0.00     0.049 C 
HETATM    2  C2  UNL     1      22.199   0.610  53.505  1.00  0.00    -0.053 A 
HETATM    3  C3  UNL     1      22.805   1.622  52.771  1.00  0.00     0.023 A 
HETATM    4  C4  UNL     1      24.131   1.525  52.414  1.00  0.00     0.019 A 
HETATM    5  C5  UNL     1      24.812   0.396  52.814  1.00  0.00     0.089 A 
HETATM    6  C6  UNL     1      24.226  -0.619  53.544  1.00  0.00     0.044 A 
HETATM    7  C7  UNL     1      22.893  -0.516  53.899  1.00  0.00    -0.027 A 
HETATM    8  N1  UNL     1      26.072   0.245  52.504  1.00  0.00    -0.179 NA
HETATM    9  N2  UNL     1      26.737   1.211  51.773  1.00  0.00    -0.308 N 
HETATM   10  C9  UNL     1      26.115   2.426  51.316  1.00  0.00     0.199 A 
HETATM   11  C10 UNL     1      24.686   2.503  51.715  1.00  0.00     0.043 A 
HETATM   12  H9  UNL     1      27.754   1.123  51.497  1.00  0.00     0.182 HD
ENDROOT
BRANCH  11  13
HETATM   13  N3  UNL     1      23.986   3.669  51.302  1.00  0.00    -0.361 N 
HETATM   14  C11 UNL     1      23.401   4.815  51.973  1.00  0.00     0.155 C 
BRANCH  13  15
HETATM   15  C12 UNL     1      23.764   3.823  49.904  1.00  0.00     0.102 C 
HETATM   16  C13 UNL     1      22.644   3.504  49.277  1.00  0.00    -0.014 A 
HETATM   17  C14 UNL     1      22.535   3.705  47.846  1.00  0.00     0.014 A 
HETATM   18  C17 UNL     1      21.512   2.950  50.008  1.00  0.00     0.062 A 
HETATM   19  C15 UNL     1      21.472   3.424  47.125  1.00  0.00     0.008 A 
HETATM   20  C16 UNL     1      20.190   2.861  47.577  1.00  0.00     0.049 A 
HETATM   21  S1  UNL     1      20.131   2.562  49.203  1.00  0.00    -0.113 SA
ENDBRANCH  13  15
ENDBRANCH  11  13
BRANCH   7  22
HETATM   22  C8  UNL     1      22.271  -1.612  54.685  1.00  0.00     0.203 C 
BRANCH  22  23
HETATM   23  O1  UNL     1      22.974  -1.836  55.870  1.00  0.00    -0.396 OA
HETATM   24  H8  UNL     1      23.952  -1.734  55.701  1.00  0.00     0.209 HD
ENDBRANCH  22  23
ENDBRANCH   7  22
TORSDOF 4
ENDMDL
MODEL 5
REMARK VINA RESULT:      -7.6      4.889      7.809
REMARK  4 active torsions:
REMARK  status: ('A' for Active; 'I' for Inactive)
REMARK    1  A    between atoms: C7_7  and  C8_8 
REMARK    2  A    between atoms: C8_8  and  O1_9 
REMARK    3  A    between atoms: C10_13  and  N3_14 
REMARK    4  A    between atoms: N3_14  and  C12_16 
ROOT
HETATM    1  C1  UNL     1      23.028  -0.309  53.282  1.00  0.00     0.049 C 
HETATM    2  C2  UNL     1      24.038   0.597  52.665  1.00  0.00    -0.053 A 
HETATM    3  C3  UNL     1      23.715   1.645  51.813  1.00  0.00     0.023 A 
HETATM    4  C4  UNL     1      24.704   2.441  51.282  1.00  0.00     0.019 A 
HETATM    5  C5  UNL     1      26.005   2.150  51.631  1.00  0.00     0.089 A 
HETATM    6  C6  UNL     1      26.345   1.113  52.477  1.00  0.00     0.044 A 
HETATM    7  C7  UNL     1      25.345   0.317  53.007  1.00  0.00    -0.027 A 
HETATM    8  N1  UNL     1      26.989   2.868  51.158  1.00  0.00    -0.179 NA
HETATM    9  N2  UNL     1      26.739   3.925  50.302  1.00  0.00    -0.308 N 
HETATM   10  C9  UNL     1      25.417   4.311  49.885  1.00  0.00     0.199 A 
HETATM   11  C10 UNL     1      24.371   3.435  50.472  1.00  0.00     0.043 A 
HETATM   12  H9  UNL     1      27.508   4.525  49.893  1.00  0.00     0.182 HD
ENDROOT
BRANCH  11  13
HETATM   13  N3  UNL     1      23.030   3.738  50.111  1.00  0.00    -0.361 N 
HETATM   14  C11 UNL     1      21.932   4.457  50.727  1.00  0.00     0.155 C 
BRANCH  13  15
HETATM   15  C12 UNL     1      22.580   3.250  48.851  1.00  0.00     0.102 C 
HETATM   16  C13 UNL     1      22.418   3.991  47.768  1.00  0.00    -0.014 A 
HETATM   17  C14 UNL     1      21.952   3.381  46.538  1.00  0.00     0.014 A 
HETATM   18  C17 UNL     1      22.702   5.420  47.792  1.00  0.00     0.062 A 
HETATM   19  C15 UNL     1      21.758   4.021  45.407  1.00  0.00     0.008 A 
HETATM   20  C16 UNL     1      21.957   5.451  45.126  1.00  0.00     0.049 A 
HETATM   21  S1  UNL     1      22.492   6.317  46.430  1.00  0.00    -0.113 SA
ENDBRANCH  13  15
ENDBRANCH  11  13
BRANCH   7  22
HETATM   22  C8  UNL     1      25.719  -0.797  53.916  1.00  0.00     0.203 C 
BRANCH  22  23
HETATM   23  O1  UNL     1      26.750  -0.412  54.776  1.00  0.00    -0.396 OA
HETATM   24  H8  UNL     1      26.663  -0.901  55.640  1.00  0.00     0.209 HD
ENDBRANCH  22  23
ENDBRANCH   7  22
TORSDOF 4
ENDMDL
MODEL 6
REMARK VINA RESULT:      -7.5      3.659      6.321
REMARK  4 active torsions:
REMARK  status: ('A' for Active; 'I' for Inactive)
REMARK    1  A    between atoms: C7_7  and  C8_8 
REMARK    2  A    between atoms: C8_8  and  O1_9 
REMARK    3  A    between atoms: C10_13  and  N3_14 
REMARK    4  A    between atoms: N3_14  and  C12_16 
ROOT
HETATM    1  C1  UNL     1      26.746   1.251  51.715  1.00  0.00     0.049 C 
HETATM    2  C2  UNL     1      25.671   0.631  52.540  1.00  0.00    -0.053 A 
HETATM    3  C3  UNL     1      24.317   0.734  52.245  1.00  0.00     0.023 A 
HETATM    4  C4  UNL     1      23.380   0.132  53.054  1.00  0.00     0.019 A 
HETATM    5  C5  UNL     1      23.845  -0.563  54.150  1.00  0.00     0.089 A 
HETATM    6  C6  UNL     1      25.186  -0.676  54.457  1.00  0.00     0.044 A 
HETATM    7  C7  UNL     1      26.122  -0.069  53.640  1.00  0.00    -0.027 A 
HETATM    8  N1  UNL     1      23.005  -1.154  54.957  1.00  0.00    -0.179 NA
HETATM    9  N2  UNL     1      21.643  -1.090  54.725  1.00  0.00    -0.308 N 
HETATM   10  C9  UNL     1      21.062  -0.395  53.607  1.00  0.00     0.199 A 
HETATM   11  C10 UNL     1      22.096   0.244  52.752  1.00  0.00     0.043 A 
HETATM   12  H9  UNL     1      20.932  -1.549  55.358  1.00  0.00     0.182 HD
ENDROOT
BRANCH  11  13
HETATM   13  N3  UNL     1      21.614   0.960  51.622  1.00  0.00    -0.361 N 
HETATM   14  C11 UNL     1      21.437   0.667  50.213  1.00  0.00     0.155 C 
BRANCH  13  15
HETATM   15  C12 UNL     1      21.182   2.298  51.847  1.00  0.00     0.102 C 
HETATM   16  C13 UNL     1      21.826   3.378  51.441  1.00  0.00    -0.014 A 
HETATM   17  C14 UNL     1      21.288   4.693  51.730  1.00  0.00     0.014 A 
HETATM   18  C17 UNL     1      23.077   3.267  50.702  1.00  0.00     0.062 A 
HETATM   19  C15 UNL     1      21.844   5.829  51.374  1.00  0.00     0.008 A 
HETATM   20  C16 UNL     1      23.095   6.034  50.628  1.00  0.00     0.049 A 
HETATM   21  S1  UNL     1      23.858   4.628  50.209  1.00  0.00    -0.113 SA
ENDBRANCH  13  15
ENDBRANCH  11  13
BRANCH   7  22
HETATM   22  C8  UNL     1      27.563  -0.196  53.978  1.00  0.00     0.203 C 
BRANCH  22  23
HETATM   23  O1  UNL     1      27.901   0.651  55.035  1.00  0.00    -0.396 OA
HETATM   24  H8  UNL     1      28.801   0.404  55.385  1.00  0.00     0.209 HD
ENDBRANCH  22  23
ENDBRANCH   7  22
TORSDOF 4
ENDMDL
MODEL 7
REMARK VINA RESULT:      -7.5      6.121      8.398
REMARK  4 active torsions:
REMARK  status: ('A' for Active; 'I' for Inactive)
REMARK    1  A    between atoms: C7_7  and  C8_8 
REMARK    2  A    between atoms: C8_8  and  O1_9 
REMARK    3  A    between atoms: C10_13  and  N3_14 
REMARK    4  A    between atoms: N3_14  and  C12_16 
ROOT
HETATM    1  C1  UNL     1      28.134   5.866  48.136  1.00  0.00     0.049 C 
HETATM    2  C2  UNL     1      26.949   6.244  48.958  1.00  0.00    -0.053 A 
HETATM    3  C3  UNL     1      25.950   5.351  49.327  1.00  0.00     0.023 A 
HETATM    4  C4  UNL     1      24.885   5.775  50.088  1.00  0.00     0.019 A 
HETATM    5  C5  UNL     1      24.860   7.102  50.458  1.00  0.00     0.089 A 
HETATM    6  C6  UNL     1      25.843   8.003  50.100  1.00  0.00     0.044 A 
HETATM    7  C7  UNL     1      26.911   7.571  49.335  1.00  0.00    -0.027 A 
HETATM    8  N1  UNL     1      23.873   7.565  51.179  1.00  0.00    -0.179 NA
HETATM    9  N2  UNL     1      22.845   6.733  51.579  1.00  0.00    -0.308 N 
HETATM   10  C9  UNL     1      22.785   5.333  51.250  1.00  0.00     0.199 A 
HETATM   11  C10 UNL     1      23.946   4.905  50.429  1.00  0.00     0.043 A 
HETATM   12  H9  UNL     1      22.026   7.071  52.157  1.00  0.00     0.182 HD
ENDROOT
BRANCH  11  13
HETATM   13  N3  UNL     1      23.970   3.535  50.050  1.00  0.00    -0.361 N 
HETATM   14  C11 UNL     1      23.417   2.755  48.959  1.00  0.00     0.155 C 
BRANCH  13  15
HETATM   15  C12 UNL     1      24.691   2.648  50.900  1.00  0.00     0.102 C 
HETATM   16  C13 UNL     1      24.138   1.791  51.740  1.00  0.00    -0.014 A 
HETATM   17  C14 UNL     1      24.977   0.936  52.557  1.00  0.00     0.014 A 
HETATM   18  C17 UNL     1      22.689   1.692  51.860  1.00  0.00     0.062 A 
HETATM   19  C15 UNL     1      24.535   0.051  53.422  1.00  0.00     0.008 A 
HETATM   20  C16 UNL     1      23.139  -0.272  53.758  1.00  0.00     0.049 A 
HETATM   21  S1  UNL     1      22.029   0.616  52.914  1.00  0.00    -0.113 SA
ENDBRANCH  13  15
ENDBRANCH  11  13
BRANCH   7  22
HETATM   22  C8  UNL     1      27.965   8.546  48.954  1.00  0.00     0.203 C 
BRANCH  22  23
HETATM   23  O1  UNL     1      28.543   9.121  50.088  1.00  0.00    -0.396 OA
HETATM   24  H8  UNL     1      28.364   8.544  50.881  1.00  0.00     0.209 HD
ENDBRANCH  22  23
ENDBRANCH   7  22
TORSDOF 4
ENDMDL
MODEL 8
REMARK VINA RESULT:      -7.3      3.520      6.324
REMARK  4 active torsions:
REMARK  status: ('A' for Active; 'I' for Inactive)
REMARK    1  A    between atoms: C7_7  and  C8_8 
REMARK    2  A    between atoms: C8_8  and  O1_9 
REMARK    3  A    between atoms: C10_13  and  N3_14 
REMARK    4  A    between atoms: N3_14  and  C12_16 
ROOT
HETATM    1  C1  UNL     1      24.531   0.300  53.202  1.00  0.00     0.049 C 
HETATM    2  C2  UNL     1      23.063   0.049  53.167  1.00  0.00    -0.053 A 
HETATM    3  C3  UNL     1      22.234   0.466  52.132  1.00  0.00     0.023 A 
HETATM    4  C4  UNL     1      20.885   0.196  52.170  1.00  0.00     0.019 A 
HETATM    5  C5  UNL     1      20.408  -0.494  53.262  1.00  0.00     0.089 A 
HETATM    6  C6  UNL     1      21.217  -0.917  54.298  1.00  0.00     0.044 A 
HETATM    7  C7  UNL     1      22.572  -0.643  54.255  1.00  0.00    -0.027 A 
HETATM    8  N1  UNL     1      19.136  -0.779  53.356  1.00  0.00    -0.179 NA
HETATM    9  N2  UNL     1      18.255  -0.391  52.364  1.00  0.00    -0.308 N 
HETATM   10  C9  UNL     1      18.656   0.327  51.183  1.00  0.00     0.199 A 
HETATM   11  C10 UNL     1      20.116   0.604  51.171  1.00  0.00     0.043 A 
HETATM   12  H9  UNL     1      17.219  -0.597  52.407  1.00  0.00     0.182 HD
ENDROOT
BRANCH  11  13
HETATM   13  N3  UNL     1      20.605   1.316  50.042  1.00  0.00    -0.361 N 
HETATM   14  C11 UNL     1      21.460   1.001  48.914  1.00  0.00     0.155 C 
BRANCH  13  15
HETATM   15  C12 UNL     1      20.204   2.677  49.919  1.00  0.00     0.102 C 
HETATM   16  C13 UNL     1      20.939   3.716  50.276  1.00  0.00    -0.014 A 
HETATM   17  C14 UNL     1      20.422   5.060  50.102  1.00  0.00     0.014 A 
HETATM   18  C17 UNL     1      22.267   3.531  50.844  1.00  0.00     0.062 A 
HETATM   19  C15 UNL     1      21.065   6.161  50.421  1.00  0.00     0.008 A 
HETATM   20  C16 UNL     1      22.408   6.291  51.007  1.00  0.00     0.049 A 
HETATM   21  S1  UNL     1      23.159   4.843  51.279  1.00  0.00    -0.113 SA
ENDBRANCH  13  15
ENDBRANCH  11  13
BRANCH   7  22
HETATM   22  C8  UNL     1      23.435  -1.101  55.374  1.00  0.00     0.203 C 
BRANCH  22  23
HETATM   23  O1  UNL     1      22.947  -2.289  55.923  1.00  0.00    -0.396 OA
HETATM   24  H8  UNL     1      22.137  -2.580  55.421  1.00  0.00     0.209 HD
ENDBRANCH  22  23
ENDBRANCH   7  22
TORSDOF 4
ENDMDL
MODEL 9
REMARK VINA RESULT:      -7.3      3.340      6.138
REMARK  4 active torsions:
REMARK  status: ('A' for Active; 'I' for Inactive)
REMARK    1  A    between atoms: C7_7  and  C8_8 
REMARK    2  A    between atoms: C8_8  and  O1_9 
REMARK    3  A    between atoms: C10_13  and  N3_14 
REMARK    4  A    between atoms: N3_14  and  C12_16 
ROOT
HETATM    1  C1  UNL     1      25.082   1.612  52.552  1.00  0.00     0.049 C 
HETATM    2  C2  UNL     1      23.979   0.752  53.066  1.00  0.00    -0.053 A 
HETATM    3  C3  UNL     1      22.652   0.882  52.673  1.00  0.00     0.023 A 
HETATM    4  C4  UNL     1      21.687   0.050  53.192  1.00  0.00     0.019 A 
HETATM    5  C5  UNL     1      22.095  -0.900  54.104  1.00  0.00     0.089 A 
HETATM    6  C6  UNL     1      23.408  -1.044  54.506  1.00  0.00     0.044 A 
HETATM    7  C7  UNL     1      24.373  -0.204  53.980  1.00  0.00    -0.027 A 
HETATM    8  N1  UNL     1      21.225  -1.718  54.634  1.00  0.00    -0.179 NA
HETATM    9  N2  UNL     1      19.889  -1.642  54.290  1.00  0.00    -0.308 N 
HETATM   10  C9  UNL     1      19.367  -0.691  53.344  1.00  0.00     0.199 A 
HETATM   11  C10 UNL     1      20.430   0.193  52.801  1.00  0.00     0.043 A 
HETATM   12  H9  UNL     1      19.154  -2.281  54.701  1.00  0.00     0.182 HD
ENDROOT
BRANCH  11  13
HETATM   13  N3  UNL     1      20.006   1.171  51.860  1.00  0.00    -0.361 N 
HETATM   14  C11 UNL     1      19.228   2.393  51.920  1.00  0.00     0.155 C 
BRANCH  13  15
HETATM   15  C12 UNL     1      20.401   0.971  50.506  1.00  0.00     0.102 C 
HETATM   16  C13 UNL     1      21.120   1.823  49.796  1.00  0.00    -0.014 A 
HETATM   17  C14 UNL     1      21.461   1.510  48.422  1.00  0.00     0.014 A 
HETATM   18  C17 UNL     1      21.576   3.079  50.375  1.00  0.00     0.062 A 
HETATM   19  C15 UNL     1      22.168   2.282  47.627  1.00  0.00     0.008 A 
HETATM   20  C16 UNL     1      22.760   3.596  47.926  1.00  0.00     0.049 A 
HETATM   21  S1  UNL     1      22.469   4.121  49.467  1.00  0.00    -0.113 SA
ENDBRANCH  13  15
ENDBRANCH  11  13
BRANCH   7  22
HETATM   22  C8  UNL     1      25.783  -0.366  54.418  1.00  0.00     0.203 C 
BRANCH  22  23
HETATM   23  O1  UNL     1      25.845  -0.837  55.730  1.00  0.00    -0.396 OA
HETATM   24  H8  UNL     1      25.204  -1.591  55.844  1.00  0.00     0.209 HD
ENDBRANCH  22  23
ENDBRANCH   7  22
TORSDOF 4
ENDMDL
