MODEL 1
REMARK VINA RESULT:      -7.4      0.000      0.000
REMARK  5 active torsions:
REMARK  status: ('A' for Active; 'I' for Inactive)
REMARK    1  A    between atoms: C2_2  and  C3_3 
REMARK    2  A    between atoms: C4_4  and  C5_5 
REMARK    3  A    between atoms: N1_6  and  S1_7 
REMARK    4  A    between atoms: C8_13  and  N4_14 
REMARK    5  A    between atoms: N4_14  and  C9_15 
ROOT
HETATM    1  C3  UNL     1      23.603   0.062  53.567  1.00  0.00     0.018 A 
HETATM    2  C4  UNL     1      24.724  -0.524  54.123  1.00  0.00     0.086 A 
HETATM    3  N2  UNL     1      24.592  -1.362  55.196  1.00  0.00    -0.240 NA
HETATM    4  C7  UNL     1      23.345  -1.602  55.699  1.00  0.00     0.236 A 
HETATM    5  N3  UNL     1      22.278  -1.021  55.140  1.00  0.00    -0.224 NA
HETATM    6  C8  UNL     1      22.334  -0.195  54.091  1.00  0.00     0.138 A 
ENDROOT
BRANCH   6   7
HETATM    7  N4  UNL     1      21.232   0.430  53.463  1.00  0.00    -0.340 N 
HETATM    8  H11 UNL     1      21.283   1.439  53.216  1.00  0.00     0.167 HD
BRANCH   7   9
HETATM    9  C9  UNL     1      20.010  -0.140  53.099  1.00  0.00     0.035 A 
HETATM   10  C10 UNL     1      19.364  -1.133  53.799  1.00  0.00     0.029 A 
HETATM   11  C11 UNL     1      18.160  -1.691  53.434  1.00  0.00     0.004 A 
HETATM   12  C12 UNL     1      17.520  -1.271  52.312  1.00  0.00     0.019 A 
HETATM   13  C13 UNL     1      18.109  -0.285  51.569  1.00  0.00     0.013 A 
HETATM   14 BR1  UNL     1      17.247   0.330  49.993  1.00  0.00    -0.051 Br
HETATM   15  C14 UNL     1      19.295   0.229  51.977  1.00  0.00     0.048 A 
ENDBRANCH   7   9
ENDBRANCH   6   7
BRANCH   1  16
HETATM   16  C2  UNL     1      23.950   0.920  52.434  1.00  0.00     0.040 C 
HETATM   17  C1  UNL     1      24.025   2.381  52.781  1.00  0.00     0.010 C 
ENDBRANCH   1  16
BRANCH   2  18
HETATM   18  C5  UNL     1      26.096  -0.337  53.668  1.00  0.00     0.160 C 
HETATM   19  N1  UNL     1      26.714  -0.151  54.788  1.00  0.00    -0.198 NA
BRANCH  19  20
HETATM   20  S1  UNL     1      28.433   0.121  54.724  1.00  0.00     0.132 S 
HETATM   21  C6  UNL     1      28.797   1.590  53.745  1.00  0.00     0.154 C 
HETATM   22  O1  UNL     1      29.060  -1.102  54.059  1.00  0.00    -0.234 OA
ENDBRANCH  19  20
ENDBRANCH   2  18
TORSDOF 5
ENDMDL
MODEL 2
REMARK VINA RESULT:      -7.4      4.722      7.698
REMARK  5 active torsions:
REMARK  status: ('A' for Active; 'I' for Inactive)
REMARK    1  A    between atoms: C2_2  and  C3_3 
REMARK    2  A    between atoms: C4_4  and  C5_5 
REMARK    3  A    between atoms: N1_6  and  S1_7 
REMARK    4  A    between atoms: C8_13  and  N4_14 
REMARK    5  A    between atoms: N4_14  and  C9_15 
ROOT
HETATM    1  C3  UNL     1      22.514   0.297  53.216  1.00  0.00     0.018 A 
HETATM    2  C4  UNL     1      21.492  -0.236  53.978  1.00  0.00     0.086 A 
HETATM    3  N2  UNL     1      21.787  -1.077  55.016  1.00  0.00    -0.240 NA
HETATM    4  C7  UNL     1      23.095  -1.374  55.278  1.00  0.00     0.236 A 
HETATM    5  N3  UNL     1      24.062  -0.842  54.523  1.00  0.00    -0.224 NA
HETATM    6  C8  UNL     1      23.846  -0.014  53.496  1.00  0.00     0.138 A 
ENDROOT
BRANCH   6   7
HETATM    7  N4  UNL     1      24.838   0.578  52.681  1.00  0.00    -0.340 N 
HETATM    8  H11 UNL     1      24.597   0.886  51.717  1.00  0.00     0.167 HD
BRANCH   7   9
HETATM    9  C9  UNL     1      26.174   0.832  52.997  1.00  0.00     0.035 A 
HETATM   10  C10 UNL     1      26.701   2.077  53.257  1.00  0.00     0.029 A 
HETATM   11  C11 UNL     1      28.019   2.320  53.568  1.00  0.00     0.004 A 
HETATM   12  C12 UNL     1      28.909   1.296  53.636  1.00  0.00     0.019 A 
HETATM   13  C13 UNL     1      28.451   0.031  53.387  1.00  0.00     0.013 A 
HETATM   14 BR1  UNL     1      29.663  -1.428  53.471  1.00  0.00    -0.051 Br
HETATM   15  C14 UNL     1      27.141  -0.149  53.087  1.00  0.00     0.048 A 
ENDBRANCH   7   9
ENDBRANCH   6   7
BRANCH   1  16
HETATM   16  C2  UNL     1      21.997   1.168  52.159  1.00  0.00     0.040 C 
HETATM   17  C1  UNL     1      21.861   0.487  50.826  1.00  0.00     0.010 C 
ENDBRANCH   1  16
BRANCH   2  18
HETATM   18  C5  UNL     1      20.069   0.011  53.788  1.00  0.00     0.160 C 
HETATM   19  N1  UNL     1      19.619  -1.191  53.631  1.00  0.00    -0.198 NA
BRANCH  19  20
HETATM   20  S1  UNL     1      17.908  -1.380  53.365  1.00  0.00     0.132 S 
HETATM   21  C6  UNL     1      17.442  -3.115  53.507  1.00  0.00     0.154 C 
HETATM   22  O1  UNL     1      17.612  -0.887  51.951  1.00  0.00    -0.234 OA
ENDBRANCH  19  20
ENDBRANCH   2  18
TORSDOF 5
ENDMDL
MODEL 3
REMARK VINA RESULT:      -7.3      4.964      7.763
REMARK  5 active torsions:
REMARK  status: ('A' for Active; 'I' for Inactive)
REMARK    1  A    between atoms: C2_2  and  C3_3 
REMARK    2  A    between atoms: C4_4  and  C5_5 
REMARK    3  A    between atoms: N1_6  and  S1_7 
REMARK    4  A    between atoms: C8_13  and  N4_14 
REMARK    5  A    between atoms: N4_14  and  C9_15 
ROOT
HETATM    1  C3  UNL     1      24.918   2.227  51.360  1.00  0.00     0.018 A 
HETATM    2  C4  UNL     1      24.733   1.681  52.616  1.00  0.00     0.086 A 
HETATM    3  N2  UNL     1      25.807   1.503  53.445  1.00  0.00    -0.240 NA
HETATM    4  C7  UNL     1      27.049   1.869  53.008  1.00  0.00     0.236 A 
HETATM    5  N3  UNL     1      27.197   2.394  51.787  1.00  0.00    -0.224 NA
HETATM    6  C8  UNL     1      26.193   2.597  50.928  1.00  0.00     0.138 A 
ENDROOT
BRANCH   6   7
HETATM    7  N4  UNL     1      26.304   3.159  49.635  1.00  0.00    -0.340 N 
HETATM    8  H11 UNL     1      26.125   2.568  48.799  1.00  0.00     0.167 HD
BRANCH   7   9
HETATM    9  C9  UNL     1      26.634   4.472  49.292  1.00  0.00     0.035 A 
HETATM   10  C10 UNL     1      27.766   4.846  48.603  1.00  0.00     0.029 A 
HETATM   11  C11 UNL     1      28.085   6.142  48.269  1.00  0.00     0.004 A 
HETATM   12  C12 UNL     1      27.263   7.165  48.617  1.00  0.00     0.019 A 
HETATM   13  C13 UNL     1      26.119   6.862  49.305  1.00  0.00     0.013 A 
HETATM   14 BR1  UNL     1      24.942   8.263  49.811  1.00  0.00    -0.051 Br
HETATM   15  C14 UNL     1      25.855   5.567  49.606  1.00  0.00     0.048 A 
ENDBRANCH   7   9
ENDBRANCH   6   7
BRANCH   1  16
HETATM   16  C2  UNL     1      23.654   2.336  50.631  1.00  0.00     0.040 C 
HETATM   17  C1  UNL     1      23.003   3.686  50.745  1.00  0.00     0.010 C 
ENDBRANCH   1  16
BRANCH   2  18
HETATM   18  C5  UNL     1      23.458   1.257  53.181  1.00  0.00     0.160 C 
HETATM   19  N1  UNL     1      23.705   0.021  53.470  1.00  0.00    -0.198 NA
BRANCH  19  20
HETATM   20  S1  UNL     1      22.420  -0.909  54.191  1.00  0.00     0.132 S 
HETATM   21  C6  UNL     1      20.943   0.106  54.378  1.00  0.00     0.154 C 
HETATM   22  O1  UNL     1      22.906  -1.360  55.567  1.00  0.00    -0.234 OA
ENDBRANCH  19  20
ENDBRANCH   2  18
TORSDOF 5
ENDMDL
MODEL 4
REMARK VINA RESULT:      -7.2      1.066      1.580
REMARK  5 active torsions:
REMARK  status: ('A' for Active; 'I' for Inactive)
REMARK    1  A    between atoms: C2_2  and  C3_3 
REMARK    2  A    between atoms: C4_4  and  C5_5 
REMARK    3  A    between atoms: N1_6  and  S1_7 
REMARK    4  A    between atoms: C8_13  and  N4_14 
REMARK    5  A    between atoms: N4_14  and  C9_15 
ROOT
HETATM    1  C3  UNL     1      23.642   0.376  53.306  1.00  0.00     0.018 A 
HETATM    2  C4  UNL     1      24.602  -0.416  53.906  1.00  0.00     0.086 A 
HETATM    3  N2  UNL     1      24.247  -1.262  54.921  1.00  0.00    -0.240 NA
HETATM    4  C7  UNL     1      22.942  -1.303  55.323  1.00  0.00     0.236 A 
HETATM    5  N3  UNL     1      22.035  -0.524  54.724  1.00  0.00    -0.224 NA
HETATM    6  C8  UNL     1      22.312   0.323  53.728  1.00  0.00     0.138 A 
ENDROOT
BRANCH   6   7
HETATM    7  N4  UNL     1      21.383   1.154  53.060  1.00  0.00    -0.340 N 
HETATM    8  H11 UNL     1      21.484   2.188  53.116  1.00  0.00     0.167 HD
BRANCH   7   9
HETATM    9  C9  UNL     1      20.286   0.773  52.285  1.00  0.00     0.035 A 
HETATM   10  C10 UNL     1      20.056   1.175  50.990  1.00  0.00     0.029 A 
HETATM   11  C11 UNL     1      18.972   0.795  50.232  1.00  0.00     0.004 A 
HETATM   12  C12 UNL     1      18.029  -0.035  50.750  1.00  0.00     0.019 A 
HETATM   13  C13 UNL     1      18.197  -0.473  52.035  1.00  0.00     0.013 A 
HETATM   14 BR1  UNL     1      16.901  -1.634  52.796  1.00  0.00    -0.051 Br
HETATM   15  C14 UNL     1      19.285  -0.066  52.734  1.00  0.00     0.048 A 
ENDBRANCH   7   9
ENDBRANCH   6   7
BRANCH   1  16
HETATM   16  C2  UNL     1      24.216   1.207  52.248  1.00  0.00     0.040 C 
HETATM   17  C1  UNL     1      24.460   2.632  52.660  1.00  0.00     0.010 C 
ENDBRANCH   1  16
BRANCH   2  18
HETATM   18  C5  UNL     1      26.016  -0.452  53.558  1.00  0.00     0.160 C 
HETATM   19  N1  UNL     1      26.563  -0.072  54.666  1.00  0.00    -0.198 NA
BRANCH  19  20
HETATM   20  S1  UNL     1      28.301   0.034  54.712  1.00  0.00     0.132 S 
HETATM   21  C6  UNL     1      28.856   1.539  53.893  1.00  0.00     0.154 C 
HETATM   22  O1  UNL     1      28.848  -1.182  53.968  1.00  0.00    -0.234 OA
ENDBRANCH  19  20
ENDBRANCH   2  18
TORSDOF 5
ENDMDL
MODEL 5
REMARK VINA RESULT:      -6.8      5.102      8.002
REMARK  5 active torsions:
REMARK  status: ('A' for Active; 'I' for Inactive)
REMARK    1  A    between atoms: C2_2  and  C3_3 
REMARK    2  A    between atoms: C4_4  and  C5_5 
REMARK    3  A    between atoms: N1_6  and  S1_7 
REMARK    4  A    between atoms: C8_13  and  N4_14 
REMARK    5  A    between atoms: N4_14  and  C9_15 
ROOT
HETATM    1  C3  UNL     1      21.584   0.444  52.819  1.00  0.00     0.018 A 
HETATM    2  C4  UNL     1      20.556   0.344  51.901  1.00  0.00     0.086 A 
HETATM    3  N2  UNL     1      20.767   0.715  50.601  1.00  0.00    -0.240 NA
HETATM    4  C7  UNL     1      21.999   1.182  50.237  1.00  0.00     0.236 A 
HETATM    5  N3  UNL     1      22.974   1.267  51.148  1.00  0.00    -0.224 NA
HETATM    6  C8  UNL     1      22.837   0.922  52.431  1.00  0.00     0.138 A 
ENDROOT
BRANCH   6   7
HETATM    7  N4  UNL     1      23.844   0.986  53.423  1.00  0.00    -0.340 N 
HETATM    8  H11 UNL     1      23.622   1.382  54.358  1.00  0.00     0.167 HD
BRANCH   7   9
HETATM    9  C9  UNL     1      25.173   0.567  53.329  1.00  0.00     0.035 A 
HETATM   10  C10 UNL     1      25.578  -0.712  53.025  1.00  0.00     0.029 A 
HETATM   11  C11 UNL     1      26.889  -1.118  52.935  1.00  0.00     0.004 A 
HETATM   12  C12 UNL     1      27.898  -0.235  53.153  1.00  0.00     0.019 A 
HETATM   13  C13 UNL     1      27.565   1.055  53.461  1.00  0.00     0.013 A 
HETATM   14 BR1  UNL     1      28.946   2.321  53.774  1.00  0.00    -0.051 Br
HETATM   15  C14 UNL     1      26.256   1.399  53.535  1.00  0.00     0.048 A 
ENDBRANCH   7   9
ENDBRANCH   6   7
BRANCH   1  16
HETATM   16  C2  UNL     1      21.162   0.001  54.148  1.00  0.00     0.040 C 
HETATM   17  C1  UNL     1      21.672  -1.362  54.522  1.00  0.00     0.010 C 
ENDBRANCH   1  16
BRANCH   2  18
HETATM   18  C5  UNL     1      19.209  -0.138  52.179  1.00  0.00     0.160 C 
HETATM   19  N1  UNL     1      18.530   0.446  51.246  1.00  0.00    -0.198 NA
BRANCH  19  20
HETATM   20  S1  UNL     1      16.815   0.147  51.192  1.00  0.00     0.132 S 
HETATM   21  C6  UNL     1      16.315  -0.879  52.586  1.00  0.00     0.154 C 
HETATM   22  O1  UNL     1      16.526  -0.591  49.887  1.00  0.00    -0.234 OA
ENDBRANCH  19  20
ENDBRANCH   2  18
TORSDOF 5
ENDMDL
MODEL 6
REMARK VINA RESULT:      -6.7      1.681      2.829
REMARK  5 active torsions:
REMARK  status: ('A' for Active; 'I' for Inactive)
REMARK    1  A    between atoms: C2_2  and  C3_3 
REMARK    2  A    between atoms: C4_4  and  C5_5 
REMARK    3  A    between atoms: N1_6  and  S1_7 
REMARK    4  A    between atoms: C8_13  and  N4_14 
REMARK    5  A    between atoms: N4_14  and  C9_15 
ROOT
HETATM    1  C3  UNL     1      22.979   0.483  53.212  1.00  0.00     0.018 A 
HETATM    2  C4  UNL     1      24.326   0.487  52.904  1.00  0.00     0.086 A 
HETATM    3  N2  UNL     1      24.787   1.266  51.878  1.00  0.00    -0.240 NA
HETATM    4  C7  UNL     1      23.897   2.028  51.174  1.00  0.00     0.236 A 
HETATM    5  N3  UNL     1      22.599   2.003  51.494  1.00  0.00    -0.224 NA
HETATM    6  C8  UNL     1      22.082   1.267  52.483  1.00  0.00     0.138 A 
ENDROOT
BRANCH   6   7
HETATM    7  N4  UNL     1      20.720   1.221  52.862  1.00  0.00    -0.340 N 
HETATM    8  H11 UNL     1      20.435   1.562  53.802  1.00  0.00     0.167 HD
BRANCH   7   9
HETATM    9  C9  UNL     1      19.633   0.761  52.115  1.00  0.00     0.035 A 
HETATM   10  C10 UNL     1      19.311   1.188  50.847  1.00  0.00     0.029 A 
HETATM   11  C11 UNL     1      18.238   0.731  50.117  1.00  0.00     0.004 A 
HETATM   12  C12 UNL     1      17.404  -0.208  50.635  1.00  0.00     0.019 A 
HETATM   13  C13 UNL     1      17.668  -0.676  51.893  1.00  0.00     0.013 A 
HETATM   14 BR1  UNL     1      16.527  -1.989  52.654  1.00  0.00    -0.051 Br
HETATM   15  C14 UNL     1      18.740  -0.190  52.566  1.00  0.00     0.048 A 
ENDBRANCH   7   9
ENDBRANCH   6   7
BRANCH   1  16
HETATM   16  C2  UNL     1      22.686  -0.410  54.334  1.00  0.00     0.040 C 
HETATM   17  C1  UNL     1      21.930  -1.648  53.942  1.00  0.00     0.010 C 
ENDBRANCH   1  16
BRANCH   2  18
HETATM   18  C5  UNL     1      25.357  -0.283  53.587  1.00  0.00     0.160 C 
HETATM   19  N1  UNL     1      26.288   0.604  53.730  1.00  0.00    -0.198 NA
BRANCH  19  20
HETATM   20  S1  UNL     1      27.757   0.108  54.522  1.00  0.00     0.132 S 
HETATM   21  C6  UNL     1      29.079   1.283  54.179  1.00  0.00     0.154 C 
HETATM   22  O1  UNL     1      28.134  -1.261  53.962  1.00  0.00    -0.234 OA
ENDBRANCH  19  20
ENDBRANCH   2  18
TORSDOF 5
ENDMDL
MODEL 7
REMARK VINA RESULT:      -6.7      5.437      7.128
REMARK  5 active torsions:
REMARK  status: ('A' for Active; 'I' for Inactive)
REMARK    1  A    between atoms: C2_2  and  C3_3 
REMARK    2  A    between atoms: C4_4  and  C5_5 
REMARK    3  A    between atoms: N1_6  and  S1_7 
REMARK    4  A    between atoms: C8_13  and  N4_14 
REMARK    5  A    between atoms: N4_14  and  C9_15 
ROOT
HETATM    1  C3  UNL     1      24.488   4.290  50.243  1.00  0.00     0.018 A 
HETATM    2  C4  UNL     1      24.581   5.668  50.297  1.00  0.00     0.086 A 
HETATM    3  N2  UNL     1      23.876   6.360  51.244  1.00  0.00    -0.240 NA
HETATM    4  C7  UNL     1      23.089   5.669  52.121  1.00  0.00     0.236 A 
HETATM    5  N3  UNL     1      23.019   4.335  52.044  1.00  0.00    -0.224 NA
HETATM    6  C8  UNL     1      23.680   3.598  51.147  1.00  0.00     0.138 A 
ENDROOT
BRANCH   6   7
HETATM    7  N4  UNL     1      23.643   2.188  51.039  1.00  0.00    -0.340 N 
HETATM    8  H11 UNL     1      23.250   1.747  50.183  1.00  0.00     0.167 HD
BRANCH   7   9
HETATM    9  C9  UNL     1      24.085   1.241  51.965  1.00  0.00     0.035 A 
HETATM   10  C10 UNL     1      25.396   0.859  52.138  1.00  0.00     0.029 A 
HETATM   11  C11 UNL     1      25.825  -0.075  53.052  1.00  0.00     0.004 A 
HETATM   12  C12 UNL     1      24.935  -0.698  53.868  1.00  0.00     0.019 A 
HETATM   13  C13 UNL     1      23.613  -0.364  53.748  1.00  0.00     0.013 A 
HETATM   14 BR1  UNL     1      22.337  -1.211  54.870  1.00  0.00    -0.051 Br
HETATM   15  C14 UNL     1      23.248   0.564  52.830  1.00  0.00     0.048 A 
ENDBRANCH   7   9
ENDBRANCH   6   7
BRANCH   1  16
HETATM   16  C2  UNL     1      25.311   3.738  49.168  1.00  0.00     0.040 C 
HETATM   17  C1  UNL     1      26.658   3.251  49.624  1.00  0.00     0.010 C 
ENDBRANCH   1  16
BRANCH   2  18
HETATM   18  C5  UNL     1      25.386   6.502  49.415  1.00  0.00     0.160 C 
HETATM   19  N1  UNL     1      25.772   7.434  50.224  1.00  0.00    -0.198 NA
BRANCH  19  20
HETATM   20  S1  UNL     1      26.790   8.690  49.578  1.00  0.00     0.132 S 
HETATM   21  C6  UNL     1      28.192   7.972  48.704  1.00  0.00     0.154 C 
HETATM   22  O1  UNL     1      27.295   9.516  50.759  1.00  0.00    -0.234 OA
ENDBRANCH  19  20
ENDBRANCH   2  18
TORSDOF 5
ENDMDL
MODEL 8
REMARK VINA RESULT:      -6.6      2.027      2.944
REMARK  5 active torsions:
REMARK  status: ('A' for Active; 'I' for Inactive)
REMARK    1  A    between atoms: C2_2  and  C3_3 
REMARK    2  A    between atoms: C4_4  and  C5_5 
REMARK    3  A    between atoms: N1_6  and  S1_7 
REMARK    4  A    between atoms: C8_13  and  N4_14 
REMARK    5  A    between atoms: N4_14  and  C9_15 
ROOT
HETATM    1  C3  UNL     1      22.756   0.528  53.014  1.00  0.00     0.018 A 
HETATM    2  C4  UNL     1      24.124   0.643  52.850  1.00  0.00     0.086 A 
HETATM    3  N2  UNL     1      24.663   1.835  52.451  1.00  0.00    -0.240 NA
HETATM    4  C7  UNL     1      23.831   2.894  52.220  1.00  0.00     0.236 A 
HETATM    5  N3  UNL     1      22.511   2.753  52.387  1.00  0.00    -0.224 NA
HETATM    6  C8  UNL     1      21.919   1.619  52.775  1.00  0.00     0.138 A 
ENDROOT
BRANCH   6   7
HETATM    7  N4  UNL     1      20.531   1.431  52.974  1.00  0.00    -0.340 N 
HETATM    8  H11 UNL     1      20.129   1.531  53.927  1.00  0.00     0.167 HD
BRANCH   7   9
HETATM    9  C9  UNL     1      19.559   1.116  52.022  1.00  0.00     0.035 A 
HETATM   10  C10 UNL     1      18.789  -0.024  52.028  1.00  0.00     0.029 A 
HETATM   11  C11 UNL     1      17.833  -0.328  51.087  1.00  0.00     0.004 A 
HETATM   12  C12 UNL     1      17.590   0.521  50.055  1.00  0.00     0.019 A 
HETATM   13  C13 UNL     1      18.322   1.675  49.988  1.00  0.00     0.013 A 
HETATM   14 BR1  UNL     1      18.014   2.889  48.561  1.00  0.00    -0.051 Br
HETATM   15  C14 UNL     1      19.250   1.923  50.945  1.00  0.00     0.048 A 
ENDBRANCH   7   9
ENDBRANCH   6   7
BRANCH   1  16
HETATM   16  C2  UNL     1      22.377  -0.819  53.442  1.00  0.00     0.040 C 
HETATM   17  C1  UNL     1      21.988  -0.906  54.892  1.00  0.00     0.010 C 
ENDBRANCH   1  16
BRANCH   2  18
HETATM   18  C5  UNL     1      25.099  -0.418  53.068  1.00  0.00     0.160 C 
HETATM   19  N1  UNL     1      26.212   0.225  52.927  1.00  0.00    -0.198 NA
BRANCH  19  20
HETATM   20  S1  UNL     1      27.691  -0.677  53.109  1.00  0.00     0.132 S 
HETATM   21  C6  UNL     1      27.432  -2.401  52.654  1.00  0.00     0.154 C 
HETATM   22  O1  UNL     1      28.094  -0.593  54.579  1.00  0.00    -0.234 OA
ENDBRANCH  19  20
ENDBRANCH   2  18
TORSDOF 5
ENDMDL
MODEL 9
REMARK VINA RESULT:      -6.5      4.827      7.815
REMARK  5 active torsions:
REMARK  status: ('A' for Active; 'I' for Inactive)
REMARK    1  A    between atoms: C2_2  and  C3_3 
REMARK    2  A    between atoms: C4_4  and  C5_5 
REMARK    3  A    between atoms: N1_6  and  S1_7 
REMARK    4  A    between atoms: C8_13  and  N4_14 
REMARK    5  A    between atoms: N4_14  and  C9_15 
ROOT
HETATM    1  C3  UNL     1      23.136   1.506  52.440  1.00  0.00     0.018 A 
HETATM    2  C4  UNL     1      21.918   0.920  52.725  1.00  0.00     0.086 A 
HETATM    3  N2  UNL     1      21.874  -0.230  53.467  1.00  0.00    -0.240 NA
HETATM    4  C7  UNL     1      23.044  -0.778  53.910  1.00  0.00     0.236 A 
HETATM    5  N3  UNL     1      24.208  -0.188  53.618  1.00  0.00    -0.224 NA
HETATM    6  C8  UNL     1      24.324   0.934  52.901  1.00  0.00     0.138 A 
ENDROOT
BRANCH   6   7
HETATM    7  N4  UNL     1      25.532   1.596  52.580  1.00  0.00    -0.340 N 
HETATM    8  H11 UNL     1      25.515   2.424  51.950  1.00  0.00     0.167 HD
BRANCH   7   9
HETATM    9  C9  UNL     1      26.824   1.288  53.011  1.00  0.00     0.035 A 
HETATM   10  C10 UNL     1      27.721   2.195  53.527  1.00  0.00     0.029 A 
HETATM   11  C11 UNL     1      28.993   1.884  53.949  1.00  0.00     0.004 A 
HETATM   12  C12 UNL     1      29.450   0.607  53.874  1.00  0.00     0.019 A 
HETATM   13  C13 UNL     1      28.607  -0.346  53.369  1.00  0.00     0.013 A 
HETATM   14 BR1  UNL     1      29.207  -2.143  53.246  1.00  0.00    -0.051 Br
HETATM   15  C14 UNL     1      27.364   0.018  52.969  1.00  0.00     0.048 A 
ENDBRANCH   7   9
ENDBRANCH   6   7
BRANCH   1  16
HETATM   16  C2  UNL     1      22.974   2.720  51.640  1.00  0.00     0.040 C 
HETATM   17  C1  UNL     1      23.129   3.990  52.429  1.00  0.00     0.010 C 
ENDBRANCH   1  16
BRANCH   2  18
HETATM   18  C5  UNL     1      20.615   1.417  52.304  1.00  0.00     0.160 C 
HETATM   19  N1  UNL     1      20.151   0.400  51.653  1.00  0.00    -0.198 NA
BRANCH  19  20
HETATM   20  S1  UNL     1      18.564   0.550  50.950  1.00  0.00     0.132 S 
HETATM   21  C6  UNL     1      17.839   2.143  51.379  1.00  0.00     0.154 C 
HETATM   22  O1  UNL     1      17.706  -0.572  51.527  1.00  0.00    -0.234 OA
ENDBRANCH  19  20
ENDBRANCH   2  18
TORSDOF 5
ENDMDL
