MODEL 1
REMARK VINA RESULT:      -6.6      0.000      0.000
REMARK  9 active torsions:
REMARK  status: ('A' for Active; 'I' for Inactive)
REMARK    1  A    between atoms: C2_2  and  C3_3 
REMARK    2  A    between atoms: C3_3  and  C4_5 
REMARK    3  A    between atoms: C4_5  and  N1_6 
REMARK    4  A    between atoms: C7_9  and  N2_10 
REMARK    5  A    between atoms: C8_12  and  O3_13 
REMARK    6  A    between atoms: C11_16  and  N3_17 
REMARK    7  A    between atoms: N3_17  and  C12_18 
REMARK    8  A    between atoms: C12_18  and  C13_19 
REMARK    9  A    between atoms: C13_19  and  N4_20 
ROOT
HETATM    1  N1  UNL     1      26.510   0.927  53.014  1.00  0.00     0.101 N 
HETATM    2  C5  UNL     1      25.780   0.355  54.070  1.00  0.00     0.279 C 
HETATM    3  C6  UNL     1      24.963  -0.870  53.762  1.00  0.00     0.095 C 
HETATM    4  C7  UNL     1      23.529  -0.386  53.766  1.00  0.00     0.099 C 
HETATM    5  C8  UNL     1      22.943   0.714  53.270  1.00  0.00     0.097 C 
HETATM    6  C10 UNL     1      23.556   1.844  52.532  1.00  0.00     0.065 C 
HETATM    7  C11 UNL     1      24.690   2.144  51.897  1.00  0.00     0.036 C 
HETATM    8  C16 UNL     1      25.871   1.199  51.780  1.00  0.00     0.329 C 
ENDROOT
BRANCH   7   9
HETATM    9  N3  UNL     1      24.975   3.408  51.250  1.00  0.00    -0.390 N 
HETATM   10  H14 UNL     1      24.708   3.873  52.123  1.00  0.00     0.159 HD
BRANCH   9  11
HETATM   11  C12 UNL     1      25.426   3.358  49.901  1.00  0.00     0.139 C 
BRANCH  11  12
HETATM   12  C13 UNL     1      26.834   3.778  49.624  1.00  0.00     0.135 C 
BRANCH  12  13
HETATM   13  N4  UNL     1      26.915   4.907  48.804  1.00  0.00    -0.419 N 
HETATM   14  C14 UNL     1      28.179   5.323  48.406  1.00  0.00     0.142 C 
HETATM   15  C15 UNL     1      25.927   5.927  48.957  1.00  0.00     0.142 C 
ENDBRANCH  12  13
ENDBRANCH  11  12
ENDBRANCH   9  11
ENDBRANCH   7   9
BRANCH   5  16
HETATM   16  O3  UNL     1      21.581   0.947  53.397  1.00  0.00    -0.354 OA
HETATM   17  C9  UNL     1      20.768   1.590  52.460  1.00  0.00     0.210 C 
ENDBRANCH   5  16
BRANCH   1  18
HETATM   18  C4  UNL     1      27.317   2.017  53.511  1.00  0.00     0.355 C 
BRANCH  18  19
HETATM   19  C3  UNL     1      28.619   1.497  54.013  1.00  0.00     0.173 C 
HETATM   20  O1  UNL     1      29.390   1.758  54.979  1.00  0.00    -0.292 OA
BRANCH  19  21
HETATM   21  C2  UNL     1      29.202   0.418  53.247  1.00  0.00     0.025 C 
HETATM   22  C1  UNL     1      29.723  -0.658  53.815  1.00  0.00     0.035 C 
ENDBRANCH  19  21
ENDBRANCH  18  19
ENDBRANCH   1  18
BRANCH   4  23
HETATM   23  N2  UNL     1      22.492  -1.130  54.368  1.00  0.00    -0.100 NA
HETATM   24  O2  UNL     1      22.694  -1.532  55.531  1.00  0.00    -0.061 OA
ENDBRANCH   4  23
TORSDOF 9
ENDMDL
MODEL 2
REMARK VINA RESULT:      -6.4      1.471      1.908
REMARK  9 active torsions:
REMARK  status: ('A' for Active; 'I' for Inactive)
REMARK    1  A    between atoms: C2_2  and  C3_3 
REMARK    2  A    between atoms: C3_3  and  C4_5 
REMARK    3  A    between atoms: C4_5  and  N1_6 
REMARK    4  A    between atoms: C7_9  and  N2_10 
REMARK    5  A    between atoms: C8_12  and  O3_13 
REMARK    6  A    between atoms: C11_16  and  N3_17 
REMARK    7  A    between atoms: N3_17  and  C12_18 
REMARK    8  A    between atoms: C12_18  and  C13_19 
REMARK    9  A    between atoms: C13_19  and  N4_20 
ROOT
HETATM    1  N1  UNL     1      27.031   1.192  52.523  1.00  0.00     0.101 N 
HETATM    2  C5  UNL     1      26.161   0.712  53.516  1.00  0.00     0.279 C 
HETATM    3  C6  UNL     1      25.158  -0.334  53.112  1.00  0.00     0.095 C 
HETATM    4  C7  UNL     1      23.833   0.396  53.083  1.00  0.00     0.099 C 
HETATM    5  C8  UNL     1      23.474   1.605  52.623  1.00  0.00     0.097 C 
HETATM    6  C10 UNL     1      24.311   2.639  51.972  1.00  0.00     0.065 C 
HETATM    7  C11 UNL     1      25.510   2.762  51.400  1.00  0.00     0.036 C 
HETATM    8  C16 UNL     1      26.511   1.629  51.280  1.00  0.00     0.329 C 
ENDROOT
BRANCH   7   9
HETATM    9  N3  UNL     1      26.043   3.983  50.833  1.00  0.00    -0.390 N 
HETATM   10  H14 UNL     1      26.423   4.203  51.757  1.00  0.00     0.159 HD
BRANCH   9  11
HETATM   11  C12 UNL     1      25.796   4.218  49.450  1.00  0.00     0.139 C 
BRANCH  11  12
HETATM   12  C13 UNL     1      25.042   5.454  49.080  1.00  0.00     0.135 C 
BRANCH  12  13
HETATM   13  N4  UNL     1      23.657   5.297  49.174  1.00  0.00    -0.419 N 
HETATM   14  C14 UNL     1      23.024   5.831  50.289  1.00  0.00     0.142 C 
HETATM   15  C15 UNL     1      23.068   4.125  48.607  1.00  0.00     0.142 C 
ENDBRANCH  12  13
ENDBRANCH  11  12
ENDBRANCH   9  11
ENDBRANCH   7   9
BRANCH   5  16
HETATM   16  O3  UNL     1      22.170   2.069  52.708  1.00  0.00    -0.354 OA
HETATM   17  C9  UNL     1      21.465   2.724  51.693  1.00  0.00     0.210 C 
ENDBRANCH   5  16
BRANCH   1  18
HETATM   18  C4  UNL     1      27.992   2.098  53.109  1.00  0.00     0.355 C 
BRANCH  18  19
HETATM   19  C3  UNL     1      28.866   1.362  54.064  1.00  0.00     0.173 C 
HETATM   20  O1  UNL     1      29.042   1.357  55.315  1.00  0.00    -0.292 OA
BRANCH  19  21
HETATM   21  C2  UNL     1      29.764   0.394  53.476  1.00  0.00     0.025 C 
HETATM   22  C1  UNL     1      29.722  -0.893  53.780  1.00  0.00     0.035 C 
ENDBRANCH  19  21
ENDBRANCH  18  19
ENDBRANCH   1  18
BRANCH   4  23
HETATM   23  N2  UNL     1      22.654  -0.178  53.602  1.00  0.00    -0.100 NA
HETATM   24  O2  UNL     1      22.291  -1.263  53.102  1.00  0.00    -0.061 OA
ENDBRANCH   4  23
TORSDOF 9
ENDMDL
MODEL 3
REMARK VINA RESULT:      -6.3      2.390      5.391
REMARK  9 active torsions:
REMARK  status: ('A' for Active; 'I' for Inactive)
REMARK    1  A    between atoms: C2_2  and  C3_3 
REMARK    2  A    between atoms: C3_3  and  C4_5 
REMARK    3  A    between atoms: C4_5  and  N1_6 
REMARK    4  A    between atoms: C7_9  and  N2_10 
REMARK    5  A    between atoms: C8_12  and  O3_13 
REMARK    6  A    between atoms: C11_16  and  N3_17 
REMARK    7  A    between atoms: N3_17  and  C12_18 
REMARK    8  A    between atoms: C12_18  and  C13_19 
REMARK    9  A    between atoms: C13_19  and  N4_20 
ROOT
HETATM    1  N1  UNL     1      23.913   0.559  53.662  1.00  0.00     0.101 N 
HETATM    2  C5  UNL     1      25.300   0.339  53.643  1.00  0.00     0.279 C 
HETATM    3  C6  UNL     1      26.184   1.449  54.144  1.00  0.00     0.095 C 
HETATM    4  C7  UNL     1      26.816   2.028  52.897  1.00  0.00     0.099 C 
HETATM    5  C8  UNL     1      26.325   2.321  51.684  1.00  0.00     0.097 C 
HETATM    6  C10 UNL     1      24.943   2.157  51.175  1.00  0.00     0.065 C 
HETATM    7  C11 UNL     1      23.711   1.939  51.638  1.00  0.00     0.036 C 
HETATM    8  C16 UNL     1      23.379   1.748  53.106  1.00  0.00     0.329 C 
ENDROOT
BRANCH   7   9
HETATM    9  N3  UNL     1      22.520   1.830  50.821  1.00  0.00    -0.390 N 
HETATM   10  H14 UNL     1      22.443   0.856  51.128  1.00  0.00     0.159 HD
BRANCH   9  11
HETATM   11  C12 UNL     1      22.117   2.991  50.103  1.00  0.00     0.139 C 
BRANCH  11  12
HETATM   12  C13 UNL     1      21.580   4.143  50.891  1.00  0.00     0.135 C 
BRANCH  12  13
HETATM   13  N4  UNL     1      22.154   5.365  50.531  1.00  0.00    -0.419 N 
HETATM   14  C14 UNL     1      23.487   5.571  50.863  1.00  0.00     0.142 C 
HETATM   15  C15 UNL     1      21.319   6.523  50.500  1.00  0.00     0.142 C 
ENDBRANCH  12  13
ENDBRANCH  11  12
ENDBRANCH   9  11
ENDBRANCH   7   9
BRANCH   5  16
HETATM   16  O3  UNL     1      27.114   2.857  50.677  1.00  0.00    -0.354 OA
HETATM   17  C9  UNL     1      26.672   3.691  49.645  1.00  0.00     0.210 C 
ENDBRANCH   5  16
BRANCH   1  18
HETATM   18  C4  UNL     1      23.220  -0.642  53.257  1.00  0.00     0.355 C 
BRANCH  18  19
HETATM   19  C3  UNL     1      22.397  -1.159  54.385  1.00  0.00     0.173 C 
HETATM   20  O1  UNL     1      22.601  -1.877  55.404  1.00  0.00    -0.292 OA
BRANCH  19  21
HETATM   21  C2  UNL     1      21.003  -0.778  54.372  1.00  0.00     0.025 C 
HETATM   22  C1  UNL     1      20.375  -0.413  53.266  1.00  0.00     0.035 C 
ENDBRANCH  19  21
ENDBRANCH  18  19
ENDBRANCH   1  18
BRANCH   4  23
HETATM   23  N2  UNL     1      28.182   2.381  52.849  1.00  0.00    -0.100 NA
HETATM   24  O2  UNL     1      28.717   2.698  53.930  1.00  0.00    -0.061 OA
ENDBRANCH   4  23
TORSDOF 9
ENDMDL
MODEL 4
REMARK VINA RESULT:      -6.2      2.417      5.458
REMARK  9 active torsions:
REMARK  status: ('A' for Active; 'I' for Inactive)
REMARK    1  A    between atoms: C2_2  and  C3_3 
REMARK    2  A    between atoms: C3_3  and  C4_5 
REMARK    3  A    between atoms: C4_5  and  N1_6 
REMARK    4  A    between atoms: C7_9  and  N2_10 
REMARK    5  A    between atoms: C8_12  and  O3_13 
REMARK    6  A    between atoms: C11_16  and  N3_17 
REMARK    7  A    between atoms: N3_17  and  C12_18 
REMARK    8  A    between atoms: C12_18  and  C13_19 
REMARK    9  A    between atoms: C13_19  and  N4_20 
ROOT
HETATM    1  N1  UNL     1      26.335   2.272  52.471  1.00  0.00     0.101 N 
HETATM    2  C5  UNL     1      26.319   2.575  51.099  1.00  0.00     0.279 C 
HETATM    3  C6  UNL     1      25.544   3.790  50.667  1.00  0.00     0.095 C 
HETATM    4  C7  UNL     1      24.306   3.237  49.996  1.00  0.00     0.099 C 
HETATM    5  C8  UNL     1      23.477   2.230  50.310  1.00  0.00     0.097 C 
HETATM    6  C10 UNL     1      23.529   1.310  51.471  1.00  0.00     0.065 C 
HETATM    7  C11 UNL     1      24.126   1.209  52.659  1.00  0.00     0.036 C 
HETATM    8  C16 UNL     1      25.119   2.222  53.197  1.00  0.00     0.329 C 
ENDROOT
BRANCH   7   9
HETATM    9  N3  UNL     1      23.941   0.121  53.597  1.00  0.00    -0.390 N 
HETATM   10  H14 UNL     1      24.748   0.479  54.115  1.00  0.00     0.159 HD
BRANCH   9  11
HETATM   11  C12 UNL     1      22.861  -0.773  53.347  1.00  0.00     0.139 C 
BRANCH  11  12
HETATM   12  C13 UNL     1      21.613  -0.596  54.151  1.00  0.00     0.135 C 
BRANCH  12  13
HETATM   13  N4  UNL     1      20.557  -0.061  53.408  1.00  0.00    -0.419 N 
HETATM   14  C14 UNL     1      20.473   1.322  53.314  1.00  0.00     0.142 C 
HETATM   15  C15 UNL     1      19.322  -0.778  53.373  1.00  0.00     0.142 C 
ENDBRANCH  12  13
ENDBRANCH  11  12
ENDBRANCH   9  11
ENDBRANCH   7   9
BRANCH   5  16
HETATM   16  O3  UNL     1      22.383   1.901  49.524  1.00  0.00    -0.354 OA
HETATM   17  C9  UNL     1      21.442   0.906  49.803  1.00  0.00     0.210 C 
ENDBRANCH   5  16
BRANCH   1  18
HETATM   18  C4  UNL     1      27.211   1.150  52.715  1.00  0.00     0.355 C 
BRANCH  18  19
HETATM   19  C3  UNL     1      28.268   1.535  53.691  1.00  0.00     0.173 C 
HETATM   20  O1  UNL     1      28.729   2.617  54.152  1.00  0.00    -0.292 OA
BRANCH  19  21
HETATM   21  C2  UNL     1      28.989   0.440  54.301  1.00  0.00     0.025 C 
HETATM   22  C1  UNL     1      29.669  -0.447  53.594  1.00  0.00     0.035 C 
ENDBRANCH  19  21
ENDBRANCH  18  19
ENDBRANCH   1  18
BRANCH   4  23
HETATM   23  N2  UNL     1      23.801   3.784  48.797  1.00  0.00    -0.100 NA
HETATM   24  O2  UNL     1      23.884   5.023  48.668  1.00  0.00    -0.061 OA
ENDBRANCH   4  23
TORSDOF 9
ENDMDL
MODEL 5
REMARK VINA RESULT:      -6.2      2.366      5.316
REMARK  9 active torsions:
REMARK  status: ('A' for Active; 'I' for Inactive)
REMARK    1  A    between atoms: C2_2  and  C3_3 
REMARK    2  A    between atoms: C3_3  and  C4_5 
REMARK    3  A    between atoms: C4_5  and  N1_6 
REMARK    4  A    between atoms: C7_9  and  N2_10 
REMARK    5  A    between atoms: C8_12  and  O3_13 
REMARK    6  A    between atoms: C11_16  and  N3_17 
REMARK    7  A    between atoms: N3_17  and  C12_18 
REMARK    8  A    between atoms: C12_18  and  C13_19 
REMARK    9  A    between atoms: C13_19  and  N4_20 
ROOT
HETATM    1  N1  UNL     1      23.964   4.043  50.685  1.00  0.00     0.101 N 
HETATM    2  C5  UNL     1      22.568   4.023  50.521  1.00  0.00     0.279 C 
HETATM    3  C6  UNL     1      21.727   4.445  51.695  1.00  0.00     0.095 C 
HETATM    4  C7  UNL     1      21.129   3.159  52.221  1.00  0.00     0.099 C 
HETATM    5  C8  UNL     1      21.642   1.935  52.418  1.00  0.00     0.097 C 
HETATM    6  C10 UNL     1      23.020   1.452  52.167  1.00  0.00     0.065 C 
HETATM    7  C11 UNL     1      24.238   1.940  51.927  1.00  0.00     0.036 C 
HETATM    8  C16 UNL     1      24.551   3.420  51.814  1.00  0.00     0.329 C 
ENDROOT
BRANCH   7   9
HETATM    9  N3  UNL     1      25.430   1.144  51.720  1.00  0.00    -0.390 N 
HETATM   10  H14 UNL     1      25.484   1.537  50.776  1.00  0.00     0.159 HD
BRANCH   9  11
HETATM   11  C12 UNL     1      25.863   0.329  52.804  1.00  0.00     0.139 C 
BRANCH  11  12
HETATM   12  C13 UNL     1      27.329   0.067  52.934  1.00  0.00     0.135 C 
BRANCH  12  13
HETATM   13  N4  UNL     1      27.947   0.884  53.884  1.00  0.00    -0.419 N 
HETATM   14  C14 UNL     1      28.352   2.149  53.478  1.00  0.00     0.142 C 
HETATM   15  C15 UNL     1      28.726   0.263  54.908  1.00  0.00     0.142 C 
ENDBRANCH  12  13
ENDBRANCH  11  12
ENDBRANCH   9  11
ENDBRANCH   7   9
BRANCH   5  16
HETATM   16  O3  UNL     1      20.884   0.889  52.922  1.00  0.00    -0.354 OA
HETATM   17  C9  UNL     1      21.246   0.049  53.980  1.00  0.00     0.210 C 
ENDBRANCH   5  16
BRANCH   1  18
HETATM   18  C4  UNL     1      24.609   3.720  49.434  1.00  0.00     0.355 C 
BRANCH  18  19
HETATM   19  C3  UNL     1      26.031   4.162  49.467  1.00  0.00     0.173 C 
HETATM   20  O1  UNL     1      27.137   3.640  49.781  1.00  0.00    -0.292 OA
BRANCH  19  21
HETATM   21  C2  UNL     1      26.276   5.522  49.044  1.00  0.00     0.025 C 
HETATM   22  C1  UNL     1      27.416   5.901  48.491  1.00  0.00     0.035 C 
ENDBRANCH  19  21
ENDBRANCH  18  19
ENDBRANCH   1  18
BRANCH   4  23
HETATM   23  N2  UNL     1      19.780   3.075  52.625  1.00  0.00    -0.100 NA
HETATM   24  O2  UNL     1      18.962   3.778  51.998  1.00  0.00    -0.061 OA
ENDBRANCH   4  23
TORSDOF 9
ENDMDL
MODEL 6
REMARK VINA RESULT:      -5.9      2.547      6.025
REMARK  9 active torsions:
REMARK  status: ('A' for Active; 'I' for Inactive)
REMARK    1  A    between atoms: C2_2  and  C3_3 
REMARK    2  A    between atoms: C3_3  and  C4_5 
REMARK    3  A    between atoms: C4_5  and  N1_6 
REMARK    4  A    between atoms: C7_9  and  N2_10 
REMARK    5  A    between atoms: C8_12  and  O3_13 
REMARK    6  A    between atoms: C11_16  and  N3_17 
REMARK    7  A    between atoms: N3_17  and  C12_18 
REMARK    8  A    between atoms: C12_18  and  C13_19 
REMARK    9  A    between atoms: C13_19  and  N4_20 
ROOT
HETATM    1  N1  UNL     1      24.674   2.510  51.215  1.00  0.00     0.101 N 
HETATM    2  C5  UNL     1      25.564   2.066  52.207  1.00  0.00     0.279 C 
HETATM    3  C6  UNL     1      26.082   0.658  52.093  1.00  0.00     0.095 C 
HETATM    4  C7  UNL     1      25.357  -0.107  53.179  1.00  0.00     0.099 C 
HETATM    5  C8  UNL     1      24.082  -0.101  53.596  1.00  0.00     0.097 C 
HETATM    6  C10 UNL     1      22.942   0.699  53.089  1.00  0.00     0.065 C 
HETATM    7  C11 UNL     1      22.615   1.446  52.034  1.00  0.00     0.036 C 
HETATM    8  C16 UNL     1      23.549   1.721  50.870  1.00  0.00     0.329 C 
ENDROOT
BRANCH   7   9
HETATM    9  N3  UNL     1      21.347   2.118  51.846  1.00  0.00    -0.390 N 
HETATM   10  H14 UNL     1      21.865   2.906  51.448  1.00  0.00     0.159 HD
BRANCH   9  11
HETATM   11  C12 UNL     1      20.176   1.421  52.259  1.00  0.00     0.139 C 
BRANCH  11  12
HETATM   12  C13 UNL     1      19.484   0.565  51.247  1.00  0.00     0.135 C 
BRANCH  12  13
HETATM   13  N4  UNL     1      18.621  -0.371  51.823  1.00  0.00    -0.419 N 
HETATM   14  C14 UNL     1      17.306  -0.391  51.379  1.00  0.00     0.142 C 
HETATM   15  C15 UNL     1      18.841  -0.747  53.184  1.00  0.00     0.142 C 
ENDBRANCH  12  13
ENDBRANCH  11  12
ENDBRANCH   9  11
ENDBRANCH   7   9
BRANCH   5  16
HETATM   16  O3  UNL     1      23.640  -0.908  54.634  1.00  0.00    -0.354 OA
HETATM   17  C9  UNL     1      22.306  -1.191  54.941  1.00  0.00     0.210 C 
ENDBRANCH   5  16
BRANCH   1  18
HETATM   18  C4  UNL     1      24.371   3.908  51.418  1.00  0.00     0.355 C 
BRANCH  18  19
HETATM   19  C3  UNL     1      24.685   4.680  50.184  1.00  0.00     0.173 C 
HETATM   20  O1  UNL     1      24.109   5.571  49.499  1.00  0.00    -0.292 OA
BRANCH  19  21
HETATM   21  C2  UNL     1      25.956   4.383  49.564  1.00  0.00     0.025 C 
HETATM   22  C1  UNL     1      26.643   5.285  48.882  1.00  0.00     0.035 C 
ENDBRANCH  19  21
ENDBRANCH  18  19
ENDBRANCH   1  18
BRANCH   4  23
HETATM   23  N2  UNL     1      26.019  -1.048  53.996  1.00  0.00    -0.100 NA
HETATM   24  O2  UNL     1      27.016  -0.640  54.626  1.00  0.00    -0.061 OA
ENDBRANCH   4  23
TORSDOF 9
ENDMDL
MODEL 7
REMARK VINA RESULT:      -5.9      1.821      2.462
REMARK  9 active torsions:
REMARK  status: ('A' for Active; 'I' for Inactive)
REMARK    1  A    between atoms: C2_2  and  C3_3 
REMARK    2  A    between atoms: C3_3  and  C4_5 
REMARK    3  A    between atoms: C4_5  and  N1_6 
REMARK    4  A    between atoms: C7_9  and  N2_10 
REMARK    5  A    between atoms: C8_12  and  O3_13 
REMARK    6  A    between atoms: C11_16  and  N3_17 
REMARK    7  A    between atoms: N3_17  and  C12_18 
REMARK    8  A    between atoms: C12_18  and  C13_19 
REMARK    9  A    between atoms: C13_19  and  N4_20 
ROOT
HETATM    1  N1  UNL     1      24.439   0.755  52.724  1.00  0.00     0.101 N 
HETATM    2  C5  UNL     1      23.309   0.300  53.424  1.00  0.00     0.279 C 
HETATM    3  C6  UNL     1      22.193  -0.308  52.619  1.00  0.00     0.095 C 
HETATM    4  C7  UNL     1      21.097   0.734  52.632  1.00  0.00     0.099 C 
HETATM    5  C8  UNL     1      21.113   2.069  52.491  1.00  0.00     0.097 C 
HETATM    6  C10 UNL     1      22.270   2.967  52.269  1.00  0.00     0.065 C 
HETATM    7  C11 UNL     1      23.553   2.899  51.910  1.00  0.00     0.036 C 
HETATM    8  C16 UNL     1      24.278   1.603  51.600  1.00  0.00     0.329 C 
ENDROOT
BRANCH   7   9
HETATM    9  N3  UNL     1      24.445   4.032  51.782  1.00  0.00    -0.390 N 
HETATM   10  H14 UNL     1      24.713   3.885  52.759  1.00  0.00     0.159 HD
BRANCH   9  11
HETATM   11  C12 UNL     1      24.487   4.686  50.518  1.00  0.00     0.139 C 
BRANCH  11  12
HETATM   12  C13 UNL     1      25.539   4.254  49.548  1.00  0.00     0.135 C 
BRANCH  12  13
HETATM   13  N4  UNL     1      26.428   5.279  49.214  1.00  0.00    -0.419 N 
HETATM   14  C14 UNL     1      25.888   6.504  48.846  1.00  0.00     0.142 C 
HETATM   15  C15 UNL     1      27.675   4.926  48.613  1.00  0.00     0.142 C 
ENDBRANCH  12  13
ENDBRANCH  11  12
ENDBRANCH   9  11
ENDBRANCH   7   9
BRANCH   5  16
HETATM   16  O3  UNL     1      19.955   2.830  52.540  1.00  0.00    -0.354 OA
HETATM   17  C9  UNL     1      19.492   3.683  51.534  1.00  0.00     0.210 C 
ENDBRANCH   5  16
BRANCH   1  18
HETATM   18  C4  UNL     1      25.447   1.202  53.657  1.00  0.00     0.355 C 
BRANCH  18  19
HETATM   19  C3  UNL     1      26.109   0.027  54.288  1.00  0.00     0.173 C 
HETATM   20  O1  UNL     1      25.985  -0.614  55.370  1.00  0.00    -0.292 OA
BRANCH  19  21
HETATM   21  C2  UNL     1      27.173  -0.582  53.521  1.00  0.00     0.025 C 
HETATM   22  C1  UNL     1      28.157   0.121  52.987  1.00  0.00     0.035 C 
ENDBRANCH  19  21
ENDBRANCH  18  19
ENDBRANCH   1  18
BRANCH   4  23
HETATM   23  N2  UNL     1      19.741   0.388  52.816  1.00  0.00    -0.100 NA
HETATM   24  O2  UNL     1      19.501  -0.518  53.639  1.00  0.00    -0.061 OA
ENDBRANCH   4  23
TORSDOF 9
ENDMDL
MODEL 8
REMARK VINA RESULT:      -5.9      2.184      5.578
REMARK  9 active torsions:
REMARK  status: ('A' for Active; 'I' for Inactive)
REMARK    1  A    between atoms: C2_2  and  C3_3 
REMARK    2  A    between atoms: C3_3  and  C4_5 
REMARK    3  A    between atoms: C4_5  and  N1_6 
REMARK    4  A    between atoms: C7_9  and  N2_10 
REMARK    5  A    between atoms: C8_12  and  O3_13 
REMARK    6  A    between atoms: C11_16  and  N3_17 
REMARK    7  A    between atoms: N3_17  and  C12_18 
REMARK    8  A    between atoms: C12_18  and  C13_19 
REMARK    9  A    between atoms: C13_19  and  N4_20 
ROOT
HETATM    1  N1  UNL     1      21.682   0.386  52.622  1.00  0.00     0.101 N 
HETATM    2  C5  UNL     1      22.572  -0.676  52.856  1.00  0.00     0.279 C 
HETATM    3  C6  UNL     1      23.381  -0.634  54.124  1.00  0.00     0.095 C 
HETATM    4  C7  UNL     1      24.783  -0.287  53.674  1.00  0.00     0.099 C 
HETATM    5  C8  UNL     1      25.256   0.593  52.778  1.00  0.00     0.097 C 
HETATM    6  C10 UNL     1      24.506   1.538  51.917  1.00  0.00     0.065 C 
HETATM    7  C11 UNL     1      23.285   2.064  51.811  1.00  0.00     0.036 C 
HETATM    8  C16 UNL     1      22.133   1.724  52.738  1.00  0.00     0.329 C 
ENDROOT
BRANCH   7   9
HETATM    9  N3  UNL     1      22.869   3.011  50.798  1.00  0.00    -0.390 N 
HETATM   10  H14 UNL     1      22.152   3.338  51.450  1.00  0.00     0.159 HD
BRANCH   9  11
HETATM   11  C12 UNL     1      23.587   3.001  49.568  1.00  0.00     0.139 C 
BRANCH  11  12
HETATM   12  C13 UNL     1      24.106   4.307  49.057  1.00  0.00     0.135 C 
BRANCH  12  13
HETATM   13  N4  UNL     1      25.251   4.740  49.732  1.00  0.00    -0.419 N 
HETATM   14  C14 UNL     1      25.341   6.090  50.044  1.00  0.00     0.142 C 
HETATM   15  C15 UNL     1      26.482   4.060  49.482  1.00  0.00     0.142 C 
ENDBRANCH  12  13
ENDBRANCH  11  12
ENDBRANCH   9  11
ENDBRANCH   7   9
BRANCH   5  16
HETATM   16  O3  UNL     1      26.613   0.737  52.530  1.00  0.00    -0.354 OA
HETATM   17  C9  UNL     1      27.309   1.947  52.462  1.00  0.00     0.210 C 
ENDBRANCH   5  16
BRANCH   1  18
HETATM   18  C4  UNL     1      20.915   0.127  51.425  1.00  0.00     0.355 C 
BRANCH  18  19
HETATM   19  C3  UNL     1      19.462   0.292  51.709  1.00  0.00     0.173 C 
HETATM   20  O1  UNL     1      18.506   0.945  51.204  1.00  0.00    -0.292 OA
BRANCH  19  21
HETATM   21  C2  UNL     1      18.953  -0.457  52.835  1.00  0.00     0.025 C 
HETATM   22  C1  UNL     1      17.840  -1.170  52.771  1.00  0.00     0.035 C 
ENDBRANCH  19  21
ENDBRANCH  18  19
ENDBRANCH   1  18
BRANCH   4  23
HETATM   23  N2  UNL     1      25.919  -0.928  54.213  1.00  0.00    -0.100 NA
HETATM   24  O2  UNL     1      26.181  -0.693  55.409  1.00  0.00    -0.061 OA
ENDBRANCH   4  23
TORSDOF 9
ENDMDL
MODEL 9
REMARK VINA RESULT:      -5.8      2.742      4.908
REMARK  9 active torsions:
REMARK  status: ('A' for Active; 'I' for Inactive)
REMARK    1  A    between atoms: C2_2  and  C3_3 
REMARK    2  A    between atoms: C3_3  and  C4_5 
REMARK    3  A    between atoms: C4_5  and  N1_6 
REMARK    4  A    between atoms: C7_9  and  N2_10 
REMARK    5  A    between atoms: C8_12  and  O3_13 
REMARK    6  A    between atoms: C11_16  and  N3_17 
REMARK    7  A    between atoms: N3_17  and  C12_18 
REMARK    8  A    between atoms: C12_18  and  C13_19 
REMARK    9  A    between atoms: C13_19  and  N4_20 
ROOT
HETATM    1  N1  UNL     1      24.727   2.459  51.352  1.00  0.00     0.101 N 
HETATM    2  C5  UNL     1      25.452   2.078  52.494  1.00  0.00     0.279 C 
HETATM    3  C6  UNL     1      26.036   0.692  52.512  1.00  0.00     0.095 C 
HETATM    4  C7  UNL     1      25.168  -0.077  53.484  1.00  0.00     0.099 C 
HETATM    5  C8  UNL     1      23.841  -0.116  53.680  1.00  0.00     0.097 C 
HETATM    6  C10 UNL     1      22.773   0.621  52.965  1.00  0.00     0.065 C 
HETATM    7  C11 UNL     1      22.602   1.327  51.846  1.00  0.00     0.036 C 
HETATM    8  C16 UNL     1      23.708   1.614  50.848  1.00  0.00     0.329 C 
ENDROOT
BRANCH   7   9
HETATM    9  N3  UNL     1      21.359   1.939  51.427  1.00  0.00    -0.390 N 
HETATM   10  H14 UNL     1      21.370   1.319  50.613  1.00  0.00     0.159 HD
BRANCH   9  11
HETATM   11  C12 UNL     1      20.825   2.961  52.263  1.00  0.00     0.139 C 
BRANCH  11  12
HETATM   12  C13 UNL     1      19.772   3.851  51.684  1.00  0.00     0.135 C 
BRANCH  12  13
HETATM   13  N4  UNL     1      20.195   4.517  50.530  1.00  0.00    -0.419 N 
HETATM   14  C14 UNL     1      21.079   5.576  50.686  1.00  0.00     0.142 C 
HETATM   15  C15 UNL     1      19.292   4.596  49.426  1.00  0.00     0.142 C 
ENDBRANCH  12  13
ENDBRANCH  11  12
ENDBRANCH   9  11
ENDBRANCH   7   9
BRANCH   5  16
HETATM   16  O3  UNL     1      23.262  -0.916  54.654  1.00  0.00    -0.354 OA
HETATM   17  C9  UNL     1      21.908  -1.253  54.739  1.00  0.00     0.210 C 
ENDBRANCH   5  16
BRANCH   1  18
HETATM   18  C4  UNL     1      24.340   3.847  51.458  1.00  0.00     0.355 C 
BRANCH  18  19
HETATM   19  C3  UNL     1      24.820   4.600  50.266  1.00  0.00     0.173 C 
HETATM   20  O1  UNL     1      24.406   5.579  49.583  1.00  0.00    -0.292 OA
BRANCH  19  21
HETATM   21  C2  UNL     1      26.069   4.147  49.697  1.00  0.00     0.025 C 
HETATM   22  C1  UNL     1      26.842   4.930  48.963  1.00  0.00     0.035 C 
ENDBRANCH  19  21
ENDBRANCH  18  19
ENDBRANCH   1  18
BRANCH   4  23
HETATM   23  N2  UNL     1      25.718  -0.969  54.430  1.00  0.00    -0.100 NA
HETATM   24  O2  UNL     1      26.526  -0.487  55.250  1.00  0.00    -0.061 OA
ENDBRANCH   4  23
TORSDOF 9
ENDMDL
