MODEL 1
REMARK VINA RESULT:      -7.5      0.000      0.000
REMARK  6 active torsions:
REMARK  status: ('A' for Active; 'I' for Inactive)
REMARK    1  A    between atoms: C2_2  and  C3_4 
REMARK    2  A    between atoms: C4_6  and  C5_7 
REMARK    3  A    between atoms: C6_8  and  N1_9 
REMARK    4  A    between atoms: N1_9  and  C7_10 
REMARK    5  A    between atoms: C11_16  and  O1_17 
REMARK    6  A    between atoms: C13_19  and  O2_20 
ROOT
HETATM    1  C7  UNL     1      23.800  -0.110  53.584  1.00  0.00     0.141 A 
HETATM    2  N2  UNL     1      24.458  -0.699  54.599  1.00  0.00    -0.224 NA
HETATM    3  C8  UNL     1      23.774  -1.472  55.491  1.00  0.00     0.236 A 
HETATM    4  N3  UNL     1      22.444  -1.634  55.342  1.00  0.00    -0.241 NA
HETATM    5  C9  UNL     1      21.759  -1.046  54.320  1.00  0.00     0.075 A 
HETATM    6  C10 UNL     1      20.396  -1.230  54.192  1.00  0.00     0.072 A 
HETATM    7  C11 UNL     1      19.739  -0.617  53.145  1.00  0.00     0.103 A 
HETATM    8  C13 UNL     1      20.437   0.163  52.245  1.00  0.00     0.102 A 
HETATM    9  C15 UNL     1      21.798   0.362  52.354  1.00  0.00     0.057 A 
HETATM   10  C16 UNL     1      22.438  -0.259  53.407  1.00  0.00     0.042 A 
ENDROOT
BRANCH   1  11
HETATM   11  N1  UNL     1      24.598   0.665  52.723  1.00  0.00    -0.350 N 
HETATM   12  H6  UNL     1      24.873   0.537  51.726  1.00  0.00     0.166 HD
BRANCH  11  13
HETATM   13  C6  UNL     1      25.199   1.853  53.156  1.00  0.00     0.090 C 
HETATM   14  C5  UNL     1      26.512   1.995  53.231  1.00  0.00     0.020 C 
BRANCH  14  15
HETATM   15  C4  UNL     1      27.385   0.896  52.855  1.00  0.00     0.045 C 
HETATM   16  C3  UNL     1      27.855   0.070  53.783  1.00  0.00     0.137 C 
HETATM   17  F1  UNL     1      27.538   0.232  55.079  1.00  0.00    -0.204 F 
BRANCH  16  18
HETATM   18  C2  UNL     1      28.739  -1.059  53.478  1.00  0.00     0.063 C 
HETATM   19  C1  UNL     1      30.059  -1.036  53.641  1.00  0.00     0.040 C 
HETATM   20 CL1  UNL     1      28.173  -2.596  52.858  1.00  0.00    -0.082 Cl
ENDBRANCH  16  18
ENDBRANCH  14  15
ENDBRANCH  11  13
ENDBRANCH   1  11
BRANCH   8  21
HETATM   21  O2  UNL     1      19.718   0.753  51.214  1.00  0.00    -0.353 OA
HETATM   22  C14 UNL     1      19.641   2.173  51.166  1.00  0.00     0.210 C 
ENDBRANCH   8  21
BRANCH   7  23
HETATM   23  O1  UNL     1      18.368  -0.797  53.008  1.00  0.00    -0.353 OA
HETATM   24  C12 UNL     1      17.788  -2.009  53.461  1.00  0.00     0.210 C 
ENDBRANCH   7  23
TORSDOF 6
ENDMDL
MODEL 2
REMARK VINA RESULT:      -7.3      4.051      7.279
REMARK  6 active torsions:
REMARK  status: ('A' for Active; 'I' for Inactive)
REMARK    1  A    between atoms: C2_2  and  C3_4 
REMARK    2  A    between atoms: C4_6  and  C5_7 
REMARK    3  A    between atoms: C6_8  and  N1_9 
REMARK    4  A    between atoms: N1_9  and  C7_10 
REMARK    5  A    between atoms: C11_16  and  O1_17 
REMARK    6  A    between atoms: C13_19  and  O2_20 
ROOT
HETATM    1  C7  UNL     1      24.543   2.178  51.542  1.00  0.00     0.141 A 
HETATM    2  N2  UNL     1      24.926   3.102  50.641  1.00  0.00    -0.224 NA
HETATM    3  C8  UNL     1      26.253   3.377  50.477  1.00  0.00     0.236 A 
HETATM    4  N3  UNL     1      27.161   2.717  51.222  1.00  0.00    -0.241 NA
HETATM    5  C9  UNL     1      26.793   1.777  52.138  1.00  0.00     0.075 A 
HETATM    6  C10 UNL     1      27.748   1.116  52.888  1.00  0.00     0.072 A 
HETATM    7  C11 UNL     1      27.335   0.173  53.806  1.00  0.00     0.103 A 
HETATM    8  C13 UNL     1      25.991  -0.101  53.967  1.00  0.00     0.102 A 
HETATM    9  C15 UNL     1      25.021   0.546  53.231  1.00  0.00     0.057 A 
HETATM   10  C16 UNL     1      25.453   1.487  52.317  1.00  0.00     0.042 A 
ENDROOT
BRANCH   1  11
HETATM   11  N1  UNL     1      23.154   1.972  51.632  1.00  0.00    -0.350 N 
HETATM   12  H6  UNL     1      22.533   1.764  52.443  1.00  0.00     0.166 HD
BRANCH  11  13
HETATM   13  C6  UNL     1      22.332   2.026  50.500  1.00  0.00     0.090 C 
HETATM   14  C5  UNL     1      21.335   1.178  50.309  1.00  0.00     0.020 C 
BRANCH  14  15
HETATM   15  C4  UNL     1      21.060   0.145  51.293  1.00  0.00     0.045 C 
HETATM   16  C3  UNL     1      20.126   0.336  52.217  1.00  0.00     0.137 C 
HETATM   17  F1  UNL     1      19.420   1.480  52.262  1.00  0.00    -0.204 F 
BRANCH  16  18
HETATM   18  C2  UNL     1      19.794  -0.660  53.241  1.00  0.00     0.063 C 
HETATM   19  C1  UNL     1      20.666  -1.138  54.124  1.00  0.00     0.040 C 
HETATM   20 CL1  UNL     1      18.199  -1.355  53.438  1.00  0.00    -0.082 Cl
ENDBRANCH  16  18
ENDBRANCH  14  15
ENDBRANCH  11  13
ENDBRANCH   1  11
BRANCH   8  21
HETATM   21  O2  UNL     1      25.641  -1.061  54.907  1.00  0.00    -0.353 OA
HETATM   22  C14 UNL     1      24.273  -1.172  55.286  1.00  0.00     0.210 C 
ENDBRANCH   8  21
BRANCH   7  23
HETATM   23  O1  UNL     1      28.288  -0.498  54.563  1.00  0.00    -0.353 OA
HETATM   24  C12 UNL     1      29.529  -0.831  53.962  1.00  0.00     0.210 C 
ENDBRANCH   7  23
TORSDOF 6
ENDMDL
MODEL 3
REMARK VINA RESULT:      -7.3      2.597      3.599
REMARK  6 active torsions:
REMARK  status: ('A' for Active; 'I' for Inactive)
REMARK    1  A    between atoms: C2_2  and  C3_4 
REMARK    2  A    between atoms: C4_6  and  C5_7 
REMARK    3  A    between atoms: C6_8  and  N1_9 
REMARK    4  A    between atoms: N1_9  and  C7_10 
REMARK    5  A    between atoms: C11_16  and  O1_17 
REMARK    6  A    between atoms: C13_19  and  O2_20 
ROOT
HETATM    1  C7  UNL     1      24.568  -0.520  53.675  1.00  0.00     0.141 A 
HETATM    2  N2  UNL     1      25.157  -0.985  54.791  1.00  0.00    -0.224 NA
HETATM    3  C8  UNL     1      24.387  -1.427  55.828  1.00  0.00     0.236 A 
HETATM    4  N3  UNL     1      23.045  -1.391  55.716  1.00  0.00    -0.241 NA
HETATM    5  C9  UNL     1      22.430  -0.924  54.592  1.00  0.00     0.075 A 
HETATM    6  C10 UNL     1      21.051  -0.898  54.506  1.00  0.00     0.072 A 
HETATM    7  C11 UNL     1      20.466  -0.418  53.353  1.00  0.00     0.103 A 
HETATM    8  C13 UNL     1      21.251   0.028  52.307  1.00  0.00     0.102 A 
HETATM    9  C15 UNL     1      22.629   0.013  52.371  1.00  0.00     0.057 A 
HETATM   10  C16 UNL     1      23.196  -0.472  53.533  1.00  0.00     0.042 A 
ENDROOT
BRANCH   1  11
HETATM   11  N1  UNL     1      25.452  -0.089  52.668  1.00  0.00    -0.350 N 
HETATM   12  H6  UNL     1      25.508  -0.308  51.650  1.00  0.00     0.166 HD
BRANCH  11  13
HETATM   13  C6  UNL     1      26.498   0.799  52.946  1.00  0.00     0.090 C 
HETATM   14  C5  UNL     1      26.499   2.049  52.512  1.00  0.00     0.020 C 
BRANCH  14  15
HETATM   15  C4  UNL     1      25.386   2.543  51.718  1.00  0.00     0.045 C 
HETATM   16  C3  UNL     1      24.368   3.159  52.307  1.00  0.00     0.137 C 
HETATM   17  F1  UNL     1      24.343   3.336  53.640  1.00  0.00    -0.204 F 
BRANCH  16  18
HETATM   18  C2  UNL     1      23.213   3.683  51.571  1.00  0.00     0.063 C 
HETATM   19  C1  UNL     1      23.268   4.125  50.318  1.00  0.00     0.040 C 
HETATM   20 CL1  UNL     1      21.602   3.797  52.247  1.00  0.00    -0.082 Cl
ENDBRANCH  16  18
ENDBRANCH  14  15
ENDBRANCH  11  13
ENDBRANCH   1  11
BRANCH   8  21
HETATM   21  O2  UNL     1      20.602   0.500  51.174  1.00  0.00    -0.353 OA
HETATM   22  C14 UNL     1      21.384   0.827  50.031  1.00  0.00     0.210 C 
ENDBRANCH   8  21
BRANCH   7  23
HETATM   23  O1  UNL     1      19.080  -0.389  53.256  1.00  0.00    -0.353 OA
HETATM   24  C12 UNL     1      18.361  -1.605  53.380  1.00  0.00     0.210 C 
ENDBRANCH   7  23
TORSDOF 6
ENDMDL
MODEL 4
REMARK VINA RESULT:      -7.2      2.477      3.717
REMARK  6 active torsions:
REMARK  status: ('A' for Active; 'I' for Inactive)
REMARK    1  A    between atoms: C2_2  and  C3_4 
REMARK    2  A    between atoms: C4_6  and  C5_7 
REMARK    3  A    between atoms: C6_8  and  N1_9 
REMARK    4  A    between atoms: N1_9  and  C7_10 
REMARK    5  A    between atoms: C11_16  and  O1_17 
REMARK    6  A    between atoms: C13_19  and  O2_20 
ROOT
HETATM    1  C7  UNL     1      23.273   3.389  52.130  1.00  0.00     0.141 A 
HETATM    2  N2  UNL     1      22.738   4.546  51.699  1.00  0.00    -0.224 NA
HETATM    3  C8  UNL     1      21.381   4.676  51.623  1.00  0.00     0.236 A 
HETATM    4  N3  UNL     1      20.597   3.641  51.981  1.00  0.00    -0.241 NA
HETATM    5  C9  UNL     1      21.121   2.461  52.421  1.00  0.00     0.075 A 
HETATM    6  C10 UNL     1      20.291   1.416  52.782  1.00  0.00     0.072 A 
HETATM    7  C11 UNL     1      20.860   0.238  53.221  1.00  0.00     0.103 A 
HETATM    8  C13 UNL     1      22.233   0.113  53.296  1.00  0.00     0.102 A 
HETATM    9  C15 UNL     1      23.080   1.142  52.940  1.00  0.00     0.057 A 
HETATM   10  C16 UNL     1      22.494   2.313  52.504  1.00  0.00     0.042 A 
ENDROOT
BRANCH   1  11
HETATM   11  N1  UNL     1      24.679   3.360  52.170  1.00  0.00    -0.350 N 
HETATM   12  H6  UNL     1      25.355   3.440  52.959  1.00  0.00     0.166 HD
BRANCH  11  13
HETATM   13  C6  UNL     1      25.440   3.199  51.005  1.00  0.00     0.090 C 
HETATM   14  C5  UNL     1      26.608   2.578  51.003  1.00  0.00     0.020 C 
BRANCH  14  15
HETATM   15  C4  UNL     1      27.143   2.032  52.240  1.00  0.00     0.045 C 
HETATM   16  C3  UNL     1      27.042   0.733  52.494  1.00  0.00     0.137 C 
HETATM   17  F1  UNL     1      26.447  -0.099  51.621  1.00  0.00    -0.204 F 
BRANCH  16  18
HETATM   18  C2  UNL     1      27.557   0.112  53.718  1.00  0.00     0.063 C 
HETATM   19  C1  UNL     1      26.912   0.112  54.881  1.00  0.00     0.040 C 
HETATM   20 CL1  UNL     1      29.097  -0.716  53.812  1.00  0.00    -0.082 Cl
ENDBRANCH  16  18
ENDBRANCH  14  15
ENDBRANCH  11  13
ENDBRANCH   1  11
BRANCH   8  21
HETATM   21  O2  UNL     1      22.742  -1.098  53.745  1.00  0.00    -0.353 OA
HETATM   22  C14 UNL     1      23.116  -1.211  55.114  1.00  0.00     0.210 C 
ENDBRANCH   8  21
BRANCH   7  23
HETATM   23  O1  UNL     1      20.034  -0.817  53.587  1.00  0.00    -0.353 OA
HETATM   24  C12 UNL     1      18.687  -0.818  53.143  1.00  0.00     0.210 C 
ENDBRANCH   7  23
TORSDOF 6
ENDMDL
MODEL 5
REMARK VINA RESULT:      -7.0      4.495      6.493
REMARK  6 active torsions:
REMARK  status: ('A' for Active; 'I' for Inactive)
REMARK    1  A    between atoms: C2_2  and  C3_4 
REMARK    2  A    between atoms: C4_6  and  C5_7 
REMARK    3  A    between atoms: C6_8  and  N1_9 
REMARK    4  A    between atoms: N1_9  and  C7_10 
REMARK    5  A    between atoms: C11_16  and  O1_17 
REMARK    6  A    between atoms: C13_19  and  O2_20 
ROOT
HETATM    1  C7  UNL     1      23.171   1.509  52.706  1.00  0.00     0.141 A 
HETATM    2  N2  UNL     1      22.031   0.891  53.066  1.00  0.00    -0.224 NA
HETATM    3  C8  UNL     1      22.088  -0.283  53.758  1.00  0.00     0.236 A 
HETATM    4  N3  UNL     1      23.288  -0.808  54.072  1.00  0.00    -0.241 NA
HETATM    5  C9  UNL     1      24.454  -0.197  53.717  1.00  0.00     0.075 A 
HETATM    6  C10 UNL     1      25.671  -0.759  54.053  1.00  0.00     0.072 A 
HETATM    7  C11 UNL     1      26.829  -0.111  53.674  1.00  0.00     0.103 A 
HETATM    8  C13 UNL     1      26.765   1.077  52.974  1.00  0.00     0.102 A 
HETATM    9  C15 UNL     1      25.562   1.656  52.628  1.00  0.00     0.057 A 
HETATM   10  C16 UNL     1      24.415   0.994  53.015  1.00  0.00     0.042 A 
ENDROOT
BRANCH   1  11
HETATM   11  N1  UNL     1      23.001   2.711  51.996  1.00  0.00    -0.350 N 
HETATM   12  H6  UNL     1      23.391   3.667  52.142  1.00  0.00     0.166 HD
BRANCH  11  13
HETATM   13  C6  UNL     1      22.183   2.780  50.862  1.00  0.00     0.090 C 
HETATM   14  C5  UNL     1      22.663   3.050  49.659  1.00  0.00     0.020 C 
BRANCH  14  15
HETATM   15  C4  UNL     1      24.086   3.285  49.480  1.00  0.00     0.045 C 
HETATM   16  C3  UNL     1      24.538   4.518  49.282  1.00  0.00     0.137 C 
HETATM   17  F1  UNL     1      23.698   5.566  49.242  1.00  0.00    -0.204 F 
BRANCH  16  18
HETATM   18  C2  UNL     1      25.959   4.830  49.094  1.00  0.00     0.063 C 
HETATM   19  C1  UNL     1      26.950   3.991  49.381  1.00  0.00     0.040 C 
HETATM   20 CL1  UNL     1      26.542   6.356  48.463  1.00  0.00    -0.082 Cl
ENDBRANCH  16  18
ENDBRANCH  14  15
ENDBRANCH  11  13
ENDBRANCH   1  11
BRANCH   8  21
HETATM   21  O2  UNL     1      27.966   1.680  52.623  1.00  0.00    -0.353 OA
HETATM   22  C14 UNL     1      28.634   2.477  53.594  1.00  0.00     0.210 C 
ENDBRANCH   8  21
BRANCH   7  23
HETATM   23  O1  UNL     1      28.058  -0.668  54.008  1.00  0.00    -0.353 OA
HETATM   24  C12 UNL     1      28.621  -1.647  53.150  1.00  0.00     0.210 C 
ENDBRANCH   7  23
TORSDOF 6
ENDMDL
MODEL 6
REMARK VINA RESULT:      -7.0      3.632      6.778
REMARK  6 active torsions:
REMARK  status: ('A' for Active; 'I' for Inactive)
REMARK    1  A    between atoms: C2_2  and  C3_4 
REMARK    2  A    between atoms: C4_6  and  C5_7 
REMARK    3  A    between atoms: C6_8  and  N1_9 
REMARK    4  A    between atoms: N1_9  and  C7_10 
REMARK    5  A    between atoms: C11_16  and  O1_17 
REMARK    6  A    between atoms: C13_19  and  O2_20 
ROOT
HETATM    1  C7  UNL     1      24.701  -0.278  53.101  1.00  0.00     0.141 A 
HETATM    2  N2  UNL     1      25.731  -0.953  53.645  1.00  0.00    -0.224 NA
HETATM    3  C8  UNL     1      27.007  -0.510  53.452  1.00  0.00     0.236 A 
HETATM    4  N3  UNL     1      27.216   0.600  52.718  1.00  0.00    -0.241 NA
HETATM    5  C9  UNL     1      26.187   1.298  52.160  1.00  0.00     0.075 A 
HETATM    6  C10 UNL     1      26.433   2.434  51.412  1.00  0.00     0.072 A 
HETATM    7  C11 UNL     1      25.363   3.111  50.863  1.00  0.00     0.103 A 
HETATM    8  C13 UNL     1      24.075   2.658  51.062  1.00  0.00     0.102 A 
HETATM    9  C15 UNL     1      23.806   1.527  51.803  1.00  0.00     0.057 A 
HETATM   10  C16 UNL     1      24.887   0.862  52.345  1.00  0.00     0.042 A 
ENDROOT
BRANCH   1  11
HETATM   11  N1  UNL     1      23.429  -0.820  53.360  1.00  0.00    -0.350 N 
HETATM   12  H6  UNL     1      22.702  -1.223  52.730  1.00  0.00     0.166 HD
BRANCH  11  13
HETATM   13  C6  UNL     1      22.917  -0.893  54.661  1.00  0.00     0.090 C 
HETATM   14  C5  UNL     1      21.683  -0.518  54.957  1.00  0.00     0.020 C 
BRANCH  14  15
HETATM   15  C4  UNL     1      20.807  -0.011  53.914  1.00  0.00     0.045 C 
HETATM   16  C3  UNL     1      19.811  -0.760  53.458  1.00  0.00     0.137 C 
HETATM   17  F1  UNL     1      19.593  -1.994  53.945  1.00  0.00    -0.204 F 
BRANCH  16  18
HETATM   18  C2  UNL     1      18.888  -0.316  52.409  1.00  0.00     0.063 C 
HETATM   19  C1  UNL     1      17.621  -0.712  52.315  1.00  0.00     0.040 C 
HETATM   20 CL1  UNL     1      19.330   0.801  51.135  1.00  0.00    -0.082 Cl
ENDBRANCH  16  18
ENDBRANCH  14  15
ENDBRANCH  11  13
ENDBRANCH   1  11
BRANCH   8  21
HETATM   21  O2  UNL     1      23.043   3.384  50.482  1.00  0.00    -0.353 OA
HETATM   22  C14 UNL     1      21.880   3.649  51.259  1.00  0.00     0.210 C 
ENDBRANCH   8  21
BRANCH   7  23
HETATM   23  O1  UNL     1      25.601   4.255  50.109  1.00  0.00    -0.353 OA
HETATM   24  C12 UNL     1      26.785   4.329  49.332  1.00  0.00     0.210 C 
ENDBRANCH   7  23
TORSDOF 6
ENDMDL
MODEL 7
REMARK VINA RESULT:      -7.0      4.038      6.630
REMARK  6 active torsions:
REMARK  status: ('A' for Active; 'I' for Inactive)
REMARK    1  A    between atoms: C2_2  and  C3_4 
REMARK    2  A    between atoms: C4_6  and  C5_7 
REMARK    3  A    between atoms: C6_8  and  N1_9 
REMARK    4  A    between atoms: N1_9  and  C7_10 
REMARK    5  A    between atoms: C11_16  and  O1_17 
REMARK    6  A    between atoms: C13_19  and  O2_20 
ROOT
HETATM    1  C7  UNL     1      23.507   0.050  53.491  1.00  0.00     0.141 A 
HETATM    2  N2  UNL     1      22.977  -0.779  54.409  1.00  0.00    -0.224 NA
HETATM    3  C8  UNL     1      23.787  -1.360  55.341  1.00  0.00     0.236 A 
HETATM    4  N3  UNL     1      25.108  -1.094  55.327  1.00  0.00    -0.241 NA
HETATM    5  C9  UNL     1      25.662  -0.256  54.407  1.00  0.00     0.075 A 
HETATM    6  C10 UNL     1      27.020  -0.001  54.417  1.00  0.00     0.072 A 
HETATM    7  C11 UNL     1      27.543   0.852  53.468  1.00  0.00     0.103 A 
HETATM    8  C13 UNL     1      26.719   1.438  52.528  1.00  0.00     0.102 A 
HETATM    9  C15 UNL     1      25.362   1.197  52.496  1.00  0.00     0.057 A 
HETATM   10  C16 UNL     1      24.856   0.342  53.454  1.00  0.00     0.042 A 
ENDROOT
BRANCH   1  11
HETATM   11  N1  UNL     1      22.586   0.595  52.576  1.00  0.00    -0.350 N 
HETATM   12  H6  UNL     1      22.591   0.655  51.536  1.00  0.00     0.166 HD
BRANCH  11  13
HETATM   13  C6  UNL     1      21.399   1.200  53.008  1.00  0.00     0.090 C 
HETATM   14  C5  UNL     1      20.927   2.305  52.454  1.00  0.00     0.020 C 
BRANCH  14  15
HETATM   15  C4  UNL     1      21.645   2.932  51.356  1.00  0.00     0.045 C 
HETATM   16  C3  UNL     1      22.472   3.944  51.592  1.00  0.00     0.137 C 
HETATM   17  F1  UNL     1      22.661   4.407  52.840  1.00  0.00    -0.204 F 
BRANCH  16  18
HETATM   18  C2  UNL     1      23.228   4.624  50.536  1.00  0.00     0.063 C 
HETATM   19  C1  UNL     1      23.243   4.237  49.264  1.00  0.00     0.040 C 
HETATM   20 CL1  UNL     1      24.216   6.043  50.810  1.00  0.00    -0.082 Cl
ENDBRANCH  16  18
ENDBRANCH  14  15
ENDBRANCH  11  13
ENDBRANCH   1  11
BRANCH   8  21
HETATM   21  O2  UNL     1      27.307   2.286  51.599  1.00  0.00    -0.353 OA
HETATM   22  C14 UNL     1      26.470   2.941  50.652  1.00  0.00     0.210 C 
ENDBRANCH   8  21
BRANCH   7  23
HETATM   23  O1  UNL     1      28.908   1.115  53.472  1.00  0.00    -0.353 OA
HETATM   24  C12 UNL     1      29.811   0.043  53.690  1.00  0.00     0.210 C 
ENDBRANCH   7  23
TORSDOF 6
ENDMDL
MODEL 8
REMARK VINA RESULT:      -6.9      4.148      5.678
REMARK  6 active torsions:
REMARK  status: ('A' for Active; 'I' for Inactive)
REMARK    1  A    between atoms: C2_2  and  C3_4 
REMARK    2  A    between atoms: C4_6  and  C5_7 
REMARK    3  A    between atoms: C6_8  and  N1_9 
REMARK    4  A    between atoms: N1_9  and  C7_10 
REMARK    5  A    between atoms: C11_16  and  O1_17 
REMARK    6  A    between atoms: C13_19  and  O2_20 
ROOT
HETATM    1  C7  UNL     1      26.645   2.103  52.151  1.00  0.00     0.141 A 
HETATM    2  N2  UNL     1      27.864   1.751  52.599  1.00  0.00    -0.224 NA
HETATM    3  C8  UNL     1      28.007   0.625  53.357  1.00  0.00     0.236 A 
HETATM    4  N3  UNL     1      26.921  -0.119  53.645  1.00  0.00    -0.241 NA
HETATM    5  C9  UNL     1      25.678   0.220  53.200  1.00  0.00     0.075 A 
HETATM    6  C10 UNL     1      24.583  -0.563  53.511  1.00  0.00     0.072 A 
HETATM    7  C11 UNL     1      23.342  -0.185  53.042  1.00  0.00     0.103 A 
HETATM    8  C13 UNL     1      23.204   0.955  52.276  1.00  0.00     0.102 A 
HETATM    9  C15 UNL     1      24.283   1.753  51.954  1.00  0.00     0.057 A 
HETATM   10  C16 UNL     1      25.516   1.359  52.431  1.00  0.00     0.042 A 
ENDROOT
BRANCH   1  11
HETATM   11  N1  UNL     1      26.609   3.280  51.381  1.00  0.00    -0.350 N 
HETATM   12  H6  UNL     1      26.547   4.286  51.648  1.00  0.00     0.166 HD
BRANCH  11  13
HETATM   13  C6  UNL     1      26.656   3.239  49.982  1.00  0.00     0.090 C 
HETATM   14  C5  UNL     1      26.098   4.172  49.228  1.00  0.00     0.020 C 
BRANCH  14  15
HETATM   15  C4  UNL     1      25.407   5.291  49.848  1.00  0.00     0.045 C 
HETATM   16  C3  UNL     1      24.099   5.229  50.063  1.00  0.00     0.137 C 
HETATM   17  F1  UNL     1      23.389   4.141  49.716  1.00  0.00    -0.204 F 
BRANCH  16  18
HETATM   18  C2  UNL     1      23.336   6.318  50.683  1.00  0.00     0.063 C 
HETATM   19  C1  UNL     1      23.792   7.559  50.826  1.00  0.00     0.040 C 
HETATM   20 CL1  UNL     1      21.716   6.128  51.320  1.00  0.00    -0.082 Cl
ENDBRANCH  16  18
ENDBRANCH  14  15
ENDBRANCH  11  13
ENDBRANCH   1  11
BRANCH   8  21
HETATM   21  O2  UNL     1      21.928   1.281  51.835  1.00  0.00    -0.353 OA
HETATM   22  C14 UNL     1      21.379   2.538  52.217  1.00  0.00     0.210 C 
ENDBRANCH   8  21
BRANCH   7  23
HETATM   23  O1  UNL     1      22.235  -0.967  53.349  1.00  0.00    -0.353 OA
HETATM   24  C12 UNL     1      22.029  -1.362  54.696  1.00  0.00     0.210 C 
ENDBRANCH   7  23
TORSDOF 6
ENDMDL
MODEL 9
REMARK VINA RESULT:      -6.8      4.904      6.330
REMARK  6 active torsions:
REMARK  status: ('A' for Active; 'I' for Inactive)
REMARK    1  A    between atoms: C2_2  and  C3_4 
REMARK    2  A    between atoms: C4_6  and  C5_7 
REMARK    3  A    between atoms: C6_8  and  N1_9 
REMARK    4  A    between atoms: N1_9  and  C7_10 
REMARK    5  A    between atoms: C11_16  and  O1_17 
REMARK    6  A    between atoms: C13_19  and  O2_20 
ROOT
HETATM    1  C7  UNL     1      24.266   3.107  51.513  1.00  0.00     0.141 A 
HETATM    2  N2  UNL     1      23.369   3.880  50.875  1.00  0.00    -0.224 NA
HETATM    3  C8  UNL     1      22.040   3.580  50.953  1.00  0.00     0.236 A 
HETATM    4  N3  UNL     1      21.646   2.510  51.672  1.00  0.00    -0.241 NA
HETATM    5  C9  UNL     1      22.539   1.716  52.327  1.00  0.00     0.075 A 
HETATM    6  C10 UNL     1      22.105   0.625  53.056  1.00  0.00     0.072 A 
HETATM    7  C11 UNL     1      23.041  -0.155  53.703  1.00  0.00     0.103 A 
HETATM    8  C13 UNL     1      24.383   0.154  53.620  1.00  0.00     0.102 A 
HETATM    9  C15 UNL     1      24.840   1.236  52.898  1.00  0.00     0.057 A 
HETATM   10  C16 UNL     1      23.890   2.006  52.257  1.00  0.00     0.042 A 
ENDROOT
BRANCH   1  11
HETATM   11  N1  UNL     1      25.608   3.503  51.367  1.00  0.00    -0.350 N 
HETATM   12  H6  UNL     1      26.193   4.187  51.893  1.00  0.00     0.166 HD
BRANCH  11  13
HETATM   13  C6  UNL     1      26.426   2.957  50.371  1.00  0.00     0.090 C 
HETATM   14  C5  UNL     1      26.836   3.662  49.328  1.00  0.00     0.020 C 
BRANCH  14  15
HETATM   15  C4  UNL     1      26.440   5.053  49.190  1.00  0.00     0.045 C 
HETATM   16  C3  UNL     1      27.221   5.907  48.538  1.00  0.00     0.137 C 
HETATM   17  F1  UNL     1      28.386   5.507  47.998  1.00  0.00    -0.204 F 
BRANCH  16  18
HETATM   18  C2  UNL     1      26.887   7.323  48.358  1.00  0.00     0.063 C 
HETATM   19  C1  UNL     1      26.107   7.786  47.385  1.00  0.00     0.040 C 
HETATM   20 CL1  UNL     1      27.471   8.599  49.405  1.00  0.00    -0.082 Cl
ENDBRANCH  16  18
ENDBRANCH  14  15
ENDBRANCH  11  13
ENDBRANCH   1  11
BRANCH   8  21
HETATM   21  O2  UNL     1      25.274  -0.671  54.295  1.00  0.00    -0.353 OA
HETATM   22  C14 UNL     1      26.454  -0.092  54.842  1.00  0.00     0.210 C 
ENDBRANCH   8  21
BRANCH   7  23
HETATM   23  O1  UNL     1      22.613  -1.254  54.440  1.00  0.00    -0.353 OA
HETATM   24  C12 UNL     1      21.240  -1.605  54.410  1.00  0.00     0.210 C 
ENDBRANCH   7  23
TORSDOF 6
ENDMDL
