MODEL 1
REMARK VINA RESULT:      -7.7      0.000      0.000
REMARK  4 active torsions:
REMARK  status: ('A' for Active; 'I' for Inactive)
REMARK    1  A    between atoms: S1_2  and  N1_5 
REMARK    2  A    between atoms: C5_9  and  C6_10 
REMARK    3  A    between atoms: C7_11  and  C8_12 
REMARK    4  A    between atoms: C12_18  and  N4_19 
ROOT
HETATM    1  C8  UNL     1      25.223   0.407  53.344  1.00  0.00     0.061 A 
HETATM    2  C9  UNL     1      25.919  -0.701  53.145  1.00  0.00     0.061 A 
HETATM    3  C10 UNL     1      27.270  -0.708  53.338  1.00  0.00     0.081 A 
HETATM    4  N2  UNL     1      28.196  -1.677  53.211  1.00  0.00    -0.241 NA
HETATM    5  C11 UNL     1      29.476  -1.451  53.455  1.00  0.00     0.236 A 
HETATM    6  N3  UNL     1      30.042  -0.291  53.849  1.00  0.00    -0.224 NA
HETATM    7  C12 UNL     1      29.196   0.739  54.005  1.00  0.00     0.142 A 
HETATM    8  C13 UNL     1      27.835   0.496  53.744  1.00  0.00     0.080 A 
HETATM    9  S2  UNL     1      26.359   1.625  53.836  1.00  0.00    -0.075 SA
ENDROOT
BRANCH   1  10
HETATM   10  C7  UNL     1      23.764   0.609  53.188  1.00  0.00    -0.058 C 
HETATM   11  C6  UNL     1      22.579   0.789  53.076  1.00  0.00    -0.080 C 
BRANCH  11  12
HETATM   12  C5  UNL     1      21.137   1.015  52.962  1.00  0.00     0.153 C 
HETATM   13  N1  UNL     1      20.706   0.350  51.764  1.00  0.00    -0.195 NA
HETATM   14  C2  UNL     1      19.337  -0.013  52.089  1.00  0.00     0.109 C 
HETATM   15  C3  UNL     1      19.570  -0.719  53.429  1.00  0.00     0.018 C 
HETATM   16  C4  UNL     1      20.388   0.373  54.127  1.00  0.00     0.034 C 
BRANCH  13  17
HETATM   17  S1  UNL     1      20.734   1.391  50.392  1.00  0.00     0.209 S 
HETATM   18  C1  UNL     1      20.879   3.084  50.833  1.00  0.00     0.180 C 
HETATM   19  O1  UNL     1      19.466   1.195  49.619  1.00  0.00    -0.212 OA
HETATM   20  O2  UNL     1      21.875   1.038  49.505  1.00  0.00    -0.212 OA
ENDBRANCH  13  17
ENDBRANCH  11  12
ENDBRANCH   1  10
BRANCH   7  21
HETATM   21  N4  UNL     1      29.548   2.053  54.409  1.00  0.00    -0.383 N 
HETATM   22  H13 UNL     1      30.495   2.419  54.692  1.00  0.00     0.157 HD
HETATM   23  H14 UNL     1      28.875   2.874  54.483  1.00  0.00     0.157 HD
ENDBRANCH   7  21
TORSDOF 4
ENDMDL
MODEL 2
REMARK VINA RESULT:      -7.6      2.118      2.462
REMARK  4 active torsions:
REMARK  status: ('A' for Active; 'I' for Inactive)
REMARK    1  A    between atoms: S1_2  and  N1_5 
REMARK    2  A    between atoms: C5_9  and  C6_10 
REMARK    3  A    between atoms: C7_11  and  C8_12 
REMARK    4  A    between atoms: C12_18  and  N4_19 
ROOT
HETATM    1  C8  UNL     1      25.457   0.746  52.570  1.00  0.00     0.061 A 
HETATM    2  C9  UNL     1      26.104  -0.408  52.551  1.00  0.00     0.061 A 
HETATM    3  C10 UNL     1      27.382  -0.487  53.022  1.00  0.00     0.081 A 
HETATM    4  N2  UNL     1      28.249  -1.514  53.117  1.00  0.00    -0.241 NA
HETATM    5  C11 UNL     1      29.461  -1.354  53.619  1.00  0.00     0.236 A 
HETATM    6  N3  UNL     1      30.009  -0.214  54.093  1.00  0.00    -0.224 NA
HETATM    7  C12 UNL     1      29.218   0.869  54.041  1.00  0.00     0.142 A 
HETATM    8  C13 UNL     1      27.928   0.697  53.506  1.00  0.00     0.080 A 
HETATM    9  S2  UNL     1      26.543   1.914  53.258  1.00  0.00    -0.075 SA
ENDROOT
BRANCH   1  10
HETATM   10  C7  UNL     1      24.077   1.027  52.107  1.00  0.00    -0.058 C 
HETATM   11  C6  UNL     1      22.955   1.235  51.724  1.00  0.00    -0.080 C 
BRANCH  11  12
HETATM   12  C5  UNL     1      21.594   1.472  51.242  1.00  0.00     0.153 C 
HETATM   13  N1  UNL     1      21.601   2.750  50.585  1.00  0.00    -0.195 NA
HETATM   14  C2  UNL     1      20.568   2.584  49.578  1.00  0.00     0.109 C 
HETATM   15  C3  UNL     1      21.046   1.280  48.930  1.00  0.00     0.018 C 
HETATM   16  C4  UNL     1      21.194   0.432  50.199  1.00  0.00     0.034 C 
BRANCH  13  17
HETATM   17  S1  UNL     1      21.189   4.037  51.653  1.00  0.00     0.209 S 
HETATM   18  C1  UNL     1      22.596   4.764  52.407  1.00  0.00     0.180 C 
HETATM   19  O1  UNL     1      20.285   3.499  52.720  1.00  0.00    -0.212 OA
HETATM   20  O2  UNL     1      20.451   5.097  50.914  1.00  0.00    -0.212 OA
ENDBRANCH  13  17
ENDBRANCH  11  12
ENDBRANCH   1  10
BRANCH   7  21
HETATM   21  N4  UNL     1      29.564   2.175  54.476  1.00  0.00    -0.383 N 
HETATM   22  H13 UNL     1      29.554   3.073  53.923  1.00  0.00     0.157 HD
HETATM   23  H14 UNL     1      29.893   2.429  55.455  1.00  0.00     0.157 HD
ENDBRANCH   7  21
TORSDOF 4
ENDMDL
MODEL 3
REMARK VINA RESULT:      -7.3      0.946      1.745
REMARK  4 active torsions:
REMARK  status: ('A' for Active; 'I' for Inactive)
REMARK    1  A    between atoms: S1_2  and  N1_5 
REMARK    2  A    between atoms: C5_9  and  C6_10 
REMARK    3  A    between atoms: C7_11  and  C8_12 
REMARK    4  A    between atoms: C12_18  and  N4_19 
ROOT
HETATM    1  C8  UNL     1      25.323   0.178  53.173  1.00  0.00     0.061 A 
HETATM    2  C9  UNL     1      26.353   0.991  53.350  1.00  0.00     0.061 A 
HETATM    3  C10 UNL     1      27.620   0.490  53.421  1.00  0.00     0.081 A 
HETATM    4  N2  UNL     1      28.817   1.082  53.591  1.00  0.00    -0.241 NA
HETATM    5  C11 UNL     1      29.938   0.381  53.630  1.00  0.00     0.236 A 
HETATM    6  N3  UNL     1      30.073  -0.957  53.513  1.00  0.00    -0.224 NA
HETATM    7  C12 UNL     1      28.929  -1.637  53.338  1.00  0.00     0.142 A 
HETATM    8  C13 UNL     1      27.738  -0.890  53.298  1.00  0.00     0.080 A 
HETATM    9  S2  UNL     1      25.971  -1.431  53.079  1.00  0.00    -0.075 SA
ENDROOT
BRANCH   1  10
HETATM   10  C7  UNL     1      23.887   0.531  53.072  1.00  0.00    -0.058 C 
HETATM   11  C6  UNL     1      22.716   0.800  53.001  1.00  0.00    -0.080 C 
BRANCH  11  12
HETATM   12  C5  UNL     1      21.287   1.106  52.915  1.00  0.00     0.153 C 
HETATM   13  N1  UNL     1      20.800   0.484  51.716  1.00  0.00    -0.195 NA
HETATM   14  C2  UNL     1      19.420   0.191  52.060  1.00  0.00     0.109 C 
HETATM   15  C3  UNL     1      19.636  -0.548  53.385  1.00  0.00     0.018 C 
HETATM   16  C4  UNL     1      20.525   0.487  54.085  1.00  0.00     0.034 C 
BRANCH  13  17
HETATM   17  S1  UNL     1      20.862   1.544  50.359  1.00  0.00     0.209 S 
HETATM   18  C1  UNL     1      20.832   3.236  50.823  1.00  0.00     0.180 C 
HETATM   19  O1  UNL     1      19.685   1.258  49.478  1.00  0.00    -0.212 OA
HETATM   20  O2  UNL     1      22.099   1.295  49.571  1.00  0.00    -0.212 OA
ENDBRANCH  13  17
ENDBRANCH  11  12
ENDBRANCH   1  10
BRANCH   7  21
HETATM   21  N4  UNL     1      28.811  -3.044  53.192  1.00  0.00    -0.383 N 
HETATM   22  H13 UNL     1      28.192  -3.708  53.729  1.00  0.00     0.157 HD
HETATM   23  H14 UNL     1      29.352  -3.636  52.493  1.00  0.00     0.157 HD
ENDBRANCH   7  21
TORSDOF 4
ENDMDL
MODEL 4
REMARK VINA RESULT:      -7.2      2.445      3.164
REMARK  4 active torsions:
REMARK  status: ('A' for Active; 'I' for Inactive)
REMARK    1  A    between atoms: S1_2  and  N1_5 
REMARK    2  A    between atoms: C5_9  and  C6_10 
REMARK    3  A    between atoms: C7_11  and  C8_12 
REMARK    4  A    between atoms: C12_18  and  N4_19 
ROOT
HETATM    1  C8  UNL     1      25.685   0.440  52.451  1.00  0.00     0.061 A 
HETATM    2  C9  UNL     1      26.749   1.148  52.795  1.00  0.00     0.061 A 
HETATM    3  C10 UNL     1      27.914   0.519  53.125  1.00  0.00     0.081 A 
HETATM    4  N2  UNL     1      29.119   0.989  53.503  1.00  0.00    -0.241 NA
HETATM    5  C11 UNL     1      30.125   0.176  53.779  1.00  0.00     0.236 A 
HETATM    6  N3  UNL     1      30.125  -1.173  53.734  1.00  0.00    -0.224 NA
HETATM    7  C12 UNL     1      28.963  -1.736  53.365  1.00  0.00     0.142 A 
HETATM    8  C13 UNL     1      27.894  -0.870  53.072  1.00  0.00     0.080 A 
HETATM    9  S2  UNL     1      26.150  -1.231  52.535  1.00  0.00    -0.075 SA
ENDROOT
BRANCH   1  10
HETATM   10  C7  UNL     1      24.343   0.938  52.063  1.00  0.00    -0.058 C 
HETATM   11  C6  UNL     1      23.254   1.329  51.733  1.00  0.00    -0.080 C 
BRANCH  11  12
HETATM   12  C5  UNL     1      21.934   1.798  51.309  1.00  0.00     0.153 C 
HETATM   13  N1  UNL     1      22.152   2.827  50.331  1.00  0.00    -0.195 NA
HETATM   14  C2  UNL     1      20.975   2.705  49.489  1.00  0.00     0.109 C 
HETATM   15  C3  UNL     1      21.029   1.203  49.186  1.00  0.00     0.018 C 
HETATM   16  C4  UNL     1      21.151   0.682  50.622  1.00  0.00     0.034 C 
BRANCH  13  17
HETATM   17  S1  UNL     1      22.217   4.396  51.036  1.00  0.00     0.209 S 
HETATM   18  C1  UNL     1      21.314   5.587  50.116  1.00  0.00     0.180 C 
HETATM   19  O1  UNL     1      23.651   4.824  51.116  1.00  0.00    -0.212 OA
HETATM   20  O2  UNL     1      21.670   4.359  52.420  1.00  0.00    -0.212 OA
ENDBRANCH  13  17
ENDBRANCH  11  12
ENDBRANCH   1  10
BRANCH   7  21
HETATM   21  N4  UNL     1      28.714  -3.128  53.244  1.00  0.00    -0.383 N 
HETATM   22  H13 UNL     1      28.562  -3.692  52.367  1.00  0.00     0.157 HD
HETATM   23  H14 UNL     1      28.645  -3.812  54.056  1.00  0.00     0.157 HD
ENDBRANCH   7  21
TORSDOF 4
ENDMDL
MODEL 5
REMARK VINA RESULT:      -7.0      2.386      3.012
REMARK  4 active torsions:
REMARK  status: ('A' for Active; 'I' for Inactive)
REMARK    1  A    between atoms: S1_2  and  N1_5 
REMARK    2  A    between atoms: C5_9  and  C6_10 
REMARK    3  A    between atoms: C7_11  and  C8_12 
REMARK    4  A    between atoms: C12_18  and  N4_19 
ROOT
HETATM    1  C8  UNL     1      24.668   1.171  52.214  1.00  0.00     0.061 A 
HETATM    2  C9  UNL     1      25.045   0.316  53.152  1.00  0.00     0.061 A 
HETATM    3  C10 UNL     1      26.265   0.447  53.750  1.00  0.00     0.081 A 
HETATM    4  N2  UNL     1      26.881  -0.267  54.710  1.00  0.00    -0.241 NA
HETATM    5  C11 UNL     1      28.090   0.050  55.143  1.00  0.00     0.236 A 
HETATM    6  N3  UNL     1      28.866   1.075  54.730  1.00  0.00    -0.224 NA
HETATM    7  C12 UNL     1      28.334   1.848  53.770  1.00  0.00     0.142 A 
HETATM    8  C13 UNL     1      27.049   1.508  53.310  1.00  0.00     0.080 A 
HETATM    9  S2  UNL     1      25.971   2.301  52.018  1.00  0.00    -0.075 SA
ENDROOT
BRANCH   1  10
HETATM   10  C7  UNL     1      23.394   1.192  51.457  1.00  0.00    -0.058 C 
HETATM   11  C6  UNL     1      22.355   1.229  50.850  1.00  0.00    -0.080 C 
BRANCH  11  12
HETATM   12  C5  UNL     1      21.083   1.288  50.127  1.00  0.00     0.153 C 
HETATM   13  N1  UNL     1      20.538   2.597  50.350  1.00  0.00    -0.195 NA
HETATM   14  C2  UNL     1      19.784   2.828  49.130  1.00  0.00     0.109 C 
HETATM   15  C3  UNL     1      20.868   2.512  48.093  1.00  0.00     0.018 C 
HETATM   16  C4  UNL     1      21.301   1.140  48.623  1.00  0.00     0.034 C 
BRANCH  13  17
HETATM   17  S1  UNL     1      19.488   2.645  51.714  1.00  0.00     0.209 S 
HETATM   18  C1  UNL     1      18.065   3.633  51.436  1.00  0.00     0.180 C 
HETATM   19  O1  UNL     1      20.247   3.199  52.881  1.00  0.00    -0.212 OA
HETATM   20  O2  UNL     1      19.043   1.269  52.065  1.00  0.00    -0.212 OA
ENDBRANCH  13  17
ENDBRANCH  11  12
ENDBRANCH   1  10
BRANCH   7  21
HETATM   21  N4  UNL     1      28.952   2.978  53.174  1.00  0.00    -0.383 N 
HETATM   22  H13 UNL     1      29.535   3.725  53.637  1.00  0.00     0.157 HD
HETATM   23  H14 UNL     1      28.905   3.231  52.142  1.00  0.00     0.157 HD
ENDBRANCH   7  21
TORSDOF 4
ENDMDL
MODEL 6
REMARK VINA RESULT:      -6.6      2.639      4.168
REMARK  4 active torsions:
REMARK  status: ('A' for Active; 'I' for Inactive)
REMARK    1  A    between atoms: S1_2  and  N1_5 
REMARK    2  A    between atoms: C5_9  and  C6_10 
REMARK    3  A    between atoms: C7_11  and  C8_12 
REMARK    4  A    between atoms: C12_18  and  N4_19 
ROOT
HETATM    1  C8  UNL     1      25.457   2.265  51.490  1.00  0.00     0.061 A 
HETATM    2  C9  UNL     1      26.735   2.551  51.681  1.00  0.00     0.061 A 
HETATM    3  C10 UNL     1      27.421   1.976  52.712  1.00  0.00     0.081 A 
HETATM    4  N2  UNL     1      28.699   2.090  53.121  1.00  0.00    -0.241 NA
HETATM    5  C11 UNL     1      29.154   1.424  54.168  1.00  0.00     0.236 A 
HETATM    6  N3  UNL     1      28.468   0.570  54.958  1.00  0.00    -0.224 NA
HETATM    7  C12 UNL     1      27.179   0.390  54.628  1.00  0.00     0.142 A 
HETATM    8  C13 UNL     1      26.697   1.101  53.513  1.00  0.00     0.080 A 
HETATM    9  S2  UNL     1      25.009   1.137  52.733  1.00  0.00    -0.075 SA
ENDROOT
BRANCH   1  10
HETATM   10  C7  UNL     1      24.553   2.783  50.436  1.00  0.00    -0.058 C 
HETATM   11  C6  UNL     1      23.807   3.186  49.582  1.00  0.00    -0.080 C 
BRANCH  11  12
HETATM   12  C5  UNL     1      22.896   3.655  48.536  1.00  0.00     0.153 C 
HETATM   13  N1  UNL     1      21.576   3.655  49.104  1.00  0.00    -0.195 NA
HETATM   14  C2  UNL     1      20.930   4.735  48.378  1.00  0.00     0.109 C 
HETATM   15  C3  UNL     1      21.961   5.847  48.598  1.00  0.00     0.018 C 
HETATM   16  C4  UNL     1      23.215   5.094  48.138  1.00  0.00     0.034 C 
BRANCH  13  17
HETATM   17  S1  UNL     1      20.745   2.172  48.826  1.00  0.00     0.209 S 
HETATM   18  C1  UNL     1      20.346   1.334  50.315  1.00  0.00     0.180 C 
HETATM   19  O1  UNL     1      21.615   1.289  47.986  1.00  0.00    -0.212 OA
HETATM   20  O2  UNL     1      19.484   2.425  48.077  1.00  0.00    -0.212 OA
ENDBRANCH  13  17
ENDBRANCH  11  12
ENDBRANCH   1  10
BRANCH   7  21
HETATM   21  N4  UNL     1      26.256  -0.451  55.301  1.00  0.00    -0.383 N 
HETATM   22  H13 UNL     1      26.147  -1.497  55.224  1.00  0.00     0.157 HD
HETATM   23  H14 UNL     1      25.524  -0.124  56.001  1.00  0.00     0.157 HD
ENDBRANCH   7  21
TORSDOF 4
ENDMDL
MODEL 7
REMARK VINA RESULT:      -6.6      3.239      4.160
REMARK  4 active torsions:
REMARK  status: ('A' for Active; 'I' for Inactive)
REMARK    1  A    between atoms: S1_2  and  N1_5 
REMARK    2  A    between atoms: C5_9  and  C6_10 
REMARK    3  A    between atoms: C7_11  and  C8_12 
REMARK    4  A    between atoms: C12_18  and  N4_19 
ROOT
HETATM    1  C8  UNL     1      24.794   1.918  51.717  1.00  0.00     0.061 A 
HETATM    2  C9  UNL     1      26.023   2.410  51.714  1.00  0.00     0.061 A 
HETATM    3  C10 UNL     1      26.931   1.995  52.645  1.00  0.00     0.081 A 
HETATM    4  N2  UNL     1      28.218   2.325  52.862  1.00  0.00    -0.241 NA
HETATM    5  C11 UNL     1      28.917   1.784  53.845  1.00  0.00     0.236 A 
HETATM    6  N3  UNL     1      28.496   0.867  54.742  1.00  0.00    -0.224 NA
HETATM    7  C12 UNL     1      27.221   0.472  54.606  1.00  0.00     0.142 A 
HETATM    8  C13 UNL     1      26.478   1.050  53.560  1.00  0.00     0.080 A 
HETATM    9  S2  UNL     1      24.714   0.787  53.032  1.00  0.00    -0.075 SA
ENDROOT
BRANCH   1  10
HETATM   10  C7  UNL     1      23.679   2.243  50.796  1.00  0.00    -0.058 C 
HETATM   11  C6  UNL     1      22.763   2.516  50.064  1.00  0.00    -0.080 C 
BRANCH  11  12
HETATM   12  C5  UNL     1      21.635   2.848  49.193  1.00  0.00     0.153 C 
HETATM   13  N1  UNL     1      21.600   4.279  49.084  1.00  0.00    -0.195 NA
HETATM   14  C2  UNL     1      21.038   4.473  47.758  1.00  0.00     0.109 C 
HETATM   15  C3  UNL     1      21.974   3.571  46.947  1.00  0.00     0.018 C 
HETATM   16  C4  UNL     1      21.850   2.294  47.786  1.00  0.00     0.034 C 
BRANCH  13  17
HETATM   17  S1  UNL     1      20.582   5.001  50.271  1.00  0.00     0.209 S 
HETATM   18  C1  UNL     1      19.468   3.852  50.992  1.00  0.00     0.180 C 
HETATM   19  O1  UNL     1      19.799   6.100  49.623  1.00  0.00    -0.212 OA
HETATM   20  O2  UNL     1      21.406   5.599  51.356  1.00  0.00    -0.212 OA
ENDBRANCH  13  17
ENDBRANCH  11  12
ENDBRANCH   1  10
BRANCH   7  21
HETATM   21  N4  UNL     1      26.550  -0.476  55.422  1.00  0.00    -0.383 N 
HETATM   22  H13 UNL     1      26.114  -0.330  56.370  1.00  0.00     0.157 HD
HETATM   23  H14 UNL     1      26.395  -1.499  55.174  1.00  0.00     0.157 HD
ENDBRANCH   7  21
TORSDOF 4
ENDMDL
MODEL 8
REMARK VINA RESULT:      -6.5      9.473     10.189
REMARK  4 active torsions:
REMARK  status: ('A' for Active; 'I' for Inactive)
REMARK    1  A    between atoms: S1_2  and  N1_5 
REMARK    2  A    between atoms: C5_9  and  C6_10 
REMARK    3  A    between atoms: C7_11  and  C8_12 
REMARK    4  A    between atoms: C12_18  and  N4_19 
ROOT
HETATM    1  C8  UNL     1      30.828   5.700  48.126  1.00  0.00     0.061 A 
HETATM    2  C9  UNL     1      31.125   4.772  47.229  1.00  0.00     0.061 A 
HETATM    3  C10 UNL     1      32.378   4.232  47.190  1.00  0.00     0.081 A 
HETATM    4  N2  UNL     1      32.933   3.295  46.399  1.00  0.00    -0.241 NA
HETATM    5  C11 UNL     1      34.193   2.920  46.545  1.00  0.00     0.236 A 
HETATM    6  N3  UNL     1      35.084   3.378  47.450  1.00  0.00    -0.224 NA
HETATM    7  C12 UNL     1      34.621   4.319  48.288  1.00  0.00     0.142 A 
HETATM    8  C13 UNL     1      33.281   4.717  48.130  1.00  0.00     0.080 A 
HETATM    9  S2  UNL     1      32.266   5.966  49.062  1.00  0.00    -0.075 SA
ENDROOT
BRANCH   1  10
HETATM   10  C7  UNL     1      29.535   6.398  48.322  1.00  0.00    -0.058 C 
HETATM   11  C6  UNL     1      28.482   6.953  48.500  1.00  0.00    -0.080 C 
BRANCH  11  12
HETATM   12  C5  UNL     1      27.193   7.609  48.726  1.00  0.00     0.153 C 
HETATM   13  N1  UNL     1      27.270   8.902  48.104  1.00  0.00    -0.195 NA
HETATM   14  C2  UNL     1      25.888   9.143  47.726  1.00  0.00     0.109 C 
HETATM   15  C3  UNL     1      25.596   7.841  46.972  1.00  0.00     0.018 C 
HETATM   16  C4  UNL     1      26.063   6.846  48.040  1.00  0.00     0.034 C 
BRANCH  13  17
HETATM   17  S1  UNL     1      27.809  10.121  49.194  1.00  0.00     0.209 S 
HETATM   18  C1  UNL     1      29.524  10.455  49.039  1.00  0.00     0.180 C 
HETATM   19  O1  UNL     1      27.523   9.669  50.594  1.00  0.00    -0.212 OA
HETATM   20  O2  UNL     1      27.061  11.386  48.957  1.00  0.00    -0.212 OA
ENDBRANCH  13  17
ENDBRANCH  11  12
ENDBRANCH   1  10
BRANCH   7  21
HETATM   21  N4  UNL     1      35.362   4.953  49.319  1.00  0.00    -0.383 N 
HETATM   22  H13 UNL     1      36.230   4.609  49.808  1.00  0.00     0.157 HD
HETATM   23  H14 UNL     1      35.128   5.896  49.752  1.00  0.00     0.157 HD
ENDBRANCH   7  21
TORSDOF 4
ENDMDL
MODEL 9
REMARK VINA RESULT:      -6.5      3.889      6.058
REMARK  4 active torsions:
REMARK  status: ('A' for Active; 'I' for Inactive)
REMARK    1  A    between atoms: S1_2  and  N1_5 
REMARK    2  A    between atoms: C5_9  and  C6_10 
REMARK    3  A    between atoms: C7_11  and  C8_12 
REMARK    4  A    between atoms: C12_18  and  N4_19 
ROOT
HETATM    1  C8  UNL     1      23.577   1.345  51.944  1.00  0.00     0.061 A 
HETATM    2  C9  UNL     1      22.393   0.781  52.125  1.00  0.00     0.061 A 
HETATM    3  C10 UNL     1      22.209  -0.120  53.133  1.00  0.00     0.081 A 
HETATM    4  N2  UNL     1      21.132  -0.824  53.530  1.00  0.00    -0.241 NA
HETATM    5  C11 UNL     1      21.186  -1.656  54.556  1.00  0.00     0.236 A 
HETATM    6  N3  UNL     1      22.256  -1.929  55.334  1.00  0.00    -0.224 NA
HETATM    7  C12 UNL     1      23.382  -1.272  55.016  1.00  0.00     0.142 A 
HETATM    8  C13 UNL     1      23.321  -0.387  53.924  1.00  0.00     0.080 A 
HETATM    9  S2  UNL     1      24.628   0.699  53.165  1.00  0.00    -0.075 SA
ENDROOT
BRANCH   1  10
HETATM   10  C7  UNL     1      23.968   2.336  50.913  1.00  0.00    -0.058 C 
HETATM   11  C6  UNL     1      24.279   3.157  50.090  1.00  0.00    -0.080 C 
BRANCH  11  12
HETATM   12  C5  UNL     1      24.641   4.169  49.096  1.00  0.00     0.153 C 
HETATM   13  N1  UNL     1      23.800   5.308  49.336  1.00  0.00    -0.195 NA
HETATM   14  C2  UNL     1      24.640   6.409  48.898  1.00  0.00     0.109 C 
HETATM   15  C3  UNL     1      25.912   6.095  49.694  1.00  0.00     0.018 C 
HETATM   16  C4  UNL     1      26.085   4.628  49.284  1.00  0.00     0.034 C 
BRANCH  13  17
HETATM   17  S1  UNL     1      22.352   5.260  48.405  1.00  0.00     0.209 S 
HETATM   18  C1  UNL     1      21.924   6.827  47.742  1.00  0.00     0.180 C 
HETATM   19  O1  UNL     1      21.237   4.779  49.282  1.00  0.00    -0.212 OA
HETATM   20  O2  UNL     1      22.501   4.298  47.279  1.00  0.00    -0.212 OA
ENDBRANCH  13  17
ENDBRANCH  11  12
ENDBRANCH   1  10
BRANCH   7  21
HETATM   21  N4  UNL     1      24.630  -1.388  55.680  1.00  0.00    -0.383 N 
HETATM   22  H13 UNL     1      25.492  -0.793  55.562  1.00  0.00     0.157 HD
HETATM   23  H14 UNL     1      24.870  -2.121  56.413  1.00  0.00     0.157 HD
ENDBRANCH   7  21
TORSDOF 4
ENDMDL
