MODEL 1
REMARK VINA RESULT:      -8.0      0.000      0.000
REMARK  1 active torsions:
REMARK  status: ('A' for Active; 'I' for Inactive)
REMARK    1  A    between atoms: C4_5  and  C5_6 
ROOT
HETATM    1  C5  UNL     1      22.794   2.606  51.212  1.00  0.00     0.130 C 
HETATM    2  C6  UNL     1      22.843   1.948  49.837  1.00  0.00     0.087 C 
HETATM    3  C7  UNL     1      23.835   2.990  49.538  1.00  0.00     0.013 C 
HETATM    4  C8  UNL     1      24.758   3.813  49.187  1.00  0.00     0.005 C 
HETATM    5  C9  UNL     1      25.513   5.054  49.186  1.00  0.00     0.053 C 
HETATM    6  C10 UNL     1      26.544   5.627  48.611  1.00  0.00     0.004 C 
HETATM    7  C11 UNL     1      26.561   6.950  49.283  1.00  0.00    -0.008 C 
HETATM    8  C12 UNL     1      25.822   7.543  50.221  1.00  0.00     0.085 C 
HETATM    9  N1  UNL     1      24.761   7.602  51.153  1.00  0.00    -0.351 N 
HETATM   10  C13 UNL     1      23.404   7.326  50.902  1.00  0.00     0.136 A 
HETATM   11  C14 UNL     1      22.040   7.757  50.722  1.00  0.00     0.103 A 
HETATM   12  S1  UNL     1      21.134   6.086  50.391  1.00  0.00    -0.060 SA
HETATM   13  C15 UNL     1      22.801   5.207  50.575  1.00  0.00     0.175 A 
HETATM   14  N2  UNL     1      23.574   6.006  50.790  1.00  0.00    -0.206 NA
HETATM   15  N3  UNL     1      23.098   3.811  50.467  1.00  0.00    -0.320 N 
HETATM   16  H11 UNL     1      24.694   7.823  52.153  1.00  0.00     0.166 HD
ENDROOT
BRANCH   1  17
HETATM   17  C4  UNL     1      23.801   2.143  52.156  1.00  0.00    -0.035 A 
HETATM   18  C3  UNL     1      24.757   2.775  52.902  1.00  0.00     0.011 A 
HETATM   19  C2  UNL     1      25.632   2.216  53.790  1.00  0.00     0.024 A 
HETATM   20  C1  UNL     1      25.578   0.844  53.990  1.00  0.00     0.034 A 
HETATM   21 CL1  UNL     1      26.724   0.233  55.152  1.00  0.00    -0.084 Cl
HETATM   22  C17 UNL     1      24.634   0.097  53.272  1.00  0.00     0.024 A 
HETATM   23  C16 UNL     1      23.810   0.769  52.410  1.00  0.00     0.011 A 
ENDBRANCH   1  17
TORSDOF 1
ENDMDL
MODEL 2
REMARK VINA RESULT:      -7.5      1.329      1.593
REMARK  1 active torsions:
REMARK  status: ('A' for Active; 'I' for Inactive)
REMARK    1  A    between atoms: C4_5  and  C5_6 
ROOT
HETATM    1  C5  UNL     1      21.508   2.168  50.337  1.00  0.00     0.130 C 
HETATM    2  C6  UNL     1      21.813   1.697  48.920  1.00  0.00     0.087 C 
HETATM    3  C7  UNL     1      22.897   2.687  48.983  1.00  0.00     0.013 C 
HETATM    4  C8  UNL     1      23.913   3.474  48.950  1.00  0.00     0.005 C 
HETATM    5  C9  UNL     1      24.713   4.639  49.283  1.00  0.00     0.053 C 
HETATM    6  C10 UNL     1      25.869   5.200  49.018  1.00  0.00     0.004 C 
HETATM    7  C11 UNL     1      25.810   6.417  49.867  1.00  0.00    -0.008 C 
HETATM    8  C12 UNL     1      24.921   6.936  50.712  1.00  0.00     0.085 C 
HETATM    9  N1  UNL     1      23.691   6.955  51.409  1.00  0.00    -0.351 N 
HETATM   10  C13 UNL     1      22.405   6.824  50.852  1.00  0.00     0.136 A 
HETATM   11  C14 UNL     1      21.133   7.382  50.465  1.00  0.00     0.103 A 
HETATM   12  S1  UNL     1      20.236   5.847  49.717  1.00  0.00    -0.060 SA
HETATM   13  C15 UNL     1      21.779   4.822  50.103  1.00  0.00     0.175 A 
HETATM   14  N2  UNL     1      22.529   5.521  50.584  1.00  0.00    -0.206 NA
HETATM   15  N3  UNL     1      22.023   3.433  49.854  1.00  0.00    -0.320 N 
HETATM   16  H11 UNL     1      23.425   7.047  52.397  1.00  0.00     0.166 HD
ENDROOT
BRANCH   1  17
HETATM   17  C4  UNL     1      22.269   1.506  51.387  1.00  0.00    -0.035 A 
HETATM   18  C3  UNL     1      23.379   1.848  52.109  1.00  0.00     0.011 A 
HETATM   19  C2  UNL     1      23.982   1.137  53.107  1.00  0.00     0.024 A 
HETATM   20  C1  UNL     1      23.435  -0.088  53.463  1.00  0.00     0.034 A 
HETATM   21 CL1  UNL     1      24.269  -0.909  54.755  1.00  0.00    -0.084 Cl
HETATM   22  C17 UNL     1      22.295  -0.538  52.784  1.00  0.00     0.024 A 
HETATM   23  C16 UNL     1      21.779   0.264  51.802  1.00  0.00     0.011 A 
ENDBRANCH   1  17
TORSDOF 1
ENDMDL
MODEL 3
REMARK VINA RESULT:      -7.5      7.578     10.267
REMARK  1 active torsions:
REMARK  status: ('A' for Active; 'I' for Inactive)
REMARK    1  A    between atoms: C4_5  and  C5_6 
ROOT
HETATM    1  C5  UNL     1      31.244   8.091  47.068  1.00  0.00     0.130 C 
HETATM    2  C6  UNL     1      31.302   8.370  45.570  1.00  0.00     0.087 C 
HETATM    3  C7  UNL     1      32.012   7.085  45.509  1.00  0.00     0.013 C 
HETATM    4  C8  UNL     1      32.584   5.948  45.328  1.00  0.00     0.005 C 
HETATM    5  C9  UNL     1      33.396   4.792  45.664  1.00  0.00     0.053 C 
HETATM    6  C10 UNL     1      33.828   3.660  45.160  1.00  0.00     0.004 C 
HETATM    7  C11 UNL     1      34.626   3.119  46.288  1.00  0.00    -0.008 C 
HETATM    8  C12 UNL     1      34.920   3.530  47.521  1.00  0.00     0.085 C 
HETATM    9  N1  UNL     1      34.866   4.437  48.604  1.00  0.00    -0.351 N 
HETATM   10  C13 UNL     1      35.157   5.813  48.565  1.00  0.00     0.136 A 
HETATM   11  C14 UNL     1      36.011   6.933  48.876  1.00  0.00     0.103 A 
HETATM   12  S1  UNL     1      35.034   8.406  48.104  1.00  0.00    -0.060 SA
HETATM   13  C15 UNL     1      33.711   7.170  47.551  1.00  0.00     0.175 A 
HETATM   14  N2  UNL     1      34.050   6.146  47.895  1.00  0.00    -0.206 NA
HETATM   15  N3  UNL     1      32.500   7.412  46.826  1.00  0.00    -0.320 N 
HETATM   16  H11 UNL     1      34.617   4.357  49.597  1.00  0.00     0.166 HD
ENDROOT
BRANCH   1  17
HETATM   17  C4  UNL     1      30.123   7.268  47.501  1.00  0.00    -0.035 A 
HETATM   18  C3  UNL     1      30.020   5.998  47.997  1.00  0.00     0.011 A 
HETATM   19  C2  UNL     1      28.891   5.345  48.404  1.00  0.00     0.024 A 
HETATM   20  C1  UNL     1      27.680   6.017  48.320  1.00  0.00     0.034 A 
HETATM   21 CL1  UNL     1      26.303   5.104  48.876  1.00  0.00    -0.084 Cl
HETATM   22  C17 UNL     1      27.670   7.327  47.823  1.00  0.00     0.024 A 
HETATM   23  C16 UNL     1      28.866   7.876  47.446  1.00  0.00     0.011 A 
ENDBRANCH   1  17
TORSDOF 1
ENDMDL
MODEL 4
REMARK VINA RESULT:      -7.2      2.591      5.775
REMARK  1 active torsions:
REMARK  status: ('A' for Active; 'I' for Inactive)
REMARK    1  A    between atoms: C4_5  and  C5_6 
ROOT
HETATM    1  C5  UNL     1      24.411   6.757  49.133  1.00  0.00     0.130 C 
HETATM    2  C6  UNL     1      24.228   7.613  50.382  1.00  0.00     0.087 C 
HETATM    3  C7  UNL     1      24.089   6.321  51.067  1.00  0.00     0.013 C 
HETATM    4  C8  UNL     1      24.017   5.253  51.779  1.00  0.00     0.005 C 
HETATM    5  C9  UNL     1      23.737   3.858  52.072  1.00  0.00     0.053 C 
HETATM    6  C10 UNL     1      23.787   2.986  53.050  1.00  0.00     0.004 C 
HETATM    7  C11 UNL     1      23.285   1.760  52.380  1.00  0.00    -0.008 C 
HETATM    8  C12 UNL     1      22.866   1.459  51.152  1.00  0.00     0.085 C 
HETATM    9  N1  UNL     1      22.566   1.759  49.803  1.00  0.00    -0.351 N 
HETATM   10  C13 UNL     1      21.749   2.804  49.334  1.00  0.00     0.136 A 
HETATM   11  C14 UNL     1      20.523   3.282  48.744  1.00  0.00     0.103 A 
HETATM   12  S1  UNL     1      20.822   5.187  48.691  1.00  0.00    -0.060 SA
HETATM   13  C15 UNL     1      22.522   4.889  49.469  1.00  0.00     0.175 A 
HETATM   14  N2  UNL     1      22.624   3.772  49.624  1.00  0.00    -0.206 NA
HETATM   15  N3  UNL     1      23.527   5.844  49.829  1.00  0.00    -0.320 N 
HETATM   16  H11 UNL     1      22.838   1.354  48.899  1.00  0.00     0.166 HD
ENDROOT
BRANCH   1  17
HETATM   17  C4  UNL     1      25.772   6.299  48.890  1.00  0.00    -0.035 A 
HETATM   18  C3  UNL     1      26.385   5.079  48.961  1.00  0.00     0.011 A 
HETATM   19  C2  UNL     1      27.684   4.775  48.669  1.00  0.00     0.024 A 
HETATM   20  C1  UNL     1      28.518   5.800  48.244  1.00  0.00     0.034 A 
HETATM   21 CL1  UNL     1      30.150   5.307  47.883  1.00  0.00    -0.084 Cl
HETATM   22  C17 UNL     1      27.992   7.094  48.138  1.00  0.00     0.024 A 
HETATM   23  C16 UNL     1      26.673   7.276  48.459  1.00  0.00     0.011 A 
ENDBRANCH   1  17
TORSDOF 1
ENDMDL
MODEL 5
REMARK VINA RESULT:      -7.0      2.419      3.610
REMARK  1 active torsions:
REMARK  status: ('A' for Active; 'I' for Inactive)
REMARK    1  A    between atoms: C4_5  and  C5_6 
ROOT
HETATM    1  C5  UNL     1      23.238   1.510  53.390  1.00  0.00     0.130 C 
HETATM    2  C6  UNL     1      21.967   0.669  53.456  1.00  0.00     0.087 C 
HETATM    3  C7  UNL     1      21.938   0.867  52.000  1.00  0.00     0.013 C 
HETATM    4  C8  UNL     1      21.847   0.919  50.719  1.00  0.00     0.005 C 
HETATM    5  C9  UNL     1      22.023   1.472  49.388  1.00  0.00     0.053 C 
HETATM    6  C10 UNL     1      21.760   1.218  48.128  1.00  0.00     0.004 C 
HETATM    7  C11 UNL     1      22.355   2.400  47.456  1.00  0.00    -0.008 C 
HETATM    8  C12 UNL     1      23.005   3.490  47.862  1.00  0.00     0.085 C 
HETATM    9  N1  UNL     1      23.574   4.340  48.839  1.00  0.00    -0.351 N 
HETATM   10  C13 UNL     1      22.941   4.842  49.990  1.00  0.00     0.136 A 
HETATM   11  C14 UNL     1      22.345   5.924  50.734  1.00  0.00     0.103 A 
HETATM   12  S1  UNL     1      21.824   5.045  52.370  1.00  0.00    -0.060 SA
HETATM   13  C15 UNL     1      22.532   3.436  51.668  1.00  0.00     0.175 A 
HETATM   14  N2  UNL     1      22.936   3.673  50.638  1.00  0.00    -0.206 NA
HETATM   15  N3  UNL     1      22.572   2.135  52.265  1.00  0.00    -0.320 N 
HETATM   16  H11 UNL     1      24.500   4.765  48.971  1.00  0.00     0.166 HD
ENDROOT
BRANCH   1  17
HETATM   17  C4  UNL     1      24.457   0.767  53.103  1.00  0.00    -0.035 A 
HETATM   18  C3  UNL     1      25.428   0.878  52.146  1.00  0.00     0.011 A 
HETATM   19  C2  UNL     1      26.558   0.124  52.007  1.00  0.00     0.024 A 
HETATM   20  C1  UNL     1      26.788  -0.889  52.927  1.00  0.00     0.034 A 
HETATM   21 CL1  UNL     1      28.263  -1.783  52.670  1.00  0.00    -0.084 Cl
HETATM   22  C17 UNL     1      25.853  -1.093  53.950  1.00  0.00     0.024 A 
HETATM   23  C16 UNL     1      24.758  -0.272  53.987  1.00  0.00     0.011 A 
ENDBRANCH   1  17
TORSDOF 1
ENDMDL
MODEL 6
REMARK VINA RESULT:      -6.9      6.091      8.663
REMARK  1 active torsions:
REMARK  status: ('A' for Active; 'I' for Inactive)
REMARK    1  A    between atoms: C4_5  and  C5_6 
ROOT
HETATM    1  C5  UNL     1      30.240   6.256  47.667  1.00  0.00     0.130 C 
HETATM    2  C6  UNL     1      31.165   6.124  48.873  1.00  0.00     0.087 C 
HETATM    3  C7  UNL     1      31.024   7.584  48.953  1.00  0.00     0.013 C 
HETATM    4  C8  UNL     1      30.923   8.849  49.158  1.00  0.00     0.005 C 
HETATM    5  C9  UNL     1      30.725  10.247  48.817  1.00  0.00     0.053 C 
HETATM    6  C10 UNL     1      30.688  11.440  49.361  1.00  0.00     0.004 C 
HETATM    7  C11 UNL     1      30.408  12.296  48.181  1.00  0.00    -0.008 C 
HETATM    8  C12 UNL     1      30.218  12.079  46.880  1.00  0.00     0.085 C 
HETATM    9  N1  UNL     1      30.116  11.262  45.731  1.00  0.00    -0.351 N 
HETATM   10  C13 UNL     1      31.053  10.309  45.289  1.00  0.00     0.136 A 
HETATM   11  C14 UNL     1      32.076   9.875  44.371  1.00  0.00     0.103 A 
HETATM   12  S1  UNL     1      32.539   8.142  45.079  1.00  0.00    -0.060 SA
HETATM   13  C15 UNL     1      31.247   8.411  46.437  1.00  0.00     0.175 A 
HETATM   14  N2  UNL     1      30.783   9.427  46.255  1.00  0.00    -0.206 NA
HETATM   15  N3  UNL     1      30.885   7.544  47.518  1.00  0.00    -0.320 N 
HETATM   16  H11 UNL     1      29.411  11.143  44.994  1.00  0.00     0.166 HD
ENDROOT
BRANCH   1  17
HETATM   17  C4  UNL     1      28.817   6.263  47.976  1.00  0.00    -0.035 A 
HETATM   18  C3  UNL     1      27.821   7.188  47.822  1.00  0.00     0.011 A 
HETATM   19  C2  UNL     1      26.497   7.053  48.128  1.00  0.00     0.024 A 
HETATM   20  C1  UNL     1      26.067   5.847  48.664  1.00  0.00     0.034 A 
HETATM   21 CL1  UNL     1      24.360   5.772  49.006  1.00  0.00    -0.084 Cl
HETATM   22  C17 UNL     1      27.007   4.829  48.867  1.00  0.00     0.024 A 
HETATM   23  C16 UNL     1      28.307   5.081  48.521  1.00  0.00     0.011 A 
ENDBRANCH   1  17
TORSDOF 1
ENDMDL
MODEL 7
REMARK VINA RESULT:      -6.9      3.215      3.608
REMARK  1 active torsions:
REMARK  status: ('A' for Active; 'I' for Inactive)
REMARK    1  A    between atoms: C4_5  and  C5_6 
ROOT
HETATM    1  C5  UNL     1      21.461   1.189  52.504  1.00  0.00     0.130 C 
HETATM    2  C6  UNL     1      21.161  -0.144  51.827  1.00  0.00     0.087 C 
HETATM    3  C7  UNL     1      21.445   0.591  50.587  1.00  0.00     0.013 C 
HETATM    4  C8  UNL     1      21.734   1.114  49.449  1.00  0.00     0.005 C 
HETATM    5  C9  UNL     1      21.877   2.167  48.459  1.00  0.00     0.053 C 
HETATM    6  C10 UNL     1      22.253   2.364  47.218  1.00  0.00     0.004 C 
HETATM    7  C11 UNL     1      22.050   3.828  47.076  1.00  0.00    -0.008 C 
HETATM    8  C12 UNL     1      21.623   4.805  47.875  1.00  0.00     0.085 C 
HETATM    9  N1  UNL     1      21.134   5.325  49.095  1.00  0.00    -0.351 N 
HETATM   10  C13 UNL     1      20.022   4.862  49.823  1.00  0.00     0.136 A 
HETATM   11  C14 UNL     1      18.664   5.009  50.286  1.00  0.00     0.103 A 
HETATM   12  S1  UNL     1      18.420   3.403  51.326  1.00  0.00    -0.060 SA
HETATM   13  C15 UNL     1      20.198   2.917  50.895  1.00  0.00     0.175 A 
HETATM   14  N2  UNL     1      20.618   3.741  50.241  1.00  0.00    -0.206 NA
HETATM   15  N3  UNL     1      20.929   1.746  51.278  1.00  0.00    -0.320 N 
HETATM   16  H11 UNL     1      21.425   6.085  49.721  1.00  0.00     0.166 HD
ENDROOT
BRANCH   1  17
HETATM   17  C4  UNL     1      22.868   1.438  52.785  1.00  0.00    -0.035 A 
HETATM   18  C3  UNL     1      23.656   2.555  52.743  1.00  0.00     0.011 A 
HETATM   19  C2  UNL     1      24.978   2.661  53.069  1.00  0.00     0.024 A 
HETATM   20  C1  UNL     1      25.641   1.520  53.500  1.00  0.00     0.034 A 
HETATM   21 CL1  UNL     1      27.319   1.764  53.905  1.00  0.00    -0.084 Cl
HETATM   22  C17 UNL     1      24.927   0.317  53.578  1.00  0.00     0.024 A 
HETATM   23  C16 UNL     1      23.605   0.335  53.224  1.00  0.00     0.011 A 
ENDBRANCH   1  17
TORSDOF 1
ENDMDL
MODEL 8
REMARK VINA RESULT:      -6.8      8.096      9.827
REMARK  1 active torsions:
REMARK  status: ('A' for Active; 'I' for Inactive)
REMARK    1  A    between atoms: C4_5  and  C5_6 
ROOT
HETATM    1  C5  UNL     1      33.802   6.279  47.074  1.00  0.00     0.130 C 
HETATM    2  C6  UNL     1      33.987   6.836  48.481  1.00  0.00     0.087 C 
HETATM    3  C7  UNL     1      32.559   7.168  48.378  1.00  0.00     0.013 C 
HETATM    4  C8  UNL     1      31.305   7.445  48.424  1.00  0.00     0.005 C 
HETATM    5  C9  UNL     1      29.993   7.791  47.907  1.00  0.00     0.053 C 
HETATM    6  C10 UNL     1      28.766   8.034  48.303  1.00  0.00     0.004 C 
HETATM    7  C11 UNL     1      28.085   8.302  47.011  1.00  0.00    -0.008 C 
HETATM    8  C12 UNL     1      28.460   8.327  45.733  1.00  0.00     0.085 C 
HETATM    9  N1  UNL     1      29.398   8.207  44.682  1.00  0.00    -0.351 N 
HETATM   10  C13 UNL     1      30.646   8.850  44.588  1.00  0.00     0.136 A 
HETATM   11  C14 UNL     1      31.515   9.843  44.007  1.00  0.00     0.103 A 
HETATM   12  S1  UNL     1      33.156   9.555  44.979  1.00  0.00    -0.060 SA
HETATM   13  C15 UNL     1      32.287   8.168  45.931  1.00  0.00     0.175 A 
HETATM   14  N2  UNL     1      31.227   8.111  45.538  1.00  0.00    -0.206 NA
HETATM   15  N3  UNL     1      32.806   7.325  46.966  1.00  0.00    -0.320 N 
HETATM   16  H11 UNL     1      29.432   7.671  43.806  1.00  0.00     0.166 HD
ENDROOT
BRANCH   1  17
HETATM   17  C4  UNL     1      33.323   4.905  47.010  1.00  0.00    -0.035 A 
HETATM   18  C3  UNL     1      32.240   4.308  46.424  1.00  0.00     0.011 A 
HETATM   19  C2  UNL     1      31.920   2.981  46.412  1.00  0.00     0.024 A 
HETATM   20  C1  UNL     1      32.768   2.095  47.061  1.00  0.00     0.034 A 
HETATM   21 CL1  UNL     1      32.278   0.424  46.975  1.00  0.00    -0.084 Cl
HETATM   22  C17 UNL     1      33.908   2.601  47.699  1.00  0.00     0.024 A 
HETATM   23  C16 UNL     1      34.125   3.951  47.643  1.00  0.00     0.011 A 
ENDBRANCH   1  17
TORSDOF 1
ENDMDL
MODEL 9
REMARK VINA RESULT:      -6.7      5.079      7.470
REMARK  1 active torsions:
REMARK  status: ('A' for Active; 'I' for Inactive)
REMARK    1  A    between atoms: C4_5  and  C5_6 
ROOT
HETATM    1  C5  UNL     1      26.619   8.440  47.757  1.00  0.00     0.130 C 
HETATM    2  C6  UNL     1      26.107   8.644  46.335  1.00  0.00     0.087 C 
HETATM    3  C7  UNL     1      27.514   8.453  45.959  1.00  0.00     0.013 C 
HETATM    4  C8  UNL     1      28.700   8.238  45.511  1.00  0.00     0.005 C 
HETATM    5  C9  UNL     1      30.152   8.209  45.531  1.00  0.00     0.053 C 
HETATM    6  C10 UNL     1      31.181   7.882  44.787  1.00  0.00     0.004 C 
HETATM    7  C11 UNL     1      32.315   8.210  45.688  1.00  0.00    -0.008 C 
HETATM    8  C12 UNL     1      32.429   8.697  46.922  1.00  0.00     0.085 C 
HETATM    9  N1  UNL     1      31.920   9.198  48.143  1.00  0.00    -0.351 N 
HETATM   10  C13 UNL     1      30.998  10.248  48.303  1.00  0.00     0.136 A 
HETATM   11  C14 UNL     1      30.679  11.601  48.685  1.00  0.00     0.103 A 
HETATM   12  S1  UNL     1      28.787  11.684  48.315  1.00  0.00    -0.060 SA
HETATM   13  C15 UNL     1      28.875   9.883  47.740  1.00  0.00     0.175 A 
HETATM   14  N2  UNL     1      29.951   9.550  47.854  1.00  0.00    -0.206 NA
HETATM   15  N3  UNL     1      27.826   9.048  47.236  1.00  0.00    -0.320 N 
HETATM   16  H11 UNL     1      32.056   8.955  49.132  1.00  0.00     0.166 HD
ENDROOT
BRANCH   1  17
HETATM   17  C4  UNL     1      26.713   7.052  48.188  1.00  0.00    -0.035 A 
HETATM   18  C3  UNL     1      27.748   6.165  48.297  1.00  0.00     0.011 A 
HETATM   19  C2  UNL     1      27.705   4.879  48.756  1.00  0.00     0.024 A 
HETATM   20  C1  UNL     1      26.482   4.371  49.171  1.00  0.00     0.034 A 
HETATM   21 CL1  UNL     1      26.537   2.728  49.751  1.00  0.00    -0.084 Cl
HETATM   22  C17 UNL     1      25.352   5.196  49.099  1.00  0.00     0.024 A 
HETATM   23  C16 UNL     1      25.520   6.468  48.622  1.00  0.00     0.011 A 
ENDBRANCH   1  17
TORSDOF 1
ENDMDL
