MODEL 1
REMARK VINA RESULT:      -7.9      0.000      0.000
REMARK  7 active torsions:
REMARK  status: ('A' for Active; 'I' for Inactive)
REMARK    1  A    between atoms: C2_2  and  N1_3 
REMARK    2  A    between atoms: N1_3  and  C3_4 
REMARK    3  A    between atoms: N1_3  and  C5_6 
REMARK    4  A    between atoms: C5_6  and  C6_7 
REMARK    5  A    between atoms: C7_8  and  S1_9 
REMARK    6  A    between atoms: S1_9  and  C8_10 
REMARK    7  A    between atoms: C13_17  and  N4_18 
ROOT
HETATM    1  C8  UNL     1      22.026   1.327  50.689  1.00  0.00     0.014 A 
HETATM    2  C9  UNL     1      20.806   0.719  50.917  1.00  0.00     0.022 A 
HETATM    3  C10 UNL     1      20.560  -0.094  52.006  1.00  0.00     0.034 A 
HETATM    4  C11 UNL     1      21.572  -0.331  52.940  1.00  0.00     0.072 A 
HETATM    5  N2  UNL     1      21.440  -1.096  54.038  1.00  0.00    -0.241 NA
HETATM    6  C12 UNL     1      22.497  -1.246  54.877  1.00  0.00     0.236 A 
HETATM    7  N3  UNL     1      23.692  -0.636  54.631  1.00  0.00    -0.223 NA
HETATM    8  C13 UNL     1      23.864   0.150  53.524  1.00  0.00     0.143 A 
HETATM    9  C19 UNL     1      22.781   0.284  52.695  1.00  0.00     0.040 A 
HETATM   10  C20 UNL     1      23.009   1.091  51.604  1.00  0.00     0.037 A 
ENDROOT
BRANCH   1  11
HETATM   11  S1  UNL     1      22.311   2.370  49.277  1.00  0.00    -0.039 SA
BRANCH  11  12
HETATM   12  C7  UNL     1      23.612   3.525  49.564  1.00  0.00    -0.027 C 
HETATM   13  C6  UNL     1      24.495   4.320  49.780  1.00  0.00    -0.064 C 
BRANCH  13  14
HETATM   14  C5  UNL     1      25.576   5.281  50.067  1.00  0.00     0.366 C 
BRANCH  14  15
HETATM   15  N1  UNL     1      26.345   5.607  48.896  1.00  0.00     0.098 N 
BRANCH  15  16
HETATM   16  C2  UNL     1      26.763   6.980  48.874  1.00  0.00     0.269 C 
HETATM   17  C1  UNL     1      26.139   7.696  50.061  1.00  0.00     0.037 C 
ENDBRANCH  15  16
BRANCH  15  18
HETATM   18  C3  UNL     1      27.490   4.757  48.713  1.00  0.00     0.269 C 
HETATM   19  C4  UNL     1      28.726   5.521  48.302  1.00  0.00     0.037 C 
ENDBRANCH  15  18
ENDBRANCH  14  15
ENDBRANCH  13  14
ENDBRANCH  11  12
ENDBRANCH   1  11
BRANCH   8  20
HETATM   20  N4  UNL     1      25.170   0.647  53.455  1.00  0.00    -0.336 N 
HETATM   21  C14 UNL     1      26.071  -0.475  53.319  1.00  0.00     0.120 A 
HETATM   22  C15 UNL     1      27.410  -0.375  53.238  1.00  0.00     0.087 A 
HETATM   23 CL1  UNL     1      28.563  -1.685  53.074  1.00  0.00    -0.080 Cl
HETATM   24  C16 UNL     1      28.022   0.948  53.282  1.00  0.00     0.137 A 
HETATM   25  F1  UNL     1      29.352   1.225  53.214  1.00  0.00    -0.205 F 
HETATM   26  C17 UNL     1      27.199   1.966  53.401  1.00  0.00     0.037 A 
HETATM   27  C18 UNL     1      25.717   1.987  53.499  1.00  0.00     0.160 A 
ENDBRANCH   8  20
TORSDOF 7
ENDMDL
MODEL 2
REMARK VINA RESULT:      -7.5      3.296      4.911
REMARK  7 active torsions:
REMARK  status: ('A' for Active; 'I' for Inactive)
REMARK    1  A    between atoms: C2_2  and  N1_3 
REMARK    2  A    between atoms: N1_3  and  C3_4 
REMARK    3  A    between atoms: N1_3  and  C5_6 
REMARK    4  A    between atoms: C5_6  and  C6_7 
REMARK    5  A    between atoms: C7_8  and  S1_9 
REMARK    6  A    between atoms: S1_9  and  C8_10 
REMARK    7  A    between atoms: C13_17  and  N4_18 
ROOT
HETATM    1  C8  UNL     1      25.478   0.209  53.557  1.00  0.00     0.014 A 
HETATM    2  C9  UNL     1      25.467  -0.595  54.682  1.00  0.00     0.022 A 
HETATM    3  C10 UNL     1      24.315  -1.165  55.188  1.00  0.00     0.034 A 
HETATM    4  C11 UNL     1      23.090  -0.939  54.557  1.00  0.00     0.072 A 
HETATM    5  N2  UNL     1      21.913  -1.450  54.959  1.00  0.00    -0.241 NA
HETATM    6  C12 UNL     1      20.786  -1.163  54.256  1.00  0.00     0.236 A 
HETATM    7  N3  UNL     1      20.823  -0.367  53.149  1.00  0.00    -0.223 NA
HETATM    8  C13 UNL     1      22.002   0.171  52.710  1.00  0.00     0.143 A 
HETATM    9  C19 UNL     1      23.122  -0.135  53.438  1.00  0.00     0.040 A 
HETATM   10  C20 UNL     1      24.279   0.426  52.946  1.00  0.00     0.037 A 
ENDROOT
BRANCH   1  11
HETATM   11  S1  UNL     1      26.978   0.929  52.928  1.00  0.00    -0.039 SA
BRANCH  11  12
HETATM   12  C7  UNL     1      26.672   1.992  51.556  1.00  0.00    -0.027 C 
HETATM   13  C6  UNL     1      26.462   2.704  50.603  1.00  0.00    -0.064 C 
BRANCH  13  14
HETATM   14  C5  UNL     1      26.187   3.557  49.432  1.00  0.00     0.366 C 
BRANCH  14  15
HETATM   15  N1  UNL     1      26.142   4.954  49.769  1.00  0.00     0.098 N 
BRANCH  15  16
HETATM   16  C2  UNL     1      26.737   5.785  48.761  1.00  0.00     0.269 C 
HETATM   17  C1  UNL     1      28.128   5.255  48.455  1.00  0.00     0.037 C 
ENDBRANCH  15  16
BRANCH  15  18
HETATM   18  C3  UNL     1      24.815   5.428  50.056  1.00  0.00     0.269 C 
HETATM   19  C4  UNL     1      24.025   5.743  48.807  1.00  0.00     0.037 C 
ENDBRANCH  15  18
ENDBRANCH  14  15
ENDBRANCH  13  14
ENDBRANCH  11  12
ENDBRANCH   1  11
BRANCH   8  20
HETATM   20  N4  UNL     1      21.802   0.975  51.583  1.00  0.00    -0.336 N 
HETATM   21  C14 UNL     1      21.776   2.354  52.015  1.00  0.00     0.120 A 
HETATM   22  C15 UNL     1      21.588   3.408  51.200  1.00  0.00     0.087 A 
HETATM   23 CL1  UNL     1      21.544   5.101  51.648  1.00  0.00    -0.080 Cl
HETATM   24  C16 UNL     1      21.401   3.170  49.773  1.00  0.00     0.137 A 
HETATM   25  F1  UNL     1      21.199   4.116  48.817  1.00  0.00    -0.205 F 
HETATM   26  C17 UNL     1      21.430   1.914  49.384  1.00  0.00     0.037 A 
HETATM   27  C18 UNL     1      21.627   0.675  50.177  1.00  0.00     0.160 A 
ENDBRANCH   8  20
TORSDOF 7
ENDMDL
MODEL 3
REMARK VINA RESULT:      -7.5      1.488      2.335
REMARK  7 active torsions:
REMARK  status: ('A' for Active; 'I' for Inactive)
REMARK    1  A    between atoms: C2_2  and  N1_3 
REMARK    2  A    between atoms: N1_3  and  C3_4 
REMARK    3  A    between atoms: N1_3  and  C5_6 
REMARK    4  A    between atoms: C5_6  and  C6_7 
REMARK    5  A    between atoms: C7_8  and  S1_9 
REMARK    6  A    between atoms: S1_9  and  C8_10 
REMARK    7  A    between atoms: C13_17  and  N4_18 
ROOT
HETATM    1  C8  UNL     1      20.523   0.626  51.460  1.00  0.00     0.014 A 
HETATM    2  C9  UNL     1      19.503  -0.081  52.069  1.00  0.00     0.022 A 
HETATM    3  C10 UNL     1      19.692  -0.853  53.199  1.00  0.00     0.034 A 
HETATM    4  C11 UNL     1      20.960  -0.942  53.778  1.00  0.00     0.072 A 
HETATM    5  N2  UNL     1      21.253  -1.654  54.879  1.00  0.00    -0.241 NA
HETATM    6  C12 UNL     1      22.526  -1.658  55.352  1.00  0.00     0.236 A 
HETATM    7  N3  UNL     1      23.516  -0.951  54.734  1.00  0.00    -0.223 NA
HETATM    8  C13 UNL     1      23.256  -0.214  53.611  1.00  0.00     0.143 A 
HETATM    9  C19 UNL     1      21.963  -0.229  53.156  1.00  0.00     0.040 A 
HETATM   10  C20 UNL     1      21.758   0.535  52.029  1.00  0.00     0.037 A 
ENDROOT
BRANCH   1  11
HETATM   11  S1  UNL     1      20.248   1.613  50.006  1.00  0.00    -0.039 SA
BRANCH  11  12
HETATM   12  C7  UNL     1      21.644   2.618  49.620  1.00  0.00    -0.027 C 
HETATM   13  C6  UNL     1      22.613   3.290  49.361  1.00  0.00    -0.064 C 
BRANCH  13  14
HETATM   14  C5  UNL     1      23.806   4.092  49.032  1.00  0.00     0.366 C 
BRANCH  14  15
HETATM   15  N1  UNL     1      24.507   4.540  50.206  1.00  0.00     0.098 N 
BRANCH  15  16
HETATM   16  C2  UNL     1      25.744   5.197  49.893  1.00  0.00     0.269 C 
HETATM   17  C1  UNL     1      26.690   4.181  49.275  1.00  0.00     0.037 C 
ENDBRANCH  15  16
BRANCH  15  18
HETATM   18  C3  UNL     1      23.714   5.393  51.050  1.00  0.00     0.269 C 
HETATM   19  C4  UNL     1      23.576   4.858  52.456  1.00  0.00     0.037 C 
ENDBRANCH  15  18
ENDBRANCH  14  15
ENDBRANCH  13  14
ENDBRANCH  11  12
ENDBRANCH   1  11
BRANCH   8  20
HETATM   20  N4  UNL     1      24.416   0.400  53.129  1.00  0.00    -0.336 N 
HETATM   21  C14 UNL     1      25.503   0.073  54.024  1.00  0.00     0.120 A 
HETATM   22  C15 UNL     1      26.768   0.505  53.882  1.00  0.00     0.087 A 
HETATM   23 CL1  UNL     1      28.134   0.152  54.923  1.00  0.00    -0.080 Cl
HETATM   24  C16 UNL     1      27.097   1.361  52.747  1.00  0.00     0.137 A 
HETATM   25  F1  UNL     1      28.320   1.882  52.457  1.00  0.00    -0.205 F 
HETATM   26  C17 UNL     1      26.107   1.652  51.932  1.00  0.00     0.037 A 
HETATM   27  C18 UNL     1      24.681   1.242  51.980  1.00  0.00     0.160 A 
ENDBRANCH   8  20
TORSDOF 7
ENDMDL
MODEL 4
REMARK VINA RESULT:      -7.4      4.018      9.082
REMARK  7 active torsions:
REMARK  status: ('A' for Active; 'I' for Inactive)
REMARK    1  A    between atoms: C2_2  and  N1_3 
REMARK    2  A    between atoms: N1_3  and  C3_4 
REMARK    3  A    between atoms: N1_3  and  C5_6 
REMARK    4  A    between atoms: C5_6  and  C6_7 
REMARK    5  A    between atoms: C7_8  and  S1_9 
REMARK    6  A    between atoms: S1_9  and  C8_10 
REMARK    7  A    between atoms: C13_17  and  N4_18 
ROOT
HETATM    1  C8  UNL     1      27.091   4.791  48.966  1.00  0.00     0.014 A 
HETATM    2  C9  UNL     1      26.287   5.910  49.071  1.00  0.00     0.022 A 
HETATM    3  C10 UNL     1      26.724   7.183  48.760  1.00  0.00     0.034 A 
HETATM    4  C11 UNL     1      28.033   7.381  48.315  1.00  0.00     0.072 A 
HETATM    5  N2  UNL     1      28.559   8.572  47.978  1.00  0.00    -0.241 NA
HETATM    6  C12 UNL     1      29.847   8.636  47.551  1.00  0.00     0.236 A 
HETATM    7  N3  UNL     1      30.620   7.516  47.456  1.00  0.00    -0.223 NA
HETATM    8  C13 UNL     1      30.121   6.287  47.790  1.00  0.00     0.143 A 
HETATM    9  C19 UNL     1      28.819   6.252  48.217  1.00  0.00     0.040 A 
HETATM   10  C20 UNL     1      28.367   4.990  48.532  1.00  0.00     0.037 A 
ENDROOT
BRANCH   1  11
HETATM   11  S1  UNL     1      26.499   3.164  49.373  1.00  0.00    -0.039 SA
BRANCH  11  12
HETATM   12  C7  UNL     1      26.872   2.726  51.040  1.00  0.00    -0.027 C 
HETATM   13  C6  UNL     1      27.148   2.430  52.178  1.00  0.00    -0.064 C 
BRANCH  13  14
HETATM   14  C5  UNL     1      27.499   2.090  53.569  1.00  0.00     0.366 C 
BRANCH  14  15
HETATM   15  N1  UNL     1      27.610   0.671  53.776  1.00  0.00     0.098 N 
BRANCH  15  16
HETATM   16  C2  UNL     1      28.796   0.310  54.499  1.00  0.00     0.269 C 
HETATM   17  C1  UNL     1      29.643  -0.596  53.620  1.00  0.00     0.037 C 
ENDBRANCH  15  16
BRANCH  15  18
HETATM   18  C3  UNL     1      26.462   0.100  54.427  1.00  0.00     0.269 C 
HETATM   19  C4  UNL     1      25.543  -0.618  53.468  1.00  0.00     0.037 C 
ENDBRANCH  15  18
ENDBRANCH  14  15
ENDBRANCH  13  14
ENDBRANCH  11  12
ENDBRANCH   1  11
BRANCH   8  20
HETATM   20  N4  UNL     1      31.091   5.291  47.647  1.00  0.00    -0.336 N 
HETATM   21  C14 UNL     1      32.309   5.757  48.271  1.00  0.00     0.120 A 
HETATM   22  C15 UNL     1      33.461   5.064  48.313  1.00  0.00     0.087 A 
HETATM   23 CL1  UNL     1      34.973   5.562  49.047  1.00  0.00    -0.080 Cl
HETATM   24  C16 UNL     1      33.511   3.742  47.699  1.00  0.00     0.137 A 
HETATM   25  F1  UNL     1      34.590   2.914  47.652  1.00  0.00    -0.205 F 
HETATM   26  C17 UNL     1      32.400   3.319  47.137  1.00  0.00     0.037 A 
HETATM   27  C18 UNL     1      31.076   3.983  47.025  1.00  0.00     0.160 A 
ENDBRANCH   8  20
TORSDOF 7
ENDMDL
MODEL 5
REMARK VINA RESULT:      -7.4      3.501      6.142
REMARK  7 active torsions:
REMARK  status: ('A' for Active; 'I' for Inactive)
REMARK    1  A    between atoms: C2_2  and  N1_3 
REMARK    2  A    between atoms: N1_3  and  C3_4 
REMARK    3  A    between atoms: N1_3  and  C5_6 
REMARK    4  A    between atoms: C5_6  and  C6_7 
REMARK    5  A    between atoms: C7_8  and  S1_9 
REMARK    6  A    between atoms: S1_9  and  C8_10 
REMARK    7  A    between atoms: C13_17  and  N4_18 
ROOT
HETATM    1  C8  UNL     1      24.144   3.714  50.012  1.00  0.00     0.014 A 
HETATM    2  C9  UNL     1      23.570   4.801  49.379  1.00  0.00     0.022 A 
HETATM    3  C10 UNL     1      22.255   5.176  49.572  1.00  0.00     0.034 A 
HETATM    4  C11 UNL     1      21.442   4.444  50.441  1.00  0.00     0.072 A 
HETATM    5  N2  UNL     1      20.154   4.725  50.708  1.00  0.00    -0.241 NA
HETATM    6  C12 UNL     1      19.467   3.941  51.579  1.00  0.00     0.236 A 
HETATM    7  N3  UNL     1      20.056   2.874  52.191  1.00  0.00    -0.223 NA
HETATM    8  C13 UNL     1      21.364   2.557  51.944  1.00  0.00     0.143 A 
HETATM    9  C19 UNL     1      22.033   3.364  51.062  1.00  0.00     0.040 A 
HETATM   10  C20 UNL     1      23.346   3.004  50.858  1.00  0.00     0.037 A 
ENDROOT
BRANCH   1  11
HETATM   11  S1  UNL     1      25.842   3.256  49.744  1.00  0.00    -0.039 SA
BRANCH  11  12
HETATM   12  C7  UNL     1      26.593   2.630  51.210  1.00  0.00    -0.027 C 
HETATM   13  C6  UNL     1      27.093   2.211  52.227  1.00  0.00    -0.064 C 
BRANCH  13  14
HETATM   14  C5  UNL     1      27.680   1.692  53.476  1.00  0.00     0.366 C 
BRANCH  14  15
HETATM   15  N1  UNL     1      27.904   0.271  53.429  1.00  0.00     0.098 N 
BRANCH  15  16
HETATM   16  C2  UNL     1      28.856  -0.170  54.408  1.00  0.00     0.269 C 
HETATM   17  C1  UNL     1      30.014  -0.842  53.689  1.00  0.00     0.037 C 
ENDBRANCH  15  16
BRANCH  15  18
HETATM   18  C3  UNL     1      26.696  -0.498  53.556  1.00  0.00     0.269 C 
HETATM   19  C4  UNL     1      26.572  -1.570  52.500  1.00  0.00     0.037 C 
ENDBRANCH  15  18
ENDBRANCH  14  15
ENDBRANCH  13  14
ENDBRANCH  11  12
ENDBRANCH   1  11
BRANCH   8  20
HETATM   20  N4  UNL     1      21.749   1.413  52.651  1.00  0.00    -0.336 N 
HETATM   21  C14 UNL     1      20.581   0.581  52.830  1.00  0.00     0.120 A 
HETATM   22  C15 UNL     1      20.573  -0.596  53.481  1.00  0.00     0.087 A 
HETATM   23 CL1  UNL     1      19.201  -1.656  53.738  1.00  0.00    -0.080 Cl
HETATM   24  C16 UNL     1      21.819  -1.095  54.051  1.00  0.00     0.137 A 
HETATM   25  F1  UNL     1      21.984  -2.259  54.737  1.00  0.00    -0.205 F 
HETATM   26  C17 UNL     1      22.880  -0.337  53.883  1.00  0.00     0.037 A 
HETATM   27  C18 UNL     1      23.018   0.969  53.190  1.00  0.00     0.160 A 
ENDBRANCH   8  20
TORSDOF 7
ENDMDL
MODEL 6
REMARK VINA RESULT:      -7.2      1.950      2.410
REMARK  7 active torsions:
REMARK  status: ('A' for Active; 'I' for Inactive)
REMARK    1  A    between atoms: C2_2  and  N1_3 
REMARK    2  A    between atoms: N1_3  and  C3_4 
REMARK    3  A    between atoms: N1_3  and  C5_6 
REMARK    4  A    between atoms: C5_6  and  C6_7 
REMARK    5  A    between atoms: C7_8  and  S1_9 
REMARK    6  A    between atoms: S1_9  and  C8_10 
REMARK    7  A    between atoms: C13_17  and  N4_18 
ROOT
HETATM    1  C8  UNL     1      23.803   2.259  51.284  1.00  0.00     0.014 A 
HETATM    2  C9  UNL     1      22.463   2.416  51.584  1.00  0.00     0.022 A 
HETATM    3  C10 UNL     1      21.817   1.677  52.556  1.00  0.00     0.034 A 
HETATM    4  C11 UNL     1      22.523   0.719  53.288  1.00  0.00     0.072 A 
HETATM    5  N2  UNL     1      21.997  -0.047  54.259  1.00  0.00    -0.241 NA
HETATM    6  C12 UNL     1      22.789  -0.941  54.906  1.00  0.00     0.236 A 
HETATM    7  N3  UNL     1      24.110  -1.077  54.592  1.00  0.00    -0.223 NA
HETATM    8  C13 UNL     1      24.681  -0.315  53.610  1.00  0.00     0.143 A 
HETATM    9  C19 UNL     1      23.859   0.578  52.974  1.00  0.00     0.040 A 
HETATM   10  C20 UNL     1      24.487   1.323  52.002  1.00  0.00     0.037 A 
ENDROOT
BRANCH   1  11
HETATM   11  S1  UNL     1      24.608   3.227  50.028  1.00  0.00    -0.039 SA
BRANCH  11  12
HETATM   12  C7  UNL     1      24.460   4.956  50.334  1.00  0.00    -0.027 C 
HETATM   13  C6  UNL     1      24.380   6.143  50.544  1.00  0.00    -0.064 C 
BRANCH  13  14
HETATM   14  C5  UNL     1      24.300   7.596  50.783  1.00  0.00     0.366 C 
BRANCH  14  15
HETATM   15  N1  UNL     1      25.029   8.354  49.801  1.00  0.00     0.098 N 
BRANCH  15  16
HETATM   16  C2  UNL     1      26.423   8.016  49.766  1.00  0.00     0.269 C 
HETATM   17  C1  UNL     1      27.221   9.191  50.306  1.00  0.00     0.037 C 
ENDBRANCH  15  16
BRANCH  15  18
HETATM   18  C3  UNL     1      24.478   8.248  48.477  1.00  0.00     0.269 C 
HETATM   19  C4  UNL     1      25.472   7.715  47.472  1.00  0.00     0.037 C 
ENDBRANCH  15  18
ENDBRANCH  14  15
ENDBRANCH  13  14
ENDBRANCH  11  12
ENDBRANCH   1  11
BRANCH   8  20
HETATM   20  N4  UNL     1      26.030  -0.641  53.436  1.00  0.00    -0.336 N 
HETATM   21  C14 UNL     1      26.825   0.373  54.092  1.00  0.00     0.120 A 
HETATM   22  C15 UNL     1      28.170   0.392  54.118  1.00  0.00     0.087 A 
HETATM   23 CL1  UNL     1      29.198   1.584  54.889  1.00  0.00    -0.080 Cl
HETATM   24  C16 UNL     1      28.903  -0.677  53.449  1.00  0.00     0.137 A 
HETATM   25  F1  UNL     1      30.255  -0.806  53.379  1.00  0.00    -0.205 F 
HETATM   26  C17 UNL     1      28.176  -1.599  52.858  1.00  0.00     0.037 A 
HETATM   27  C18 UNL     1      26.700  -1.732  52.759  1.00  0.00     0.160 A 
ENDBRANCH   8  20
TORSDOF 7
ENDMDL
MODEL 7
REMARK VINA RESULT:      -7.2      3.301      5.858
REMARK  7 active torsions:
REMARK  status: ('A' for Active; 'I' for Inactive)
REMARK    1  A    between atoms: C2_2  and  N1_3 
REMARK    2  A    between atoms: N1_3  and  C3_4 
REMARK    3  A    between atoms: N1_3  and  C5_6 
REMARK    4  A    between atoms: C5_6  and  C6_7 
REMARK    5  A    between atoms: C7_8  and  S1_9 
REMARK    6  A    between atoms: S1_9  and  C8_10 
REMARK    7  A    between atoms: C13_17  and  N4_18 
ROOT
HETATM    1  C8  UNL     1      22.418  -0.657  54.325  1.00  0.00     0.014 A 
HETATM    2  C9  UNL     1      23.095  -1.368  55.298  1.00  0.00     0.022 A 
HETATM    3  C10 UNL     1      24.470  -1.346  55.427  1.00  0.00     0.034 A 
HETATM    4  C11 UNL     1      25.240  -0.579  54.550  1.00  0.00     0.072 A 
HETATM    5  N2  UNL     1      26.580  -0.478  54.590  1.00  0.00    -0.241 NA
HETATM    6  C12 UNL     1      27.218   0.308  53.685  1.00  0.00     0.236 A 
HETATM    7  N3  UNL     1      26.527   1.000  52.734  1.00  0.00    -0.223 NA
HETATM    8  C13 UNL     1      25.164   0.923  52.661  1.00  0.00     0.143 A 
HETATM    9  C19 UNL     1      24.546   0.123  53.587  1.00  0.00     0.040 A 
HETATM   10  C20 UNL     1      23.175   0.089  53.472  1.00  0.00     0.037 A 
ENDROOT
BRANCH   1  11
HETATM   11  S1  UNL     1      20.646  -0.705  54.185  1.00  0.00    -0.039 SA
BRANCH  11  12
HETATM   12  C7  UNL     1      20.090  -0.053  52.644  1.00  0.00    -0.027 C 
HETATM   13  C6  UNL     1      19.729   0.402  51.585  1.00  0.00    -0.064 C 
BRANCH  13  14
HETATM   14  C5  UNL     1      19.310   0.948  50.281  1.00  0.00     0.366 C 
BRANCH  14  15
HETATM   15  N1  UNL     1      19.701   2.321  50.109  1.00  0.00     0.098 N 
BRANCH  15  16
HETATM   16  C2  UNL     1      19.250   2.872  48.862  1.00  0.00     0.269 C 
HETATM   17  C1  UNL     1      20.350   2.697  47.828  1.00  0.00     0.037 C 
ENDBRANCH  15  16
BRANCH  15  18
HETATM   18  C3  UNL     1      19.278   3.173  51.187  1.00  0.00     0.269 C 
HETATM   19  C4  UNL     1      20.378   4.084  51.679  1.00  0.00     0.037 C 
ENDBRANCH  15  18
ENDBRANCH  14  15
ENDBRANCH  13  14
ENDBRANCH  11  12
ENDBRANCH   1  11
BRANCH   8  20
HETATM   20  N4  UNL     1      24.669   1.685  51.597  1.00  0.00    -0.336 N 
HETATM   21  C14 UNL     1      25.765   2.450  51.046  1.00  0.00     0.120 A 
HETATM   22  C15 UNL     1      25.657   3.309  50.016  1.00  0.00     0.087 A 
HETATM   23 CL1  UNL     1      26.935   4.269  49.297  1.00  0.00    -0.080 Cl
HETATM   24  C16 UNL     1      24.353   3.495  49.389  1.00  0.00     0.137 A 
HETATM   25  F1  UNL     1      24.072   4.320  48.344  1.00  0.00    -0.205 F 
HETATM   26  C17 UNL     1      23.360   2.794  49.890  1.00  0.00     0.037 A 
HETATM   27  C18 UNL     1      23.351   1.822  51.013  1.00  0.00     0.160 A 
ENDBRANCH   8  20
TORSDOF 7
ENDMDL
MODEL 8
REMARK VINA RESULT:      -7.2      2.893      7.020
REMARK  7 active torsions:
REMARK  status: ('A' for Active; 'I' for Inactive)
REMARK    1  A    between atoms: C2_2  and  N1_3 
REMARK    2  A    between atoms: N1_3  and  C3_4 
REMARK    3  A    between atoms: N1_3  and  C5_6 
REMARK    4  A    between atoms: C5_6  and  C6_7 
REMARK    5  A    between atoms: C7_8  and  S1_9 
REMARK    6  A    between atoms: S1_9  and  C8_10 
REMARK    7  A    between atoms: C13_17  and  N4_18 
ROOT
HETATM    1  C8  UNL     1      22.479   0.797  53.022  1.00  0.00     0.014 A 
HETATM    2  C9  UNL     1      21.686   1.716  52.360  1.00  0.00     0.022 A 
HETATM    3  C10 UNL     1      22.192   2.641  51.467  1.00  0.00     0.034 A 
HETATM    4  C11 UNL     1      23.562   2.674  51.199  1.00  0.00     0.072 A 
HETATM    5  N2  UNL     1      24.157   3.524  50.344  1.00  0.00    -0.241 NA
HETATM    6  C12 UNL     1      25.501   3.454  50.161  1.00  0.00     0.236 A 
HETATM    7  N3  UNL     1      26.262   2.538  50.826  1.00  0.00    -0.223 NA
HETATM    8  C13 UNL     1      25.692   1.657  51.704  1.00  0.00     0.143 A 
HETATM    9  C19 UNL     1      24.335   1.750  51.869  1.00  0.00     0.040 A 
HETATM   10  C20 UNL     1      23.815   0.835  52.756  1.00  0.00     0.037 A 
ENDROOT
BRANCH   1  11
HETATM   11  S1  UNL     1      21.799  -0.383  54.166  1.00  0.00    -0.039 SA
BRANCH  11  12
HETATM   12  C7  UNL     1      20.130  -0.792  53.774  1.00  0.00    -0.027 C 
HETATM   13  C6  UNL     1      18.993  -1.082  53.486  1.00  0.00    -0.064 C 
BRANCH  13  14
HETATM   14  C5  UNL     1      17.613  -1.460  53.130  1.00  0.00     0.366 C 
BRANCH  14  15
HETATM   15  N1  UNL     1      16.952  -0.449  52.348  1.00  0.00     0.098 N 
BRANCH  15  16
HETATM   16  C2  UNL     1      17.520  -0.306  51.037  1.00  0.00     0.269 C 
HETATM   17  C1  UNL     1      17.894   1.151  50.827  1.00  0.00     0.037 C 
ENDBRANCH  15  16
BRANCH  15  18
HETATM   18  C3  UNL     1      15.534  -0.655  52.234  1.00  0.00     0.269 C 
HETATM   19  C4  UNL     1      15.169  -1.600  51.113  1.00  0.00     0.037 C 
ENDBRANCH  15  18
ENDBRANCH  14  15
ENDBRANCH  13  14
ENDBRANCH  11  12
ENDBRANCH   1  11
BRANCH   8  20
HETATM   20  N4  UNL     1      26.657   0.834  52.293  1.00  0.00    -0.336 N 
HETATM   21  C14 UNL     1      27.569   1.672  53.037  1.00  0.00     0.120 A 
HETATM   22  C15 UNL     1      28.636   1.223  53.723  1.00  0.00     0.087 A 
HETATM   23 CL1  UNL     1      29.782   2.176  54.645  1.00  0.00    -0.080 Cl
HETATM   24  C16 UNL     1      28.911  -0.209  53.738  1.00  0.00     0.137 A 
HETATM   25  F1  UNL     1      29.942  -0.826  54.377  1.00  0.00    -0.205 F 
HETATM   26  C17 UNL     1      28.077  -0.969  53.064  1.00  0.00     0.037 A 
HETATM   27  C18 UNL     1      26.875  -0.598  52.274  1.00  0.00     0.160 A 
ENDBRANCH   8  20
TORSDOF 7
ENDMDL
MODEL 9
REMARK VINA RESULT:      -7.1      2.587      3.873
REMARK  7 active torsions:
REMARK  status: ('A' for Active; 'I' for Inactive)
REMARK    1  A    between atoms: C2_2  and  N1_3 
REMARK    2  A    between atoms: N1_3  and  C3_4 
REMARK    3  A    between atoms: N1_3  and  C5_6 
REMARK    4  A    between atoms: C5_6  and  C6_7 
REMARK    5  A    between atoms: C7_8  and  S1_9 
REMARK    6  A    between atoms: S1_9  and  C8_10 
REMARK    7  A    between atoms: C13_17  and  N4_18 
ROOT
HETATM    1  C8  UNL     1      26.106   3.770  49.643  1.00  0.00     0.014 A 
HETATM    2  C9  UNL     1      24.785   3.969  49.288  1.00  0.00     0.022 A 
HETATM    3  C10 UNL     1      23.733   3.315  49.901  1.00  0.00     0.034 A 
HETATM    4  C11 UNL     1      23.984   2.404  50.929  1.00  0.00     0.072 A 
HETATM    5  N2  UNL     1      23.038   1.720  51.598  1.00  0.00    -0.241 NA
HETATM    6  C12 UNL     1      23.407   0.866  52.587  1.00  0.00     0.236 A 
HETATM    7  N3  UNL     1      24.718   0.686  52.919  1.00  0.00    -0.223 NA
HETATM    8  C13 UNL     1      25.707   1.364  52.262  1.00  0.00     0.143 A 
HETATM    9  C19 UNL     1      25.307   2.219  51.269  1.00  0.00     0.040 A 
HETATM   10  C20 UNL     1      26.344   2.879  50.648  1.00  0.00     0.037 A 
ENDROOT
BRANCH   1  11
HETATM   11  S1  UNL     1      27.438   4.628  48.837  1.00  0.00    -0.039 SA
BRANCH  11  12
HETATM   12  C7  UNL     1      27.068   6.335  48.592  1.00  0.00    -0.027 C 
HETATM   13  C6  UNL     1      26.814   7.506  48.446  1.00  0.00    -0.064 C 
BRANCH  13  14
HETATM   14  C5  UNL     1      26.520   8.942  48.286  1.00  0.00     0.366 C 
BRANCH  14  15
HETATM   15  N1  UNL     1      27.689   9.706  47.937  1.00  0.00     0.098 N 
BRANCH  15  16
HETATM   16  C2  UNL     1      27.431  10.670  46.906  1.00  0.00     0.269 C 
HETATM   17  C1  UNL     1      27.712  10.026  45.558  1.00  0.00     0.037 C 
ENDBRANCH  15  16
BRANCH  15  18
HETATM   18  C3  UNL     1      28.296  10.362  49.063  1.00  0.00     0.269 C 
HETATM   19  C4  UNL     1      29.757  10.671  48.842  1.00  0.00     0.037 C 
ENDBRANCH  15  18
ENDBRANCH  14  15
ENDBRANCH  13  14
ENDBRANCH  11  12
ENDBRANCH   1  11
BRANCH   8  20
HETATM   20  N4  UNL     1      26.971   1.005  52.742  1.00  0.00    -0.336 N 
HETATM   21  C14 UNL     1      27.098  -0.432  52.643  1.00  0.00     0.120 A 
HETATM   22  C15 UNL     1      28.179  -1.133  53.028  1.00  0.00     0.087 A 
HETATM   23 CL1  UNL     1      28.404  -2.869  52.939  1.00  0.00    -0.080 Cl
HETATM   24  C16 UNL     1      29.322  -0.417  53.583  1.00  0.00     0.137 A 
HETATM   25  F1  UNL     1      30.486  -0.970  54.020  1.00  0.00    -0.205 F 
HETATM   26  C17 UNL     1      29.205   0.890  53.668  1.00  0.00     0.037 A 
HETATM   27  C18 UNL     1      28.075   1.772  53.280  1.00  0.00     0.160 A 
ENDBRANCH   8  20
TORSDOF 7
ENDMDL
