MODEL 1
REMARK VINA RESULT:      -8.0      0.000      0.000
REMARK  5 active torsions:
REMARK  status: ('A' for Active; 'I' for Inactive)
REMARK    1  A    between atoms: C5_5  and  N1_6 
REMARK    2  A    between atoms: N1_6  and  S1_7 
REMARK    3  A    between atoms: S1_7  and  N2_9 
REMARK       I    between atoms: N2_9  and  C6_10 
REMARK    4  A    between atoms: C6_10  and  C7_12 
REMARK    5  A    between atoms: C7_12  and  C8_13 
ROOT
HETATM    1  N2  UNL     1      25.123   2.087  51.423  1.00  0.00    -0.258 N 
HETATM    2  C6  UNL     1      26.434   2.505  51.086  1.00  0.00     0.234 C 
HETATM    3  O2  UNL     1      27.394   2.584  51.866  1.00  0.00    -0.272 OA
HETATM    4  H7  UNL     1      24.280   2.008  50.800  1.00  0.00     0.181 HD
ENDROOT
BRANCH   1   5
HETATM    5  S1  UNL     1      24.385   1.569  52.910  1.00  0.00     0.225 S 
HETATM    6  O1  UNL     1      22.951   2.073  53.058  1.00  0.00    -0.211 OA
BRANCH   5   7
HETATM    7  N1  UNL     1      24.432  -0.176  53.116  1.00  0.00    -0.273 N 
HETATM    8  H6  UNL     1      23.984  -1.129  53.154  1.00  0.00     0.179 HD
BRANCH   7   9
HETATM    9  C5  UNL     1      25.851  -0.283  53.349  1.00  0.00     0.136 A 
HETATM   10  C4  UNL     1      26.524  -1.232  52.590  1.00  0.00     0.051 A 
HETATM   11  C3  UNL     1      27.894  -1.461  52.714  1.00  0.00     0.012 A 
HETATM   12  C2  UNL     1      28.574  -0.684  53.644  1.00  0.00    -0.044 A 
HETATM   13  C1  UNL     1      30.029  -0.894  53.809  1.00  0.00     0.049 C 
HETATM   14  C14 UNL     1      27.896   0.256  54.389  1.00  0.00     0.125 A 
HETATM   15  N3  UNL     1      26.565   0.432  54.225  1.00  0.00    -0.242 NA
ENDBRANCH   7   9
ENDBRANCH   5   7
ENDBRANCH   1   5
BRANCH   2  16
HETATM   16  C7  UNL     1      26.457   2.831  49.646  1.00  0.00     0.142 C 
BRANCH  16  17
HETATM   17  C8  UNL     1      26.530   4.286  49.418  1.00  0.00    -0.048 A 
HETATM   18  C9  UNL     1      27.621   4.720  48.659  1.00  0.00     0.007 A 
HETATM   19  C10 UNL     1      27.788   6.075  48.373  1.00  0.00     0.002 A 
HETATM   20  C11 UNL     1      26.850   6.997  48.855  1.00  0.00     0.019 A 
HETATM   21  C12 UNL     1      25.752   6.579  49.617  1.00  0.00     0.011 A 
HETATM   22 BR1  UNL     1      24.460   7.812  50.283  1.00  0.00    -0.051 Br
HETATM   23  C13 UNL     1      25.618   5.220  49.883  1.00  0.00     0.026 A 
ENDBRANCH  16  17
ENDBRANCH   2  16
TORSDOF 5
ENDMDL
MODEL 2
REMARK VINA RESULT:      -7.5      1.417      1.955
REMARK  5 active torsions:
REMARK  status: ('A' for Active; 'I' for Inactive)
REMARK    1  A    between atoms: C5_5  and  N1_6 
REMARK    2  A    between atoms: N1_6  and  S1_7 
REMARK    3  A    between atoms: S1_7  and  N2_9 
REMARK       I    between atoms: N2_9  and  C6_10 
REMARK    4  A    between atoms: C6_10  and  C7_12 
REMARK    5  A    between atoms: C7_12  and  C8_13 
ROOT
HETATM    1  N2  UNL     1      24.784   1.643  51.595  1.00  0.00    -0.258 N 
HETATM    2  C6  UNL     1      26.047   2.248  51.383  1.00  0.00     0.234 C 
HETATM    3  O2  UNL     1      26.815   2.655  52.266  1.00  0.00    -0.272 OA
HETATM    4  H7  UNL     1      24.099   1.288  50.881  1.00  0.00     0.181 HD
ENDROOT
BRANCH   1   5
HETATM    5  S1  UNL     1      23.874   1.262  53.027  1.00  0.00     0.225 S 
HETATM    6  O1  UNL     1      22.400   1.644  52.901  1.00  0.00    -0.211 OA
BRANCH   5   7
HETATM    7  N1  UNL     1      24.018  -0.427  53.489  1.00  0.00    -0.273 N 
HETATM    8  H6  UNL     1      23.619  -1.370  53.743  1.00  0.00     0.179 HD
BRANCH   7   9
HETATM    9  C5  UNL     1      25.460  -0.475  53.515  1.00  0.00     0.136 A 
HETATM   10  C4  UNL     1      26.071   0.142  54.600  1.00  0.00     0.051 A 
HETATM   11  C3  UNL     1      27.456   0.191  54.756  1.00  0.00     0.012 A 
HETATM   12  C2  UNL     1      28.216  -0.416  53.763  1.00  0.00    -0.044 A 
HETATM   13  C1  UNL     1      29.690  -0.387  53.888  1.00  0.00     0.049 C 
HETATM   14  C14 UNL     1      27.598  -1.026  52.693  1.00  0.00     0.125 A 
HETATM   15  N3  UNL     1      26.249  -1.041  52.596  1.00  0.00    -0.242 NA
ENDBRANCH   7   9
ENDBRANCH   5   7
ENDBRANCH   1   5
BRANCH   2  16
HETATM   16  C7  UNL     1      26.288   2.309  49.927  1.00  0.00     0.142 C 
BRANCH  16  17
HETATM   17  C8  UNL     1      26.303   3.700  49.436  1.00  0.00    -0.048 A 
HETATM   18  C9  UNL     1      25.076   4.367  49.485  1.00  0.00     0.007 A 
HETATM   19  C10 UNL     1      24.973   5.690  49.055  1.00  0.00     0.002 A 
HETATM   20  C11 UNL     1      26.114   6.343  48.573  1.00  0.00     0.019 A 
HETATM   21  C12 UNL     1      27.352   5.690  48.517  1.00  0.00     0.011 A 
HETATM   22 BR1  UNL     1      28.920   6.556  47.867  1.00  0.00    -0.051 Br
HETATM   23  C13 UNL     1      27.415   4.371  48.954  1.00  0.00     0.026 A 
ENDBRANCH  16  17
ENDBRANCH   2  16
TORSDOF 5
ENDMDL
MODEL 3
REMARK VINA RESULT:      -7.4      4.274      5.997
REMARK  5 active torsions:
REMARK  status: ('A' for Active; 'I' for Inactive)
REMARK    1  A    between atoms: C5_5  and  N1_6 
REMARK    2  A    between atoms: N1_6  and  S1_7 
REMARK    3  A    between atoms: S1_7  and  N2_9 
REMARK       I    between atoms: N2_9  and  C6_10 
REMARK    4  A    between atoms: C6_10  and  C7_12 
REMARK    5  A    between atoms: C7_12  and  C8_13 
ROOT
HETATM    1  N2  UNL     1      23.991   1.846  50.821  1.00  0.00    -0.258 N 
HETATM    2  C6  UNL     1      22.687   2.328  50.550  1.00  0.00     0.234 C 
HETATM    3  O2  UNL     1      22.313   3.506  50.645  1.00  0.00    -0.272 OA
HETATM    4  H7  UNL     1      24.352   0.862  50.759  1.00  0.00     0.181 HD
ENDROOT
BRANCH   1   5
HETATM    5  S1  UNL     1      25.458   2.618  51.348  1.00  0.00     0.225 S 
HETATM    6  O1  UNL     1      25.668   3.983  50.695  1.00  0.00    -0.211 OA
BRANCH   5   7
HETATM    7  N1  UNL     1      25.551   2.768  53.096  1.00  0.00    -0.273 N 
HETATM    8  H6  UNL     1      25.217   3.133  54.027  1.00  0.00     0.179 HD
BRANCH   7   9
HETATM    9  C5  UNL     1      26.712   1.930  53.278  1.00  0.00     0.136 A 
HETATM   10  C4  UNL     1      26.600   0.625  52.816  1.00  0.00     0.051 A 
HETATM   11  C3  UNL     1      27.632  -0.305  52.933  1.00  0.00     0.012 A 
HETATM   12  C2  UNL     1      28.801   0.133  53.543  1.00  0.00    -0.044 A 
HETATM   13  C1  UNL     1      29.921  -0.821  53.690  1.00  0.00     0.049 C 
HETATM   14  C14 UNL     1      28.900   1.431  53.996  1.00  0.00     0.125 A 
HETATM   15  N3  UNL     1      27.864   2.289  53.854  1.00  0.00    -0.242 NA
ENDBRANCH   7   9
ENDBRANCH   5   7
ENDBRANCH   1   5
BRANCH   2  16
HETATM   16  C7  UNL     1      21.851   1.182  50.136  1.00  0.00     0.142 C 
BRANCH  16  17
HETATM   17  C8  UNL     1      21.188   0.548  51.290  1.00  0.00    -0.048 A 
HETATM   18  C9  UNL     1      19.791   0.532  51.246  1.00  0.00     0.007 A 
HETATM   19  C10 UNL     1      19.057  -0.051  52.280  1.00  0.00     0.002 A 
HETATM   20  C11 UNL     1      19.737  -0.620  53.364  1.00  0.00     0.019 A 
HETATM   21  C12 UNL     1      21.136  -0.612  53.425  1.00  0.00     0.011 A 
HETATM   22 BR1  UNL     1      22.085  -1.381  54.888  1.00  0.00    -0.051 Br
HETATM   23  C13 UNL     1      21.834  -0.022  52.375  1.00  0.00     0.026 A 
ENDBRANCH  16  17
ENDBRANCH   2  16
TORSDOF 5
ENDMDL
MODEL 4
REMARK VINA RESULT:      -7.4      3.055      4.109
REMARK  5 active torsions:
REMARK  status: ('A' for Active; 'I' for Inactive)
REMARK    1  A    between atoms: C5_5  and  N1_6 
REMARK    2  A    between atoms: N1_6  and  S1_7 
REMARK    3  A    between atoms: S1_7  and  N2_9 
REMARK       I    between atoms: N2_9  and  C6_10 
REMARK    4  A    between atoms: C6_10  and  C7_12 
REMARK    5  A    between atoms: C7_12  and  C8_13 
ROOT
HETATM    1  N2  UNL     1      26.617   3.412  51.299  1.00  0.00    -0.258 N 
HETATM    2  C6  UNL     1      26.524   3.379  49.886  1.00  0.00     0.234 C 
HETATM    3  O2  UNL     1      26.872   2.438  49.157  1.00  0.00    -0.272 OA
HETATM    4  H7  UNL     1      26.340   4.184  51.956  1.00  0.00     0.181 HD
ENDROOT
BRANCH   1   5
HETATM    5  S1  UNL     1      27.198   2.276  52.480  1.00  0.00     0.225 S 
HETATM    6  O1  UNL     1      28.695   2.421  52.744  1.00  0.00    -0.211 OA
BRANCH   5   7
HETATM    7  N1  UNL     1      26.311   2.362  53.995  1.00  0.00    -0.273 N 
HETATM    8  H6  UNL     1      26.228   2.573  55.024  1.00  0.00     0.179 HD
BRANCH   7   9
HETATM    9  C5  UNL     1      25.052   1.879  53.483  1.00  0.00     0.136 A 
HETATM   10  C4  UNL     1      24.866   0.503  53.518  1.00  0.00     0.051 A 
HETATM   11  C3  UNL     1      23.707  -0.113  53.047  1.00  0.00     0.012 A 
HETATM   12  C2  UNL     1      22.724   0.722  52.531  1.00  0.00    -0.044 A 
HETATM   13  C1  UNL     1      21.478   0.112  52.018  1.00  0.00     0.049 C 
HETATM   14  C14 UNL     1      22.919   2.086  52.502  1.00  0.00     0.125 A 
HETATM   15  N3  UNL     1      24.065   2.626  52.974  1.00  0.00    -0.242 NA
ENDBRANCH   7   9
ENDBRANCH   5   7
ENDBRANCH   1   5
BRANCH   2  16
HETATM   16  C7  UNL     1      25.942   4.658  49.433  1.00  0.00     0.142 C 
BRANCH  16  17
HETATM   17  C8  UNL     1      26.941   5.497  48.746  1.00  0.00    -0.048 A 
HETATM   18  C9  UNL     1      26.460   6.704  48.231  1.00  0.00     0.007 A 
HETATM   19  C10 UNL     1      27.317   7.582  47.568  1.00  0.00     0.002 A 
HETATM   20  C11 UNL     1      28.668   7.241  47.425  1.00  0.00     0.019 A 
HETATM   21  C12 UNL     1      29.167   6.036  47.934  1.00  0.00     0.011 A 
HETATM   22 BR1  UNL     1      31.001   5.549  47.754  1.00  0.00    -0.051 Br
HETATM   23  C13 UNL     1      28.282   5.185  48.589  1.00  0.00     0.026 A 
ENDBRANCH  16  17
ENDBRANCH   2  16
TORSDOF 5
ENDMDL
MODEL 5
REMARK VINA RESULT:      -7.4      5.149      6.993
REMARK  5 active torsions:
REMARK  status: ('A' for Active; 'I' for Inactive)
REMARK    1  A    between atoms: C5_5  and  N1_6 
REMARK    2  A    between atoms: N1_6  and  S1_7 
REMARK    3  A    between atoms: S1_7  and  N2_9 
REMARK       I    between atoms: N2_9  and  C6_10 
REMARK    4  A    between atoms: C6_10  and  C7_12 
REMARK    5  A    between atoms: C7_12  and  C8_13 
ROOT
HETATM    1  N2  UNL     1      23.146   1.309  53.160  1.00  0.00    -0.258 N 
HETATM    2  C6  UNL     1      22.514   0.072  53.437  1.00  0.00     0.234 C 
HETATM    3  O2  UNL     1      22.923  -1.046  53.088  1.00  0.00    -0.272 OA
HETATM    4  H7  UNL     1      22.837   2.277  53.430  1.00  0.00     0.181 HD
ENDROOT
BRANCH   1   5
HETATM    5  S1  UNL     1      24.598   1.739  52.306  1.00  0.00     0.225 S 
HETATM    6  O1  UNL     1      24.312   2.344  50.933  1.00  0.00    -0.211 OA
BRANCH   5   7
HETATM    7  N1  UNL     1      25.633   2.816  53.232  1.00  0.00    -0.273 N 
HETATM    8  H6  UNL     1      25.850   3.730  53.709  1.00  0.00     0.179 HD
BRANCH   7   9
HETATM    9  C5  UNL     1      26.742   1.904  53.377  1.00  0.00     0.136 A 
HETATM   10  C4  UNL     1      26.574   0.645  52.814  1.00  0.00     0.051 A 
HETATM   11  C3  UNL     1      27.552  -0.347  52.884  1.00  0.00     0.012 A 
HETATM   12  C2  UNL     1      28.725  -0.019  53.553  1.00  0.00    -0.044 A 
HETATM   13  C1  UNL     1      29.789  -1.042  53.654  1.00  0.00     0.049 C 
HETATM   14  C14 UNL     1      28.880   1.233  54.106  1.00  0.00     0.125 A 
HETATM   15  N3  UNL     1      27.896   2.155  54.006  1.00  0.00    -0.242 NA
ENDBRANCH   7   9
ENDBRANCH   5   7
ENDBRANCH   1   5
BRANCH   2  16
HETATM   16  C7  UNL     1      21.286   0.345  54.210  1.00  0.00     0.142 C 
BRANCH  16  17
HETATM   17  C8  UNL     1      20.081  -0.116  53.497  1.00  0.00    -0.048 A 
HETATM   18  C9  UNL     1      19.671   0.685  52.428  1.00  0.00     0.007 A 
HETATM   19  C10 UNL     1      18.548   0.341  51.675  1.00  0.00     0.002 A 
HETATM   20  C11 UNL     1      17.834  -0.818  52.004  1.00  0.00     0.019 A 
HETATM   21  C12 UNL     1      18.230  -1.633  53.072  1.00  0.00     0.011 A 
HETATM   22 BR1  UNL     1      17.276  -3.215  53.539  1.00  0.00    -0.051 Br
HETATM   23  C13 UNL     1      19.355  -1.257  53.800  1.00  0.00     0.026 A 
ENDBRANCH  16  17
ENDBRANCH   2  16
TORSDOF 5
ENDMDL
MODEL 6
REMARK VINA RESULT:      -7.3      2.629      6.394
REMARK  5 active torsions:
REMARK  status: ('A' for Active; 'I' for Inactive)
REMARK    1  A    between atoms: C5_5  and  N1_6 
REMARK    2  A    between atoms: N1_6  and  S1_7 
REMARK    3  A    between atoms: S1_7  and  N2_9 
REMARK       I    between atoms: N2_9  and  C6_10 
REMARK    4  A    between atoms: C6_10  and  C7_12 
REMARK    5  A    between atoms: C7_12  and  C8_13 
ROOT
HETATM    1  N2  UNL     1      23.346   1.399  51.165  1.00  0.00    -0.258 N 
HETATM    2  C6  UNL     1      23.599   1.733  52.518  1.00  0.00     0.234 C 
HETATM    3  O2  UNL     1      23.532   2.869  53.011  1.00  0.00    -0.272 OA
HETATM    4  H7  UNL     1      23.394   0.456  50.703  1.00  0.00     0.181 HD
ENDROOT
BRANCH   1   5
HETATM    5  S1  UNL     1      22.888   2.336  49.774  1.00  0.00     0.225 S 
HETATM    6  O1  UNL     1      21.517   1.940  49.229  1.00  0.00    -0.211 OA
BRANCH   5   7
HETATM    7  N1  UNL     1      22.936   4.066  50.079  1.00  0.00    -0.273 N 
HETATM    8  H6  UNL     1      22.503   4.979  50.378  1.00  0.00     0.179 HD
BRANCH   7   9
HETATM    9  C5  UNL     1      24.314   4.267  49.704  1.00  0.00     0.136 A 
HETATM   10  C4  UNL     1      24.633   5.524  49.208  1.00  0.00     0.051 A 
HETATM   11  C3  UNL     1      25.920   5.864  48.791  1.00  0.00     0.012 A 
HETATM   12  C2  UNL     1      26.891   4.876  48.896  1.00  0.00    -0.044 A 
HETATM   13  C1  UNL     1      28.270   5.192  48.464  1.00  0.00     0.049 C 
HETATM   14  C14 UNL     1      26.562   3.632  49.392  1.00  0.00     0.125 A 
HETATM   15  N3  UNL     1      25.295   3.361  49.780  1.00  0.00    -0.242 NA
ENDBRANCH   7   9
ENDBRANCH   5   7
ENDBRANCH   1   5
BRANCH   2  16
HETATM   16  C7  UNL     1      23.958   0.494  53.238  1.00  0.00     0.142 C 
BRANCH  16  17
HETATM   17  C8  UNL     1      25.416   0.269  53.239  1.00  0.00    -0.048 A 
HETATM   18  C9  UNL     1      25.822  -1.032  52.928  1.00  0.00     0.007 A 
HETATM   19  C10 UNL     1      27.177  -1.360  52.890  1.00  0.00     0.002 A 
HETATM   20  C11 UNL     1      28.128  -0.370  53.167  1.00  0.00     0.019 A 
HETATM   21  C12 UNL     1      27.739   0.939  53.481  1.00  0.00     0.011 A 
HETATM   22 BR1  UNL     1      29.012   2.304  53.861  1.00  0.00    -0.051 Br
HETATM   23  C13 UNL     1      26.378   1.228  53.510  1.00  0.00     0.026 A 
ENDBRANCH  16  17
ENDBRANCH   2  16
TORSDOF 5
ENDMDL
MODEL 7
REMARK VINA RESULT:      -7.1      4.709      6.582
REMARK  5 active torsions:
REMARK  status: ('A' for Active; 'I' for Inactive)
REMARK    1  A    between atoms: C5_5  and  N1_6 
REMARK    2  A    between atoms: N1_6  and  S1_7 
REMARK    3  A    between atoms: S1_7  and  N2_9 
REMARK       I    between atoms: N2_9  and  C6_10 
REMARK    4  A    between atoms: C6_10  and  C7_12 
REMARK    5  A    between atoms: C7_12  and  C8_13 
ROOT
HETATM    1  N2  UNL     1      22.994   2.446  49.598  1.00  0.00    -0.258 N 
HETATM    2  C6  UNL     1      21.687   2.536  50.136  1.00  0.00     0.234 C 
HETATM    3  O2  UNL     1      21.226   3.497  50.769  1.00  0.00    -0.272 OA
HETATM    4  H7  UNL     1      23.429   1.654  49.061  1.00  0.00     0.181 HD
ENDROOT
BRANCH   1   5
HETATM    5  S1  UNL     1      24.358   3.524  49.602  1.00  0.00     0.225 S 
HETATM    6  O1  UNL     1      24.132   4.755  48.726  1.00  0.00    -0.211 OA
BRANCH   5   7
HETATM    7  N1  UNL     1      24.825   4.018  51.222  1.00  0.00    -0.273 N 
HETATM    8  H6  UNL     1      24.980   4.737  51.977  1.00  0.00     0.179 HD
BRANCH   7   9
HETATM    9  C5  UNL     1      25.154   2.702  51.714  1.00  0.00     0.136 A 
HETATM   10  C4  UNL     1      26.378   2.188  51.309  1.00  0.00     0.051 A 
HETATM   11  C3  UNL     1      26.828   0.924  51.691  1.00  0.00     0.012 A 
HETATM   12  C2  UNL     1      25.984   0.184  52.511  1.00  0.00    -0.044 A 
HETATM   13  C1  UNL     1      26.420  -1.163  52.939  1.00  0.00     0.049 C 
HETATM   14  C14 UNL     1      24.772   0.706  52.908  1.00  0.00     0.125 A 
HETATM   15  N3  UNL     1      24.390   1.939  52.504  1.00  0.00    -0.242 NA
ENDBRANCH   7   9
ENDBRANCH   5   7
ENDBRANCH   1   5
BRANCH   2  16
HETATM   16  C7  UNL     1      20.970   1.286  49.812  1.00  0.00     0.142 C 
BRANCH  16  17
HETATM   17  C8  UNL     1      20.459   0.621  51.025  1.00  0.00    -0.048 A 
HETATM   18  C9  UNL     1      19.086   0.356  51.032  1.00  0.00     0.007 A 
HETATM   19  C10 UNL     1      18.494  -0.277  52.124  1.00  0.00     0.002 A 
HETATM   20  C11 UNL     1      19.291  -0.645  53.216  1.00  0.00     0.019 A 
HETATM   21  C12 UNL     1      20.667  -0.386  53.226  1.00  0.00     0.011 A 
HETATM   22 BR1  UNL     1      21.773  -0.878  54.698  1.00  0.00    -0.051 Br
HETATM   23  C13 UNL     1      21.222   0.247  52.119  1.00  0.00     0.026 A 
ENDBRANCH  16  17
ENDBRANCH   2  16
TORSDOF 5
ENDMDL
MODEL 8
REMARK VINA RESULT:      -7.1      3.802      7.373
REMARK  5 active torsions:
REMARK  status: ('A' for Active; 'I' for Inactive)
REMARK    1  A    between atoms: C5_5  and  N1_6 
REMARK    2  A    between atoms: N1_6  and  S1_7 
REMARK    3  A    between atoms: S1_7  and  N2_9 
REMARK       I    between atoms: N2_9  and  C6_10 
REMARK    4  A    between atoms: C6_10  and  C7_12 
REMARK    5  A    between atoms: C7_12  and  C8_13 
ROOT
HETATM    1  N2  UNL     1      23.736   2.220  50.487  1.00  0.00    -0.258 N 
HETATM    2  C6  UNL     1      23.872   2.231  51.897  1.00  0.00     0.234 C 
HETATM    3  O2  UNL     1      23.698   3.211  52.636  1.00  0.00    -0.272 OA
HETATM    4  H7  UNL     1      23.877   1.419  49.821  1.00  0.00     0.181 HD
ENDROOT
BRANCH   1   5
HETATM    5  S1  UNL     1      23.319   3.442  49.323  1.00  0.00     0.225 S 
HETATM    6  O1  UNL     1      21.862   3.348  48.873  1.00  0.00    -0.211 OA
BRANCH   5   7
HETATM    7  N1  UNL     1      23.665   5.067  49.895  1.00  0.00    -0.273 N 
HETATM    8  H6  UNL     1      23.402   5.975  50.361  1.00  0.00     0.179 HD
BRANCH   7   9
HETATM    9  C5  UNL     1      25.044   5.107  49.471  1.00  0.00     0.136 A 
HETATM   10  C4  UNL     1      25.483   6.312  48.938  1.00  0.00     0.051 A 
HETATM   11  C3  UNL     1      26.785   6.499  48.473  1.00  0.00     0.012 A 
HETATM   12  C2  UNL     1      27.643   5.410  48.567  1.00  0.00    -0.044 A 
HETATM   13  C1  UNL     1      29.032   5.563  48.084  1.00  0.00     0.049 C 
HETATM   14  C14 UNL     1      27.195   4.220  49.099  1.00  0.00     0.125 A 
HETATM   15  N3  UNL     1      25.920   4.098  49.534  1.00  0.00    -0.242 NA
ENDBRANCH   7   9
ENDBRANCH   5   7
ENDBRANCH   1   5
BRANCH   2  16
HETATM   16  C7  UNL     1      24.257   0.873  52.332  1.00  0.00     0.142 C 
BRANCH  16  17
HETATM   17  C8  UNL     1      23.143   0.181  53.005  1.00  0.00    -0.048 A 
HETATM   18  C9  UNL     1      23.490  -0.551  54.144  1.00  0.00     0.007 A 
HETATM   19  C10 UNL     1      22.516  -1.240  54.867  1.00  0.00     0.002 A 
HETATM   20  C11 UNL     1      21.184  -1.190  54.438  1.00  0.00     0.019 A 
HETATM   21  C12 UNL     1      20.818  -0.462  53.298  1.00  0.00     0.011 A 
HETATM   22 BR1  UNL     1      19.012  -0.378  52.694  1.00  0.00    -0.051 Br
HETATM   23  C13 UNL     1      21.817   0.212  52.603  1.00  0.00     0.026 A 
ENDBRANCH  16  17
ENDBRANCH   2  16
TORSDOF 5
ENDMDL
MODEL 9
REMARK VINA RESULT:      -7.0      4.077      6.336
REMARK  5 active torsions:
REMARK  status: ('A' for Active; 'I' for Inactive)
REMARK    1  A    between atoms: C5_5  and  N1_6 
REMARK    2  A    between atoms: N1_6  and  S1_7 
REMARK    3  A    between atoms: S1_7  and  N2_9 
REMARK       I    between atoms: N2_9  and  C6_10 
REMARK    4  A    between atoms: C6_10  and  C7_12 
REMARK    5  A    between atoms: C7_12  and  C8_13 
ROOT
HETATM    1  N2  UNL     1      23.208   3.536  52.547  1.00  0.00    -0.258 N 
HETATM    2  C6  UNL     1      24.480   3.013  52.208  1.00  0.00     0.234 C 
HETATM    3  O2  UNL     1      24.921   2.861  51.059  1.00  0.00    -0.272 OA
HETATM    4  H7  UNL     1      22.792   3.679  53.501  1.00  0.00     0.181 HD
ENDROOT
BRANCH   1   5
HETATM    5  S1  UNL     1      21.872   4.119  51.600  1.00  0.00     0.225 S 
HETATM    6  O1  UNL     1      22.248   5.323  50.737  1.00  0.00    -0.211 OA
BRANCH   5   7
HETATM    7  N1  UNL     1      21.154   2.865  50.600  1.00  0.00    -0.273 N 
HETATM    8  H6  UNL     1      20.756   2.498  49.696  1.00  0.00     0.179 HD
BRANCH   7   9
HETATM    9  C5  UNL     1      21.127   1.836  51.610  1.00  0.00     0.136 A 
HETATM   10  C4  UNL     1      21.716   0.626  51.264  1.00  0.00     0.051 A 
HETATM   11  C3  UNL     1      21.755  -0.466  52.130  1.00  0.00     0.012 A 
HETATM   12  C2  UNL     1      21.171  -0.293  53.379  1.00  0.00    -0.044 A 
HETATM   13  C1  UNL     1      21.188  -1.427  54.329  1.00  0.00     0.049 C 
HETATM   14  C14 UNL     1      20.591   0.912  53.711  1.00  0.00     0.125 A 
HETATM   15  N3  UNL     1      20.583   1.937  52.828  1.00  0.00    -0.242 NA
ENDBRANCH   7   9
ENDBRANCH   5   7
ENDBRANCH   1   5
BRANCH   2  16
HETATM   16  C7  UNL     1      25.188   2.679  53.461  1.00  0.00     0.142 C 
BRANCH  16  17
HETATM   17  C8  UNL     1      25.910   1.397  53.352  1.00  0.00    -0.048 A 
HETATM   18  C9  UNL     1      25.112   0.278  53.097  1.00  0.00     0.007 A 
HETATM   19  C10 UNL     1      25.688  -0.986  52.966  1.00  0.00     0.002 A 
HETATM   20  C11 UNL     1      27.076  -1.121  53.092  1.00  0.00     0.019 A 
HETATM   21  C12 UNL     1      27.891  -0.010  53.349  1.00  0.00     0.011 A 
HETATM   22 BR1  UNL     1      29.782  -0.167  53.524  1.00  0.00    -0.051 Br
HETATM   23  C13 UNL     1      27.281   1.234  53.474  1.00  0.00     0.026 A 
ENDBRANCH  16  17
ENDBRANCH   2  16
TORSDOF 5
ENDMDL
