MODEL 1
REMARK VINA RESULT:      -8.5      0.000      0.000
REMARK  6 active torsions:
REMARK  status: ('A' for Active; 'I' for Inactive)
REMARK    1  A    between atoms: C1_2  and  C2_5 
REMARK    2  A    between atoms: C12_15  and  O1_16 
REMARK    3  A    between atoms: O1_16  and  C13_17 
REMARK    4  A    between atoms: C13_17  and  C14_18 
REMARK    5  A    between atoms: C14_18  and  C15_19 
REMARK    6  A    between atoms: C15_19  and  N1_20 
ROOT
HETATM    1  C2  UNL     1      26.355   0.596  53.354  1.00  0.00     0.048 A 
HETATM    2  C3  UNL     1      25.534  -0.496  53.159  1.00  0.00     0.018 A 
HETATM    3  C4  UNL     1      24.186  -0.223  53.019  1.00  0.00     0.031 A 
HETATM    4  C5  UNL     1      23.621   1.034  53.060  1.00  0.00     0.039 A 
HETATM    5  C6  UNL     1      24.450   2.118  53.255  1.00  0.00    -0.026 A 
HETATM    6  C7  UNL     1      25.795   1.853  53.396  1.00  0.00     0.025 A 
HETATM    7  C8  UNL     1      24.027   3.534  53.333  1.00  0.00     0.082 C 
HETATM    8  C9  UNL     1      23.754   4.156  52.022  1.00  0.00    -0.017 A 
HETATM    9  C10 UNL     1      23.688   5.532  52.063  1.00  0.00     0.013 A 
HETATM   10  C11 UNL     1      23.438   6.323  50.961  1.00  0.00     0.040 A 
HETATM   11  C12 UNL     1      23.246   5.650  49.754  1.00  0.00     0.104 A 
HETATM   12  C20 UNL     1      23.303   4.270  49.668  1.00  0.00     0.136 A 
HETATM   13  C21 UNL     1      23.558   3.541  50.808  1.00  0.00     0.114 A 
HETATM   14  O3  UNL     1      23.589   2.173  50.580  1.00  0.00    -0.318 OA
HETATM   15  C22 UNL     1      22.450   1.673  49.853  1.00  0.00     0.276 C 
HETATM   16  C23 UNL     1      22.288   2.400  48.556  1.00  0.00     0.232 C 
HETATM   17  O4  UNL     1      23.115   3.574  48.481  1.00  0.00    -0.341 OA
HETATM   18  N2  UNL     1      21.302   2.008  50.710  1.00  0.00    -0.250 NA
HETATM   19  C24 UNL     1      21.323   1.689  51.973  1.00  0.00     0.204 C 
HETATM   20  N3  UNL     1      22.210   1.044  52.882  1.00  0.00    -0.351 N 
HETATM   21  H26 UNL     1      21.733   0.433  53.581  1.00  0.00     0.166 HD
ENDROOT
BRANCH  11  22
HETATM   22  O1  UNL     1      22.991   6.414  48.623  1.00  0.00    -0.348 OA
BRANCH  22  23
HETATM   23  C13 UNL     1      23.570   7.670  48.421  1.00  0.00     0.177 C 
BRANCH  23  24
HETATM   24  C14 UNL     1      24.950   7.550  47.786  1.00  0.00     0.057 C 
BRANCH  24  25
HETATM   25  C15 UNL     1      25.938   7.953  48.848  1.00  0.00     0.274 C 
BRANCH  25  26
HETATM   26  N1  UNL     1      27.036   7.015  49.002  1.00  0.00     0.092 N 
HETATM   27  C16 UNL     1      28.094   7.469  48.101  1.00  0.00     0.298 C 
HETATM   28  C17 UNL     1      29.040   6.367  47.752  1.00  0.00     0.198 C 
HETATM   29  O2  UNL     1      28.995   5.372  48.721  1.00  0.00    -0.388 OA
HETATM   30  C18 UNL     1      27.774   4.733  48.701  1.00  0.00     0.198 C 
HETATM   31  C19 UNL     1      26.632   5.713  48.506  1.00  0.00     0.298 C 
ENDBRANCH  25  26
ENDBRANCH  24  25
ENDBRANCH  23  24
ENDBRANCH  22  23
ENDBRANCH  11  22
BRANCH   1  32
HETATM   32  C1  UNL     1      27.829   0.410  53.516  1.00  0.00     0.417 C 
HETATM   33  F1  UNL     1      28.120   0.353  54.857  1.00  0.00    -0.166 F 
HETATM   34  F2  UNL     1      28.542   1.397  52.881  1.00  0.00    -0.166 F 
HETATM   35  F3  UNL     1      28.144  -0.850  53.007  1.00  0.00    -0.166 F 
ENDBRANCH   1  32
TORSDOF 6
ENDMDL
MODEL 2
REMARK VINA RESULT:      -8.4      1.207      1.679
REMARK  6 active torsions:
REMARK  status: ('A' for Active; 'I' for Inactive)
REMARK    1  A    between atoms: C1_2  and  C2_5 
REMARK    2  A    between atoms: C12_15  and  O1_16 
REMARK    3  A    between atoms: O1_16  and  C13_17 
REMARK    4  A    between atoms: C13_17  and  C14_18 
REMARK    5  A    between atoms: C14_18  and  C15_19 
REMARK    6  A    between atoms: C15_19  and  N1_20 
ROOT
HETATM    1  C2  UNL     1      25.862   0.334  53.369  1.00  0.00     0.048 A 
HETATM    2  C3  UNL     1      24.887  -0.639  53.436  1.00  0.00     0.018 A 
HETATM    3  C4  UNL     1      23.583  -0.201  53.286  1.00  0.00     0.031 A 
HETATM    4  C5  UNL     1      23.203   1.108  53.081  1.00  0.00     0.039 A 
HETATM    5  C6  UNL     1      24.185   2.071  53.016  1.00  0.00    -0.026 A 
HETATM    6  C7  UNL     1      25.486   1.643  53.164  1.00  0.00     0.025 A 
HETATM    7  C8  UNL     1      23.970   3.521  52.808  1.00  0.00     0.082 C 
HETATM    8  C9  UNL     1      23.702   3.898  51.405  1.00  0.00    -0.017 A 
HETATM    9  C10 UNL     1      23.831   5.248  51.158  1.00  0.00     0.013 A 
HETATM   10  C11 UNL     1      23.624   5.826  49.923  1.00  0.00     0.040 A 
HETATM   11  C12 UNL     1      23.264   4.958  48.893  1.00  0.00     0.104 A 
HETATM   12  C20 UNL     1      23.123   3.597  49.097  1.00  0.00     0.136 A 
HETATM   13  C21 UNL     1      23.345   3.085  50.355  1.00  0.00     0.114 A 
HETATM   14  O3  UNL     1      23.171   1.710  50.419  1.00  0.00    -0.318 OA
HETATM   15  C22 UNL     1      21.929   1.249  49.852  1.00  0.00     0.276 C 
HETATM   16  C23 UNL     1      21.787   1.714  48.437  1.00  0.00     0.232 C 
HETATM   17  O4  UNL     1      22.764   2.710  48.090  1.00  0.00    -0.341 OA
HETATM   18  N2  UNL     1      20.897   1.919  50.658  1.00  0.00    -0.250 NA
HETATM   19  C24 UNL     1      20.953   1.864  51.958  1.00  0.00     0.204 C 
HETATM   20  N3  UNL     1      21.798   1.292  52.952  1.00  0.00    -0.351 N 
HETATM   21  H26 UNL     1      21.287   0.914  53.780  1.00  0.00     0.166 HD
ENDROOT
BRANCH  11  22
HETATM   22  O1  UNL     1      23.046   5.506  47.635  1.00  0.00    -0.348 OA
BRANCH  22  23
HETATM   23  C13 UNL     1      22.808   6.869  47.443  1.00  0.00     0.177 C 
BRANCH  23  24
HETATM   24  C14 UNL     1      24.022   7.565  46.838  1.00  0.00     0.057 C 
BRANCH  24  25
HETATM   25  C15 UNL     1      24.300   8.759  47.711  1.00  0.00     0.274 C 
BRANCH  25  26
HETATM   26  N1  UNL     1      25.675   8.830  48.172  1.00  0.00     0.092 N 
HETATM   27  C16 UNL     1      26.278   7.533  47.869  1.00  0.00     0.298 C 
HETATM   28  C17 UNL     1      27.474   7.261  48.722  1.00  0.00     0.198 C 
HETATM   29  O2  UNL     1      28.004   8.454  49.198  1.00  0.00    -0.388 OA
HETATM   30  C18 UNL     1      27.135   9.048  50.087  1.00  0.00     0.198 C 
HETATM   31  C19 UNL     1      25.695   8.942  49.618  1.00  0.00     0.298 C 
ENDBRANCH  25  26
ENDBRANCH  24  25
ENDBRANCH  23  24
ENDBRANCH  22  23
ENDBRANCH  11  22
BRANCH   1  32
HETATM   32  C1  UNL     1      27.303  -0.033  53.517  1.00  0.00     0.417 C 
HETATM   33  F1  UNL     1      27.528  -1.209  52.844  1.00  0.00    -0.166 F 
HETATM   34  F2  UNL     1      27.676  -0.121  54.836  1.00  0.00    -0.166 F 
HETATM   35  F3  UNL     1      28.046   0.936  52.844  1.00  0.00    -0.166 F 
ENDBRANCH   1  32
TORSDOF 6
ENDMDL
MODEL 3
REMARK VINA RESULT:      -8.4      3.094      5.018
REMARK  6 active torsions:
REMARK  status: ('A' for Active; 'I' for Inactive)
REMARK    1  A    between atoms: C1_2  and  C2_5 
REMARK    2  A    between atoms: C12_15  and  O1_16 
REMARK    3  A    between atoms: O1_16  and  C13_17 
REMARK    4  A    between atoms: C13_17  and  C14_18 
REMARK    5  A    between atoms: C14_18  and  C15_19 
REMARK    6  A    between atoms: C15_19  and  N1_20 
ROOT
HETATM    1  C2  UNL     1      20.250  -0.188  53.215  1.00  0.00     0.048 A 
HETATM    2  C3  UNL     1      19.268  -0.550  52.317  1.00  0.00     0.018 A 
HETATM    3  C4  UNL     1      18.825   0.448  51.467  1.00  0.00     0.031 A 
HETATM    4  C5  UNL     1      19.286   1.746  51.459  1.00  0.00     0.039 A 
HETATM    5  C6  UNL     1      20.268   2.097  52.361  1.00  0.00    -0.026 A 
HETATM    6  C7  UNL     1      20.714   1.108  53.210  1.00  0.00     0.025 A 
HETATM    7  C8  UNL     1      20.879   3.438  52.503  1.00  0.00     0.082 C 
HETATM    8  C9  UNL     1      21.901   3.748  51.483  1.00  0.00    -0.017 A 
HETATM    9  C10 UNL     1      22.694   4.830  51.800  1.00  0.00     0.013 A 
HETATM   10  C11 UNL     1      23.708   5.303  50.994  1.00  0.00     0.040 A 
HETATM   11  C12 UNL     1      23.908   4.618  49.796  1.00  0.00     0.104 A 
HETATM   12  C20 UNL     1      23.136   3.527  49.438  1.00  0.00     0.136 A 
HETATM   13  C21 UNL     1      22.140   3.106  50.290  1.00  0.00     0.114 A 
HETATM   14  O3  UNL     1      21.446   2.006  49.810  1.00  0.00    -0.318 OA
HETATM   15  C22 UNL     1      20.981   2.150  48.454  1.00  0.00     0.276 C 
HETATM   16  C23 UNL     1      22.117   2.474  47.536  1.00  0.00     0.232 C 
HETATM   17  O4  UNL     1      23.313   2.827  48.251  1.00  0.00    -0.341 OA
HETATM   18  N2  UNL     1      20.088   3.319  48.504  1.00  0.00    -0.250 NA
HETATM   19  C24 UNL     1      19.152   3.379  49.408  1.00  0.00     0.204 C 
HETATM   20  N3  UNL     1      18.671   2.576  50.481  1.00  0.00    -0.351 N 
HETATM   21  H26 UNL     1      17.633   2.584  50.587  1.00  0.00     0.166 HD
ENDROOT
BRANCH  11  22
HETATM   22  O1  UNL     1      24.921   5.067  48.959  1.00  0.00    -0.348 OA
BRANCH  22  23
HETATM   23  C13 UNL     1      26.268   4.772  49.185  1.00  0.00     0.177 C 
BRANCH  23  24
HETATM   24  C14 UNL     1      26.474   3.284  49.442  1.00  0.00     0.057 C 
BRANCH  24  25
HETATM   25  C15 UNL     1      26.649   3.134  50.930  1.00  0.00     0.274 C 
BRANCH  25  26
HETATM   26  N1  UNL     1      26.574   1.758  51.386  1.00  0.00     0.092 N 
HETATM   27  C16 UNL     1      25.181   1.524  51.760  1.00  0.00     0.298 C 
HETATM   28  C17 UNL     1      25.043   0.380  52.711  1.00  0.00     0.198 C 
HETATM   29  O2  UNL     1      26.141  -0.465  52.606  1.00  0.00    -0.388 OA
HETATM   30  C18 UNL     1      27.280   0.164  53.060  1.00  0.00     0.198 C 
HETATM   31  C19 UNL     1      27.338   1.611  52.610  1.00  0.00     0.298 C 
ENDBRANCH  25  26
ENDBRANCH  24  25
ENDBRANCH  23  24
ENDBRANCH  22  23
ENDBRANCH  11  22
BRANCH   1  32
HETATM   32  C1  UNL     1      20.798  -1.192  54.176  1.00  0.00     0.417 C 
HETATM   33  F1  UNL     1      19.838  -2.146  54.411  1.00  0.00    -0.166 F 
HETATM   34  F2  UNL     1      21.229  -0.605  55.340  1.00  0.00    -0.166 F 
HETATM   35  F3  UNL     1      21.840  -1.856  53.528  1.00  0.00    -0.166 F 
ENDBRANCH   1  32
TORSDOF 6
ENDMDL
MODEL 4
REMARK VINA RESULT:      -8.3      3.741      7.986
REMARK  6 active torsions:
REMARK  status: ('A' for Active; 'I' for Inactive)
REMARK    1  A    between atoms: C1_2  and  C2_5 
REMARK    2  A    between atoms: C12_15  and  O1_16 
REMARK    3  A    between atoms: O1_16  and  C13_17 
REMARK    4  A    between atoms: C13_17  and  C14_18 
REMARK    5  A    between atoms: C14_18  and  C15_19 
REMARK    6  A    between atoms: C15_19  and  N1_20 
ROOT
HETATM    1  C2  UNL     1      29.749   9.268  48.497  1.00  0.00     0.048 A 
HETATM    2  C3  UNL     1      28.970  10.244  47.912  1.00  0.00     0.018 A 
HETATM    3  C4  UNL     1      27.807   9.808  47.304  1.00  0.00     0.031 A 
HETATM    4  C5  UNL     1      27.386   8.497  47.243  1.00  0.00     0.039 A 
HETATM    5  C6  UNL     1      28.172   7.530  47.831  1.00  0.00    -0.026 A 
HETATM    6  C7  UNL     1      29.332   7.957  48.439  1.00  0.00     0.025 A 
HETATM    7  C8  UNL     1      27.886   6.078  47.861  1.00  0.00     0.082 C 
HETATM    8  C9  UNL     1      26.885   5.679  48.872  1.00  0.00    -0.017 A 
HETATM    9  C10 UNL     1      26.863   4.326  49.129  1.00  0.00     0.013 A 
HETATM   10  C11 UNL     1      26.007   3.728  50.031  1.00  0.00     0.040 A 
HETATM   11  C12 UNL     1      25.128   4.581  50.698  1.00  0.00     0.104 A 
HETATM   12  C20 UNL     1      25.116   5.946  50.470  1.00  0.00     0.136 A 
HETATM   13  C21 UNL     1      25.998   6.477  49.557  1.00  0.00     0.114 A 
HETATM   14  O3  UNL     1      25.881   7.852  49.427  1.00  0.00    -0.318 OA
HETATM   15  C22 UNL     1      24.530   8.308  49.213  1.00  0.00     0.276 C 
HETATM   16  C23 UNL     1      23.627   7.821  50.302  1.00  0.00     0.232 C 
HETATM   17  O4  UNL     1      24.251   6.817  51.120  1.00  0.00    -0.341 OA
HETATM   18  N2  UNL     1      24.126   7.653  47.959  1.00  0.00    -0.250 NA
HETATM   19  C24 UNL     1      24.897   7.730  46.911  1.00  0.00     0.204 C 
HETATM   20  N3  UNL     1      26.148   8.315  46.565  1.00  0.00    -0.351 N 
HETATM   21  H26 UNL     1      26.182   8.707  45.599  1.00  0.00     0.166 HD
ENDROOT
BRANCH  11  22
HETATM   22  O1  UNL     1      24.251   4.013  51.613  1.00  0.00    -0.348 OA
BRANCH  22  23
HETATM   23  C13 UNL     1      24.071   2.632  51.722  1.00  0.00     0.177 C 
BRANCH  23  24
HETATM   24  C14 UNL     1      24.676   2.093  53.012  1.00  0.00     0.057 C 
BRANCH  24  25
HETATM   25  C15 UNL     1      25.407   0.831  52.638  1.00  0.00     0.274 C 
BRANCH  25  26
HETATM   26  N1  UNL     1      26.842   0.913  52.843  1.00  0.00     0.092 N 
HETATM   27  C16 UNL     1      27.175  -0.108  53.835  1.00  0.00     0.298 C 
HETATM   28  C17 UNL     1      28.466   0.187  54.527  1.00  0.00     0.198 C 
HETATM   29  O2  UNL     1      29.250   1.023  53.742  1.00  0.00    -0.388 OA
HETATM   30  C18 UNL     1      28.675   2.272  53.642  1.00  0.00     0.198 C 
HETATM   31  C19 UNL     1      27.171   2.182  53.463  1.00  0.00     0.298 C 
ENDBRANCH  25  26
ENDBRANCH  24  25
ENDBRANCH  23  24
ENDBRANCH  22  23
ENDBRANCH  11  22
BRANCH   1  32
HETATM   32  C1  UNL     1      31.026   9.633  49.182  1.00  0.00     0.417 C 
HETATM   33  F1  UNL     1      31.674  10.582  48.429  1.00  0.00    -0.166 F 
HETATM   34  F2  UNL     1      31.818   8.535  49.409  1.00  0.00    -0.166 F 
HETATM   35  F3  UNL     1      30.685  10.268  50.376  1.00  0.00    -0.166 F 
ENDBRANCH   1  32
TORSDOF 6
ENDMDL
MODEL 5
REMARK VINA RESULT:      -8.0      2.920      4.555
REMARK  6 active torsions:
REMARK  status: ('A' for Active; 'I' for Inactive)
REMARK    1  A    between atoms: C1_2  and  C2_5 
REMARK    2  A    between atoms: C12_15  and  O1_16 
REMARK    3  A    between atoms: O1_16  and  C13_17 
REMARK    4  A    between atoms: C13_17  and  C14_18 
REMARK    5  A    between atoms: C14_18  and  C15_19 
REMARK    6  A    between atoms: C15_19  and  N1_20 
ROOT
HETATM    1  C2  UNL     1      25.703   0.373  53.413  1.00  0.00     0.048 A 
HETATM    2  C3  UNL     1      24.714  -0.585  53.487  1.00  0.00     0.018 A 
HETATM    3  C4  UNL     1      23.418  -0.135  53.307  1.00  0.00     0.031 A 
HETATM    4  C5  UNL     1      23.059   1.174  53.066  1.00  0.00     0.039 A 
HETATM    5  C6  UNL     1      24.056   2.123  52.994  1.00  0.00    -0.026 A 
HETATM    6  C7  UNL     1      25.348   1.682  53.172  1.00  0.00     0.025 A 
HETATM    7  C8  UNL     1      23.863   3.571  52.751  1.00  0.00     0.082 C 
HETATM    8  C9  UNL     1      23.622   3.919  51.335  1.00  0.00    -0.017 A 
HETATM    9  C10 UNL     1      23.773   5.260  51.059  1.00  0.00     0.013 A 
HETATM   10  C11 UNL     1      23.592   5.813  49.808  1.00  0.00     0.040 A 
HETATM   11  C12 UNL     1      23.236   4.926  48.793  1.00  0.00     0.104 A 
HETATM   12  C20 UNL     1      23.073   3.572  49.026  1.00  0.00     0.136 A 
HETATM   13  C21 UNL     1      23.270   3.086  50.299  1.00  0.00     0.114 A 
HETATM   14  O3  UNL     1      23.076   1.716  50.391  1.00  0.00    -0.318 OA
HETATM   15  C22 UNL     1      21.837   1.258  49.816  1.00  0.00     0.276 C 
HETATM   16  C23 UNL     1      21.723   1.692  48.389  1.00  0.00     0.232 C 
HETATM   17  O4  UNL     1      22.718   2.667  48.034  1.00  0.00    -0.341 OA
HETATM   18  N2  UNL     1      20.801   1.960  50.590  1.00  0.00    -0.250 NA
HETATM   19  C24 UNL     1      20.837   1.934  51.892  1.00  0.00     0.204 C 
HETATM   20  N3  UNL     1      21.660   1.374  52.911  1.00  0.00    -0.351 N 
HETATM   21  H26 UNL     1      21.131   1.022  53.740  1.00  0.00     0.166 HD
ENDROOT
BRANCH  11  22
HETATM   22  O1  UNL     1      23.045   5.448  47.520  1.00  0.00    -0.348 OA
BRANCH  22  23
HETATM   23  C13 UNL     1      21.839   6.032  47.122  1.00  0.00     0.177 C 
BRANCH  23  24
HETATM   24  C14 UNL     1      21.421   5.554  45.737  1.00  0.00     0.057 C 
BRANCH  24  25
HETATM   25  C15 UNL     1      20.415   4.456  45.956  1.00  0.00     0.274 C 
BRANCH  25  26
HETATM   26  N1  UNL     1      20.194   3.631  44.783  1.00  0.00     0.092 N 
HETATM   27  C16 UNL     1      20.768   4.360  43.653  1.00  0.00     0.298 C 
HETATM   28  C17 UNL     1      20.179   3.925  42.351  1.00  0.00     0.198 C 
HETATM   29  O2  UNL     1      19.646   2.647  42.470  1.00  0.00    -0.388 OA
HETATM   30  C18 UNL     1      18.549   2.657  43.303  1.00  0.00     0.198 C 
HETATM   31  C19 UNL     1      18.772   3.547  44.511  1.00  0.00     0.298 C 
ENDBRANCH  25  26
ENDBRANCH  24  25
ENDBRANCH  23  24
ENDBRANCH  22  23
ENDBRANCH  11  22
BRANCH   1  32
HETATM   32  C1  UNL     1      27.136  -0.010  53.591  1.00  0.00     0.417 C 
HETATM   33  F1  UNL     1      27.408  -0.086  54.936  1.00  0.00    -0.166 F 
HETATM   34  F2  UNL     1      27.983   0.861  52.950  1.00  0.00    -0.166 F 
HETATM   35  F3  UNL     1      27.280  -1.308  53.103  1.00  0.00    -0.166 F 
ENDBRANCH   1  32
TORSDOF 6
ENDMDL
MODEL 6
REMARK VINA RESULT:      -7.9      3.782      8.748
REMARK  6 active torsions:
REMARK  status: ('A' for Active; 'I' for Inactive)
REMARK    1  A    between atoms: C1_2  and  C2_5 
REMARK    2  A    between atoms: C12_15  and  O1_16 
REMARK    3  A    between atoms: O1_16  and  C13_17 
REMARK    4  A    between atoms: C13_17  and  C14_18 
REMARK    5  A    between atoms: C14_18  and  C15_19 
REMARK    6  A    between atoms: C15_19  and  N1_20 
ROOT
HETATM    1  C2  UNL     1      29.364   9.835  48.560  1.00  0.00     0.048 A 
HETATM    2  C3  UNL     1      28.484  10.777  48.069  1.00  0.00     0.018 A 
HETATM    3  C4  UNL     1      27.340  10.283  47.468  1.00  0.00     0.031 A 
HETATM    4  C5  UNL     1      27.030   8.947  47.329  1.00  0.00     0.039 A 
HETATM    5  C6  UNL     1      27.916   8.015  47.823  1.00  0.00    -0.026 A 
HETATM    6  C7  UNL     1      29.057   8.500  48.424  1.00  0.00     0.025 A 
HETATM    7  C8  UNL     1      27.757   6.544  47.761  1.00  0.00     0.082 C 
HETATM    8  C9  UNL     1      26.831   5.993  48.772  1.00  0.00    -0.017 A 
HETATM    9  C10 UNL     1      26.934   4.629  48.936  1.00  0.00     0.013 A 
HETATM   10  C11 UNL     1      26.165   3.900  49.819  1.00  0.00     0.040 A 
HETATM   11  C12 UNL     1      25.242   4.626  50.571  1.00  0.00     0.104 A 
HETATM   12  C20 UNL     1      25.105   5.997  50.438  1.00  0.00     0.136 A 
HETATM   13  C21 UNL     1      25.905   6.663  49.538  1.00  0.00     0.114 A 
HETATM   14  O3  UNL     1      25.666   8.029  49.508  1.00  0.00    -0.318 OA
HETATM   15  C22 UNL     1      24.275   8.378  49.367  1.00  0.00     0.276 C 
HETATM   16  C23 UNL     1      23.457   7.743  50.447  1.00  0.00     0.232 C 
HETATM   17  O4  UNL     1      24.194   6.744  51.173  1.00  0.00    -0.341 OA
HETATM   18  N2  UNL     1      23.883   7.776  48.083  1.00  0.00    -0.250 NA
HETATM   19  C24 UNL     1      24.605   7.988  47.021  1.00  0.00     0.204 C 
HETATM   20  N3  UNL     1      25.789   8.703  46.678  1.00  0.00    -0.351 N 
HETATM   21  H26 UNL     1      25.754   9.160  45.741  1.00  0.00     0.166 HD
ENDROOT
BRANCH  11  22
HETATM   22  O1  UNL     1      24.450   3.925  51.470  1.00  0.00    -0.348 OA
BRANCH  22  23
HETATM   23  C13 UNL     1      24.266   2.542  51.388  1.00  0.00     0.177 C 
BRANCH  23  24
HETATM   24  C14 UNL     1      23.993   1.936  52.759  1.00  0.00     0.057 C 
BRANCH  24  25
HETATM   25  C15 UNL     1      24.297   0.466  52.636  1.00  0.00     0.274 C 
BRANCH  25  26
HETATM   26  N1  UNL     1      23.355  -0.380  53.346  1.00  0.00     0.092 N 
HETATM   27  C16 UNL     1      22.171   0.440  53.595  1.00  0.00     0.298 C 
HETATM   28  C17 UNL     1      21.357  -0.084  54.732  1.00  0.00     0.198 C 
HETATM   29  O2  UNL     1      21.622  -1.434  54.928  1.00  0.00    -0.388 OA
HETATM   30  C18 UNL     1      22.912  -1.614  55.377  1.00  0.00     0.198 C 
HETATM   31  C19 UNL     1      23.888  -0.704  54.656  1.00  0.00     0.298 C 
ENDBRANCH  25  26
ENDBRANCH  24  25
ENDBRANCH  23  24
ENDBRANCH  22  23
ENDBRANCH  11  22
BRANCH   1  32
HETATM   32  C1  UNL     1      30.629  10.265  49.230  1.00  0.00     0.417 C 
HETATM   33  F1  UNL     1      31.634  10.293  48.294  1.00  0.00    -0.166 F 
HETATM   34  F2  UNL     1      30.945   9.455  50.293  1.00  0.00    -0.166 F 
HETATM   35  F3  UNL     1      30.452  11.587  49.635  1.00  0.00    -0.166 F 
ENDBRANCH   1  32
TORSDOF 6
ENDMDL
MODEL 7
REMARK VINA RESULT:      -7.9      3.766      5.021
REMARK  6 active torsions:
REMARK  status: ('A' for Active; 'I' for Inactive)
REMARK    1  A    between atoms: C1_2  and  C2_5 
REMARK    2  A    between atoms: C12_15  and  O1_16 
REMARK    3  A    between atoms: O1_16  and  C13_17 
REMARK    4  A    between atoms: C13_17  and  C14_18 
REMARK    5  A    between atoms: C14_18  and  C15_19 
REMARK    6  A    between atoms: C15_19  and  N1_20 
ROOT
HETATM    1  C2  UNL     1      19.332   0.008  52.234  1.00  0.00     0.048 A 
HETATM    2  C3  UNL     1      20.083  -0.187  53.374  1.00  0.00     0.018 A 
HETATM    3  C4  UNL     1      21.445   0.022  53.246  1.00  0.00     0.031 A 
HETATM    4  C5  UNL     1      22.084   0.403  52.086  1.00  0.00     0.039 A 
HETATM    5  C6  UNL     1      21.324   0.595  50.953  1.00  0.00    -0.026 A 
HETATM    6  C7  UNL     1      19.967   0.389  51.073  1.00  0.00     0.025 A 
HETATM    7  C8  UNL     1      21.833   0.996  49.622  1.00  0.00     0.082 C 
HETATM    8  C9  UNL     1      22.130   2.438  49.498  1.00  0.00    -0.017 A 
HETATM    9  C10 UNL     1      22.279   2.865  48.196  1.00  0.00     0.013 A 
HETATM   10  C11 UNL     1      22.566   4.167  47.841  1.00  0.00     0.040 A 
HETATM   11  C12 UNL     1      22.704   5.071  48.894  1.00  0.00     0.104 A 
HETATM   12  C20 UNL     1      22.563   4.686  50.215  1.00  0.00     0.136 A 
HETATM   13  C21 UNL     1      22.277   3.370  50.499  1.00  0.00     0.114 A 
HETATM   14  O3  UNL     1      22.160   3.122  51.858  1.00  0.00    -0.318 OA
HETATM   15  C22 UNL     1      23.260   3.624  52.643  1.00  0.00     0.276 C 
HETATM   16  C23 UNL     1      23.453   5.089  52.408  1.00  0.00     0.232 C 
HETATM   17  O4  UNL     1      22.697   5.565  51.282  1.00  0.00    -0.341 OA
HETATM   18  N2  UNL     1      24.434   2.917  52.106  1.00  0.00    -0.250 NA
HETATM   19  C24 UNL     1      24.407   1.621  51.978  1.00  0.00     0.204 C 
HETATM   20  N3  UNL     1      23.492   0.558  52.222  1.00  0.00    -0.351 N 
HETATM   21  H26 UNL     1      23.938  -0.312  52.588  1.00  0.00     0.166 HD
ENDROOT
BRANCH  11  22
HETATM   22  O1  UNL     1      22.994   6.392  48.574  1.00  0.00    -0.348 OA
BRANCH  22  23
HETATM   23  C13 UNL     1      24.174   6.765  47.927  1.00  0.00     0.177 C 
BRANCH  23  24
HETATM   24  C14 UNL     1      25.402   6.356  48.733  1.00  0.00     0.057 C 
BRANCH  24  25
HETATM   25  C15 UNL     1      25.481   7.312  49.893  1.00  0.00     0.274 C 
BRANCH  25  26
HETATM   26  N1  UNL     1      26.694   8.109  49.903  1.00  0.00     0.092 N 
HETATM   27  C16 UNL     1      26.292   9.473  49.561  1.00  0.00     0.298 C 
HETATM   28  C17 UNL     1      27.433  10.274  49.025  1.00  0.00     0.198 C 
HETATM   29  O2  UNL     1      28.640   9.729  49.446  1.00  0.00    -0.388 OA
HETATM   30  C18 UNL     1      28.843   8.496  48.865  1.00  0.00     0.198 C 
HETATM   31  C19 UNL     1      27.565   7.678  48.826  1.00  0.00     0.298 C 
ENDBRANCH  25  26
ENDBRANCH  24  25
ENDBRANCH  23  24
ENDBRANCH  22  23
ENDBRANCH  11  22
BRANCH   1  32
HETATM   32  C1  UNL     1      17.852  -0.191  52.265  1.00  0.00     0.417 C 
HETATM   33  F1  UNL     1      17.241   1.034  52.151  1.00  0.00    -0.166 F 
HETATM   34  F2  UNL     1      17.448  -0.858  53.396  1.00  0.00    -0.166 F 
HETATM   35  F3  UNL     1      17.506  -0.894  51.112  1.00  0.00    -0.166 F 
ENDBRANCH   1  32
TORSDOF 6
ENDMDL
MODEL 8
REMARK VINA RESULT:      -7.8      2.726      4.679
REMARK  6 active torsions:
REMARK  status: ('A' for Active; 'I' for Inactive)
REMARK    1  A    between atoms: C1_2  and  C2_5 
REMARK    2  A    between atoms: C12_15  and  O1_16 
REMARK    3  A    between atoms: O1_16  and  C13_17 
REMARK    4  A    between atoms: C13_17  and  C14_18 
REMARK    5  A    between atoms: C14_18  and  C15_19 
REMARK    6  A    between atoms: C15_19  and  N1_20 
ROOT
HETATM    1  C2  UNL     1      25.802   0.164  53.372  1.00  0.00     0.048 A 
HETATM    2  C3  UNL     1      24.808  -0.777  53.541  1.00  0.00     0.018 A 
HETATM    3  C4  UNL     1      23.510  -0.315  53.425  1.00  0.00     0.031 A 
HETATM    4  C5  UNL     1      23.151   0.989  53.160  1.00  0.00     0.039 A 
HETATM    5  C6  UNL     1      24.152   1.921  52.993  1.00  0.00    -0.026 A 
HETATM    6  C7  UNL     1      25.448   1.469  53.107  1.00  0.00     0.025 A 
HETATM    7  C8  UNL     1      23.961   3.362  52.711  1.00  0.00     0.082 C 
HETATM    8  C9  UNL     1      23.637   3.663  51.301  1.00  0.00    -0.017 A 
HETATM    9  C10 UNL     1      23.786   4.992  50.968  1.00  0.00     0.013 A 
HETATM   10  C11 UNL     1      23.534   5.504  49.712  1.00  0.00     0.040 A 
HETATM   11  C12 UNL     1      23.106   4.586  48.752  1.00  0.00     0.104 A 
HETATM   12  C20 UNL     1      22.942   3.244  49.043  1.00  0.00     0.136 A 
HETATM   13  C21 UNL     1      23.212   2.800  50.318  1.00  0.00     0.114 A 
HETATM   14  O3  UNL     1      23.009   1.437  50.471  1.00  0.00    -0.318 OA
HETATM   15  C22 UNL     1      21.731   0.976  49.990  1.00  0.00     0.276 C 
HETATM   16  C23 UNL     1      21.534   1.361  48.558  1.00  0.00     0.232 C 
HETATM   17  O4  UNL     1      22.516   2.310  48.108  1.00  0.00    -0.341 OA
HETATM   18  N2  UNL     1      20.754   1.719  50.801  1.00  0.00    -0.250 NA
HETATM   19  C24 UNL     1      20.870   1.737  52.098  1.00  0.00     0.204 C 
HETATM   20  N3  UNL     1      21.747   1.202  53.084  1.00  0.00    -0.351 N 
HETATM   21  H26 UNL     1      21.266   0.887  53.956  1.00  0.00     0.166 HD
ENDROOT
BRANCH  11  22
HETATM   22  O1  UNL     1      22.842   5.066  47.476  1.00  0.00    -0.348 OA
BRANCH  22  23
HETATM   23  C13 UNL     1      21.712   5.833  47.182  1.00  0.00     0.177 C 
BRANCH  23  24
HETATM   24  C14 UNL     1      20.506   4.952  46.880  1.00  0.00     0.057 C 
BRANCH  24  25
HETATM   25  C15 UNL     1      19.293   5.751  47.275  1.00  0.00     0.274 C 
BRANCH  25  26
HETATM   26  N1  UNL     1      18.389   5.033  48.154  1.00  0.00     0.092 N 
HETATM   27  C16 UNL     1      18.788   5.370  49.520  1.00  0.00     0.298 C 
HETATM   28  C17 UNL     1      18.329   4.345  50.505  1.00  0.00     0.198 C 
HETATM   29  O2  UNL     1      17.251   3.636  49.991  1.00  0.00    -0.388 OA
HETATM   30  C18 UNL     1      17.646   2.863  48.921  1.00  0.00     0.198 C 
HETATM   31  C19 UNL     1      18.617   3.606  48.022  1.00  0.00     0.298 C 
ENDBRANCH  25  26
ENDBRANCH  24  25
ENDBRANCH  23  24
ENDBRANCH  22  23
ENDBRANCH  11  22
BRANCH   1  32
HETATM   32  C1  UNL     1      27.239  -0.231  53.476  1.00  0.00     0.417 C 
HETATM   33  F1  UNL     1      27.998   0.678  52.780  1.00  0.00    -0.166 F 
HETATM   34  F2  UNL     1      27.450  -1.514  53.034  1.00  0.00    -0.166 F 
HETATM   35  F3  UNL     1      27.611  -0.089  54.812  1.00  0.00    -0.166 F 
ENDBRANCH   1  32
TORSDOF 6
ENDMDL
MODEL 9
REMARK VINA RESULT:      -7.7      3.265      7.621
REMARK  6 active torsions:
REMARK  status: ('A' for Active; 'I' for Inactive)
REMARK    1  A    between atoms: C1_2  and  C2_5 
REMARK    2  A    between atoms: C12_15  and  O1_16 
REMARK    3  A    between atoms: O1_16  and  C13_17 
REMARK    4  A    between atoms: C13_17  and  C14_18 
REMARK    5  A    between atoms: C14_18  and  C15_19 
REMARK    6  A    between atoms: C15_19  and  N1_20 
ROOT
HETATM    1  C2  UNL     1      27.020   7.423  48.583  1.00  0.00     0.048 A 
HETATM    2  C3  UNL     1      26.830   8.234  49.683  1.00  0.00     0.018 A 
HETATM    3  C4  UNL     1      25.524   8.372  50.117  1.00  0.00     0.031 A 
HETATM    4  C5  UNL     1      24.428   7.769  49.539  1.00  0.00     0.039 A 
HETATM    5  C6  UNL     1      24.628   6.961  48.441  1.00  0.00    -0.026 A 
HETATM    6  C7  UNL     1      25.927   6.819  48.003  1.00  0.00     0.025 A 
HETATM    7  C8  UNL     1      23.578   6.239  47.688  1.00  0.00     0.082 C 
HETATM    8  C9  UNL     1      23.110   4.999  48.341  1.00  0.00    -0.017 A 
HETATM    9  C10 UNL     1      22.395   4.168  47.507  1.00  0.00     0.013 A 
HETATM   10  C11 UNL     1      21.856   2.960  47.901  1.00  0.00     0.040 A 
HETATM   11  C12 UNL     1      22.073   2.599  49.231  1.00  0.00     0.104 A 
HETATM   12  C20 UNL     1      22.786   3.403  50.102  1.00  0.00     0.136 A 
HETATM   13  C21 UNL     1      23.296   4.596  49.643  1.00  0.00     0.114 A 
HETATM   14  O3  UNL     1      23.988   5.301  50.617  1.00  0.00    -0.318 OA
HETATM   15  C22 UNL     1      23.265   5.455  51.854  1.00  0.00     0.276 C 
HETATM   16  C23 UNL     1      22.844   4.124  52.392  1.00  0.00     0.232 C 
HETATM   17  O4  UNL     1      23.015   3.068  51.431  1.00  0.00    -0.341 OA
HETATM   18  N2  UNL     1      22.053   6.196  51.470  1.00  0.00    -0.250 NA
HETATM   19  C24 UNL     1      22.156   7.285  50.763  1.00  0.00     0.204 C 
HETATM   20  N3  UNL     1      23.194   8.067  50.181  1.00  0.00    -0.351 N 
HETATM   21  H26 UNL     1      23.030   9.097  50.232  1.00  0.00     0.166 HD
ENDROOT
BRANCH  11  22
HETATM   22  O1  UNL     1      21.545   1.389  49.663  1.00  0.00    -0.348 OA
BRANCH  22  23
HETATM   23  C13 UNL     1      20.219   1.258  50.083  1.00  0.00     0.177 C 
BRANCH  23  24
HETATM   24  C14 UNL     1      20.109   0.346  51.299  1.00  0.00     0.057 C 
BRANCH  24  25
HETATM   25  C15 UNL     1      20.440   1.198  52.495  1.00  0.00     0.274 C 
BRANCH  25  26
HETATM   26  N1  UNL     1      20.997   0.446  53.605  1.00  0.00     0.092 N 
HETATM   27  C16 UNL     1      22.444   0.425  53.402  1.00  0.00     0.298 C 
HETATM   28  C17 UNL     1      23.093  -0.709  54.126  1.00  0.00     0.198 C 
HETATM   29  O2  UNL     1      22.286  -1.131  55.176  1.00  0.00    -0.388 OA
HETATM   30  C18 UNL     1      21.130  -1.707  54.695  1.00  0.00     0.198 C 
HETATM   31  C19 UNL     1      20.570  -0.937  53.514  1.00  0.00     0.298 C 
ENDBRANCH  25  26
ENDBRANCH  24  25
ENDBRANCH  23  24
ENDBRANCH  22  23
ENDBRANCH  11  22
BRANCH   1  32
HETATM   32  C1  UNL     1      28.393   7.207  48.035  1.00  0.00     0.417 C 
HETATM   33  F1  UNL     1      28.472   7.799  46.799  1.00  0.00    -0.166 F 
HETATM   34  F2  UNL     1      28.719   5.874  47.984  1.00  0.00    -0.166 F 
HETATM   35  F3  UNL     1      29.278   7.914  48.850  1.00  0.00    -0.166 F 
ENDBRANCH   1  32
TORSDOF 6
ENDMDL
