MODEL 1
REMARK VINA RESULT:      -7.9      0.000      0.000
REMARK  3 active torsions:
REMARK  status: ('A' for Active; 'I' for Inactive)
REMARK    1  A    between atoms: C1_2  and  C2_3 
REMARK    2  A    between atoms: C6_8  and  N2_9 
REMARK    3  A    between atoms: N2_9  and  C7_10 
ROOT
HETATM    1  C2  UNL     1      28.592  -0.537  54.060  1.00  0.00     0.011 C 
HETATM    2  C3  UNL     1      28.009   0.671  54.218  1.00  0.00    -0.040 C 
HETATM    3  C4  UNL     1      26.677   0.799  54.891  1.00  0.00     0.156 C 
HETATM    4  N1  UNL     1      25.684   1.400  54.019  1.00  0.00    -0.379 N 
HETATM    5  C5  UNL     1      25.817   2.036  52.768  1.00  0.00     0.128 A 
HETATM    6  C6  UNL     1      24.559   2.372  52.311  1.00  0.00     0.160 A 
HETATM    7  N3  UNL     1      24.489   3.003  51.103  1.00  0.00    -0.222 NA
HETATM    8  C13 UNL     1      25.602   3.288  50.383  1.00  0.00     0.238 A 
HETATM    9  N4  UNL     1      26.822   2.954  50.840  1.00  0.00    -0.216 NA
HETATM   10  C14 UNL     1      26.958   2.321  52.043  1.00  0.00     0.197 A 
HETATM   11  O1  UNL     1      28.281   2.047  52.370  1.00  0.00    -0.328 OA
HETATM   12  C15 UNL     1      28.772   1.858  53.688  1.00  0.00     0.213 C 
HETATM   13  H6  UNL     1      24.739   1.332  54.415  1.00  0.00     0.160 HD
ENDROOT
BRANCH   6  14
HETATM   14  N2  UNL     1      23.335   2.118  52.989  1.00  0.00    -0.339 N 
HETATM   15  H7  UNL     1      23.224   3.019  53.501  1.00  0.00     0.167 HD
BRANCH  14  16
HETATM   16  C7  UNL     1      22.422   1.045  53.064  1.00  0.00     0.035 A 
HETATM   17  C8  UNL     1      22.815  -0.077  53.765  1.00  0.00     0.029 A 
HETATM   18  C9  UNL     1      21.885  -1.095  53.809  1.00  0.00     0.004 A 
HETATM   19  C10 UNL     1      20.649  -1.025  53.208  1.00  0.00     0.019 A 
HETATM   20  C11 UNL     1      20.304   0.123  52.517  1.00  0.00     0.013 A 
HETATM   21 BR1  UNL     1      18.597   0.226  51.683  1.00  0.00    -0.051 Br
HETATM   22  C12 UNL     1      21.198   1.191  52.433  1.00  0.00     0.048 A 
ENDBRANCH  14  16
ENDBRANCH   6  14
BRANCH   1  23
HETATM   23  C1  UNL     1      29.795  -1.235  53.522  1.00  0.00     0.250 C 
HETATM   24  F1  UNL     1      29.633  -2.609  53.470  1.00  0.00    -0.251 F 
ENDBRANCH   1  23
TORSDOF 3
ENDMDL
MODEL 2
REMARK VINA RESULT:      -7.8      1.367      1.809
REMARK  3 active torsions:
REMARK  status: ('A' for Active; 'I' for Inactive)
REMARK    1  A    between atoms: C1_2  and  C2_3 
REMARK    2  A    between atoms: C6_8  and  N2_9 
REMARK    3  A    between atoms: N2_9  and  C7_10 
ROOT
HETATM    1  C2  UNL     1      28.644  -0.241  53.736  1.00  0.00     0.011 C 
HETATM    2  C3  UNL     1      27.745   0.758  53.869  1.00  0.00    -0.040 C 
HETATM    3  C4  UNL     1      26.310   0.463  54.179  1.00  0.00     0.156 C 
HETATM    4  N1  UNL     1      25.418   0.966  53.149  1.00  0.00    -0.379 N 
HETATM    5  C5  UNL     1      25.659   1.822  52.056  1.00  0.00     0.128 A 
HETATM    6  C6  UNL     1      24.494   1.939  51.326  1.00  0.00     0.160 A 
HETATM    7  N3  UNL     1      24.536   2.738  50.220  1.00  0.00    -0.222 NA
HETATM    8  C13 UNL     1      25.669   3.387  49.853  1.00  0.00     0.238 A 
HETATM    9  N4  UNL     1      26.798   3.263  50.574  1.00  0.00    -0.216 NA
HETATM   10  C14 UNL     1      26.819   2.479  51.692  1.00  0.00     0.197 A 
HETATM   11  O1  UNL     1      28.058   2.459  52.322  1.00  0.00    -0.328 OA
HETATM   12  C15 UNL     1      28.269   2.159  53.693  1.00  0.00     0.213 C 
HETATM   13  H6  UNL     1      24.460   0.618  53.273  1.00  0.00     0.160 HD
ENDROOT
BRANCH   6  14
HETATM   14  N2  UNL     1      23.259   1.301  51.626  1.00  0.00    -0.339 N 
HETATM   15  H7  UNL     1      23.593   0.324  51.767  1.00  0.00     0.167 HD
BRANCH  14  16
HETATM   16  C7  UNL     1      21.912   1.703  51.740  1.00  0.00     0.035 A 
HETATM   17  C8  UNL     1      21.666   3.017  52.083  1.00  0.00     0.029 A 
HETATM   18  C9  UNL     1      20.333   3.358  52.180  1.00  0.00     0.004 A 
HETATM   19  C10 UNL     1      19.302   2.474  51.956  1.00  0.00     0.019 A 
HETATM   20  C11 UNL     1      19.602   1.168  51.614  1.00  0.00     0.013 A 
HETATM   21 BR1  UNL     1      18.182  -0.060  51.304  1.00  0.00    -0.051 Br
HETATM   22  C12 UNL     1      20.930   0.756  51.499  1.00  0.00     0.048 A 
ENDBRANCH  14  16
ENDBRANCH   6  14
BRANCH   1  23
HETATM   23  C1  UNL     1      30.078  -0.545  53.458  1.00  0.00     0.250 C 
HETATM   24  F1  UNL     1      30.543  -1.624  54.190  1.00  0.00    -0.251 F 
ENDBRANCH   1  23
TORSDOF 3
ENDMDL
MODEL 3
REMARK VINA RESULT:      -7.7      2.971      4.235
REMARK  3 active torsions:
REMARK  status: ('A' for Active; 'I' for Inactive)
REMARK    1  A    between atoms: C1_2  and  C2_3 
REMARK    2  A    between atoms: C6_8  and  N2_9 
REMARK    3  A    between atoms: N2_9  and  C7_10 
ROOT
HETATM    1  C2  UNL     1      28.075   0.637  53.474  1.00  0.00     0.011 C 
HETATM    2  C3  UNL     1      27.053   0.113  52.763  1.00  0.00    -0.040 C 
HETATM    3  C4  UNL     1      26.343   0.926  51.725  1.00  0.00     0.156 C 
HETATM    4  N1  UNL     1      24.928   1.064  52.018  1.00  0.00    -0.379 N 
HETATM    5  C5  UNL     1      24.115   0.419  52.970  1.00  0.00     0.128 A 
HETATM    6  C6  UNL     1      22.845   0.956  52.899  1.00  0.00     0.160 A 
HETATM    7  N3  UNL     1      21.911   0.449  53.755  1.00  0.00    -0.222 NA
HETATM    8  C13 UNL     1      22.213  -0.536  54.636  1.00  0.00     0.238 A 
HETATM    9  N4  UNL     1      23.455  -1.051  54.696  1.00  0.00    -0.216 NA
HETATM   10  C14 UNL     1      24.433  -0.586  53.864  1.00  0.00     0.197 A 
HETATM   11  O1  UNL     1      25.656  -1.220  54.051  1.00  0.00    -0.328 OA
HETATM   12  C15 UNL     1      26.682  -1.314  53.075  1.00  0.00     0.213 C 
HETATM   13  H6  UNL     1      24.479   1.756  51.406  1.00  0.00     0.160 HD
ENDROOT
BRANCH   6  14
HETATM   14  N2  UNL     1      22.429   1.988  52.014  1.00  0.00    -0.339 N 
HETATM   15  H7  UNL     1      22.298   2.766  52.696  1.00  0.00     0.167 HD
BRANCH  14  16
HETATM   16  C7  UNL     1      22.208   2.106  50.626  1.00  0.00     0.035 A 
HETATM   17  C8  UNL     1      21.719   0.998  49.963  1.00  0.00     0.029 A 
HETATM   18  C9  UNL     1      21.520   1.166  48.609  1.00  0.00     0.004 A 
HETATM   19  C10 UNL     1      21.780   2.341  47.940  1.00  0.00     0.019 A 
HETATM   20  C11 UNL     1      22.268   3.422  48.651  1.00  0.00     0.013 A 
HETATM   21 BR1  UNL     1      22.630   5.049  47.734  1.00  0.00    -0.051 Br
HETATM   22  C12 UNL     1      22.493   3.320  50.024  1.00  0.00     0.048 A 
ENDBRANCH  14  16
ENDBRANCH   6  14
BRANCH   1  23
HETATM   23  C1  UNL     1      29.076   0.346  54.540  1.00  0.00     0.250 C 
HETATM   24  F1  UNL     1      29.917  -0.703  54.208  1.00  0.00    -0.251 F 
ENDBRANCH   1  23
TORSDOF 3
ENDMDL
MODEL 4
REMARK VINA RESULT:      -7.7      2.166      3.721
REMARK  3 active torsions:
REMARK  status: ('A' for Active; 'I' for Inactive)
REMARK    1  A    between atoms: C1_2  and  C2_3 
REMARK    2  A    between atoms: C6_8  and  N2_9 
REMARK    3  A    between atoms: N2_9  and  C7_10 
ROOT
HETATM    1  C2  UNL     1      27.838   1.565  53.032  1.00  0.00     0.011 C 
HETATM    2  C3  UNL     1      26.905   0.702  52.576  1.00  0.00    -0.040 C 
HETATM    3  C4  UNL     1      25.730   1.190  51.785  1.00  0.00     0.156 C 
HETATM    4  N1  UNL     1      24.470   0.862  52.427  1.00  0.00    -0.379 N 
HETATM    5  C5  UNL     1      24.182   0.023  53.522  1.00  0.00     0.128 A 
HETATM    6  C6  UNL     1      22.831   0.104  53.793  1.00  0.00     0.160 A 
HETATM    7  N3  UNL     1      22.363  -0.648  54.831  1.00  0.00    -0.222 NA
HETATM    8  C13 UNL     1      23.185  -1.440  55.563  1.00  0.00     0.238 A 
HETATM    9  N4  UNL     1      24.500  -1.510  55.288  1.00  0.00    -0.216 NA
HETATM   10  C14 UNL     1      25.028  -0.781  54.261  1.00  0.00     0.197 A 
HETATM   11  O1  UNL     1      26.398  -0.965  54.108  1.00  0.00    -0.328 OA
HETATM   12  C15 UNL     1      27.118  -0.753  52.904  1.00  0.00     0.213 C 
HETATM   13  H6  UNL     1      23.680   1.340  51.979  1.00  0.00     0.160 HD
ENDROOT
BRANCH   6  14
HETATM   14  N2  UNL     1      21.890   0.903  53.087  1.00  0.00    -0.339 N 
HETATM   15  H7  UNL     1      22.251   1.853  53.320  1.00  0.00     0.167 HD
BRANCH  14  16
HETATM   16  C7  UNL     1      20.760   0.661  52.278  1.00  0.00     0.035 A 
HETATM   17  C8  UNL     1      20.806   1.104  50.971  1.00  0.00     0.029 A 
HETATM   18  C9  UNL     1      19.677   0.842  50.224  1.00  0.00     0.004 A 
HETATM   19  C10 UNL     1      18.571   0.188  50.717  1.00  0.00     0.019 A 
HETATM   20  C11 UNL     1      18.576  -0.236  52.034  1.00  0.00     0.013 A 
HETATM   21 BR1  UNL     1      17.050  -1.140  52.723  1.00  0.00    -0.051 Br
HETATM   22  C12 UNL     1      19.686  -0.002  52.846  1.00  0.00     0.048 A 
ENDBRANCH  14  16
ENDBRANCH   6  14
BRANCH   1  23
HETATM   23  C1  UNL     1      29.112   1.667  53.802  1.00  0.00     0.250 C 
HETATM   24  F1  UNL     1      30.006   0.658  53.486  1.00  0.00    -0.251 F 
ENDBRANCH   1  23
TORSDOF 3
ENDMDL
MODEL 5
REMARK VINA RESULT:      -7.7      2.553      4.012
REMARK  3 active torsions:
REMARK  status: ('A' for Active; 'I' for Inactive)
REMARK    1  A    between atoms: C1_2  and  C2_3 
REMARK    2  A    between atoms: C6_8  and  N2_9 
REMARK    3  A    between atoms: N2_9  and  C7_10 
ROOT
HETATM    1  C2  UNL     1      27.921   1.898  53.023  1.00  0.00     0.011 C 
HETATM    2  C3  UNL     1      27.251   0.774  52.691  1.00  0.00    -0.040 C 
HETATM    3  C4  UNL     1      26.156   0.805  51.671  1.00  0.00     0.156 C 
HETATM    4  N1  UNL     1      24.887   0.362  52.221  1.00  0.00    -0.379 N 
HETATM    5  C5  UNL     1      24.580  -0.255  53.450  1.00  0.00     0.128 A 
HETATM    6  C6  UNL     1      23.211  -0.412  53.532  1.00  0.00     0.160 A 
HETATM    7  N3  UNL     1      22.722  -0.998  54.663  1.00  0.00    -0.222 NA
HETATM    8  C13 UNL     1      23.541  -1.408  55.662  1.00  0.00     0.238 A 
HETATM    9  N4  UNL     1      24.874  -1.249  55.571  1.00  0.00    -0.216 NA
HETATM   10  C14 UNL     1      25.423  -0.670  54.463  1.00  0.00     0.197 A 
HETATM   11  O1  UNL     1      26.809  -0.580  54.524  1.00  0.00    -0.328 OA
HETATM   12  C15 UNL     1      27.670  -0.489  53.399  1.00  0.00     0.213 C 
HETATM   13  H6  UNL     1      24.109   0.544  51.577  1.00  0.00     0.160 HD
ENDROOT
BRANCH   6  14
HETATM   14  N2  UNL     1      22.270  -0.015  52.541  1.00  0.00    -0.339 N 
HETATM   15  H7  UNL     1      22.296  -0.855  51.924  1.00  0.00     0.167 HD
BRANCH  14  16
HETATM   16  C7  UNL     1      21.462   1.117  52.306  1.00  0.00     0.035 A 
HETATM   17  C8  UNL     1      20.099   0.919  52.217  1.00  0.00     0.029 A 
HETATM   18  C9  UNL     1      19.356   2.058  51.987  1.00  0.00     0.004 A 
HETATM   19  C10 UNL     1      19.905   3.313  51.852  1.00  0.00     0.019 A 
HETATM   20  C11 UNL     1      21.277   3.457  51.950  1.00  0.00     0.013 A 
HETATM   21 BR1  UNL     1      22.044   5.188  51.763  1.00  0.00    -0.051 Br
HETATM   22  C12 UNL     1      22.089   2.345  52.181  1.00  0.00     0.048 A 
ENDBRANCH  14  16
ENDBRANCH   6  14
BRANCH   1  23
HETATM   23  C1  UNL     1      29.008   2.444  53.886  1.00  0.00     0.250 C 
HETATM   24  F1  UNL     1      29.607   1.469  54.666  1.00  0.00    -0.251 F 
ENDBRANCH   1  23
TORSDOF 3
ENDMDL
MODEL 6
REMARK VINA RESULT:      -7.5      2.807      4.560
REMARK  3 active torsions:
REMARK  status: ('A' for Active; 'I' for Inactive)
REMARK    1  A    between atoms: C1_2  and  C2_3 
REMARK    2  A    between atoms: C6_8  and  N2_9 
REMARK    3  A    between atoms: N2_9  and  C7_10 
ROOT
HETATM    1  C2  UNL     1      25.575   5.640  49.335  1.00  0.00     0.011 C 
HETATM    2  C3  UNL     1      25.397   4.305  49.423  1.00  0.00    -0.040 C 
HETATM    3  C4  UNL     1      24.055   3.730  49.756  1.00  0.00     0.156 C 
HETATM    4  N1  UNL     1      24.092   2.930  50.968  1.00  0.00    -0.379 N 
HETATM    5  C5  UNL     1      25.179   2.467  51.735  1.00  0.00     0.128 A 
HETATM    6  C6  UNL     1      24.685   1.807  52.841  1.00  0.00     0.160 A 
HETATM    7  N3  UNL     1      25.599   1.283  53.708  1.00  0.00    -0.222 NA
HETATM    8  C13 UNL     1      26.933   1.404  53.495  1.00  0.00     0.238 A 
HETATM    9  N4  UNL     1      27.401   2.051  52.412  1.00  0.00    -0.216 NA
HETATM   10  C14 UNL     1      26.536   2.596  51.507  1.00  0.00     0.197 A 
HETATM   11  O1  UNL     1      27.178   3.227  50.448  1.00  0.00    -0.328 OA
HETATM   12  C15 UNL     1      26.610   3.448  49.167  1.00  0.00     0.213 C 
HETATM   13  H6  UNL     1      23.149   2.680  51.287  1.00  0.00     0.160 HD
ENDROOT
BRANCH   6  14
HETATM   14  N2  UNL     1      23.309   1.627  53.155  1.00  0.00    -0.339 N 
HETATM   15  H7  UNL     1      22.978   2.613  53.076  1.00  0.00     0.167 HD
BRANCH  14  16
HETATM   16  C7  UNL     1      22.480   0.537  53.492  1.00  0.00     0.035 A 
HETATM   17  C8  UNL     1      23.029  -0.465  54.266  1.00  0.00     0.029 A 
HETATM   18  C9  UNL     1      22.176  -1.507  54.567  1.00  0.00     0.004 A 
HETATM   19  C10 UNL     1      20.869  -1.568  54.143  1.00  0.00     0.019 A 
HETATM   20  C11 UNL     1      20.367  -0.537  53.369  1.00  0.00     0.013 A 
HETATM   21 BR1  UNL     1      18.560  -0.616  52.777  1.00  0.00    -0.051 Br
HETATM   22  C12 UNL     1      21.176   0.547  53.027  1.00  0.00     0.048 A 
ENDBRANCH  14  16
ENDBRANCH   6  14
BRANCH   1  23
HETATM   23  C1  UNL     1      26.581   6.707  49.063  1.00  0.00     0.250 C 
HETATM   24  F1  UNL     1      27.177   6.570  47.820  1.00  0.00    -0.251 F 
ENDBRANCH   1  23
TORSDOF 3
ENDMDL
MODEL 7
REMARK VINA RESULT:      -7.2      4.453      6.935
REMARK  3 active torsions:
REMARK  status: ('A' for Active; 'I' for Inactive)
REMARK    1  A    between atoms: C1_2  and  C2_3 
REMARK    2  A    between atoms: C6_8  and  N2_9 
REMARK    3  A    between atoms: N2_9  and  C7_10 
ROOT
HETATM    1  C2  UNL     1      22.651  -0.174  53.958  1.00  0.00     0.011 C 
HETATM    2  C3  UNL     1      22.837   0.281  52.700  1.00  0.00    -0.040 C 
HETATM    3  C4  UNL     1      24.174   0.789  52.256  1.00  0.00     0.156 C 
HETATM    4  N1  UNL     1      24.111   2.172  51.819  1.00  0.00    -0.379 N 
HETATM    5  C5  UNL     1      23.008   3.012  51.568  1.00  0.00     0.128 A 
HETATM    6  C6  UNL     1      23.478   4.268  51.243  1.00  0.00     0.160 A 
HETATM    7  N3  UNL     1      22.546   5.224  50.965  1.00  0.00    -0.222 NA
HETATM    8  C13 UNL     1      21.217   4.956  51.005  1.00  0.00     0.238 A 
HETATM    9  N4  UNL     1      20.772   3.727  51.323  1.00  0.00    -0.216 NA
HETATM   10  C14 UNL     1      21.657   2.727  51.612  1.00  0.00     0.197 A 
HETATM   11  O1  UNL     1      21.037   1.521  51.920  1.00  0.00    -0.328 OA
HETATM   12  C15 UNL     1      21.636   0.242  51.789  1.00  0.00     0.213 C 
HETATM   13  H6  UNL     1      25.048   2.569  51.679  1.00  0.00     0.160 HD
ENDROOT
BRANCH   6  14
HETATM   14  N2  UNL     1      24.847   4.650  51.175  1.00  0.00    -0.339 N 
HETATM   15  H7  UNL     1      25.130   4.476  52.164  1.00  0.00     0.167 HD
BRANCH  14  16
HETATM   16  C7  UNL     1      25.716   5.134  50.176  1.00  0.00     0.035 A 
HETATM   17  C8  UNL     1      26.628   4.247  49.640  1.00  0.00     0.029 A 
HETATM   18  C9  UNL     1      27.453   4.771  48.667  1.00  0.00     0.004 A 
HETATM   19  C10 UNL     1      27.393   6.078  48.239  1.00  0.00     0.019 A 
HETATM   20  C11 UNL     1      26.460   6.926  48.807  1.00  0.00     0.013 A 
HETATM   21 BR1  UNL     1      26.371   8.735  48.222  1.00  0.00    -0.051 Br
HETATM   22  C12 UNL     1      25.595   6.461  49.799  1.00  0.00     0.048 A 
ENDBRANCH  14  16
ENDBRANCH   6  14
BRANCH   1  23
HETATM   23  C1  UNL     1      21.645  -0.751  54.896  1.00  0.00     0.250 C 
HETATM   24  F1  UNL     1      21.164  -1.977  54.469  1.00  0.00    -0.251 F 
ENDBRANCH   1  23
TORSDOF 3
ENDMDL
MODEL 8
REMARK VINA RESULT:      -7.1      4.033      6.904
REMARK  3 active torsions:
REMARK  status: ('A' for Active; 'I' for Inactive)
REMARK    1  A    between atoms: C1_2  and  C2_3 
REMARK    2  A    between atoms: C6_8  and  N2_9 
REMARK    3  A    between atoms: N2_9  and  C7_10 
ROOT
HETATM    1  C2  UNL     1      23.029   2.896  48.665  1.00  0.00     0.011 C 
HETATM    2  C3  UNL     1      22.820   3.068  49.988  1.00  0.00    -0.040 C 
HETATM    3  C4  UNL     1      23.906   3.595  50.875  1.00  0.00     0.156 C 
HETATM    4  N1  UNL     1      24.245   2.660  51.933  1.00  0.00    -0.379 N 
HETATM    5  C5  UNL     1      23.608   1.477  52.358  1.00  0.00     0.128 A 
HETATM    6  C6  UNL     1      24.368   0.906  53.359  1.00  0.00     0.160 A 
HETATM    7  N3  UNL     1      23.904  -0.257  53.900  1.00  0.00    -0.222 NA
HETATM    8  C13 UNL     1      22.749  -0.828  53.476  1.00  0.00     0.238 A 
HETATM    9  N4  UNL     1      22.019  -0.262  52.499  1.00  0.00    -0.216 NA
HETATM   10  C14 UNL     1      22.431   0.903  51.918  1.00  0.00     0.197 A 
HETATM   11  O1  UNL     1      21.566   1.357  50.929  1.00  0.00    -0.328 OA
HETATM   12  C15 UNL     1      21.451   2.706  50.503  1.00  0.00     0.213 C 
HETATM   13  H6  UNL     1      25.097   2.943  52.431  1.00  0.00     0.160 HD
ENDROOT
BRANCH   6  14
HETATM   14  N2  UNL     1      25.589   1.425  53.873  1.00  0.00    -0.339 N 
HETATM   15  H7  UNL     1      25.223   2.234  54.419  1.00  0.00     0.167 HD
BRANCH  14  16
HETATM   16  C7  UNL     1      26.954   1.084  53.778  1.00  0.00     0.035 A 
HETATM   17  C8  UNL     1      27.874   2.108  53.880  1.00  0.00     0.029 A 
HETATM   18  C9  UNL     1      29.195   1.721  53.782  1.00  0.00     0.004 A 
HETATM   19  C10 UNL     1      29.595   0.417  53.597  1.00  0.00     0.019 A 
HETATM   20  C11 UNL     1      28.633  -0.572  53.501  1.00  0.00     0.013 A 
HETATM   21 BR1  UNL     1      29.179  -2.376  53.244  1.00  0.00    -0.051 Br
HETATM   22  C12 UNL     1      27.278  -0.249  53.591  1.00  0.00     0.048 A 
ENDBRANCH  14  16
ENDBRANCH   6  14
BRANCH   1  23
HETATM   23  C1  UNL     1      22.394   2.450  47.392  1.00  0.00     0.250 C 
HETATM   24  F1  UNL     1      21.653   1.290  47.546  1.00  0.00    -0.251 F 
ENDBRANCH   1  23
TORSDOF 3
ENDMDL
MODEL 9
REMARK VINA RESULT:      -7.1      4.118      6.969
REMARK  3 active torsions:
REMARK  status: ('A' for Active; 'I' for Inactive)
REMARK    1  A    between atoms: C1_2  and  C2_3 
REMARK    2  A    between atoms: C6_8  and  N2_9 
REMARK    3  A    between atoms: N2_9  and  C7_10 
ROOT
HETATM    1  C2  UNL     1      19.812   1.561  51.792  1.00  0.00     0.011 C 
HETATM    2  C3  UNL     1      20.950   0.970  51.369  1.00  0.00    -0.040 C 
HETATM    3  C4  UNL     1      21.919   0.382  52.349  1.00  0.00     0.156 C 
HETATM    4  N1  UNL     1      23.229   1.000  52.254  1.00  0.00    -0.379 N 
HETATM    5  C5  UNL     1      23.766   1.884  51.297  1.00  0.00     0.128 A 
HETATM    6  C6  UNL     1      25.038   2.243  51.697  1.00  0.00     0.160 A 
HETATM    7  N3  UNL     1      25.721   3.103  50.886  1.00  0.00    -0.222 NA
HETATM    8  C13 UNL     1      25.177   3.583  49.741  1.00  0.00     0.238 A 
HETATM    9  N4  UNL     1      23.937   3.226  49.363  1.00  0.00    -0.216 NA
HETATM   10  C14 UNL     1      23.203   2.368  50.132  1.00  0.00     0.197 A 
HETATM   11  O1  UNL     1      21.946   2.100  49.604  1.00  0.00    -0.328 OA
HETATM   12  C15 UNL     1      21.177   0.940  49.880  1.00  0.00     0.213 C 
HETATM   13  H6  UNL     1      23.838   0.720  53.031  1.00  0.00     0.160 HD
ENDROOT
BRANCH   6  14
HETATM   14  N2  UNL     1      25.694   1.796  52.877  1.00  0.00    -0.339 N 
HETATM   15  H7  UNL     1      24.921   1.915  53.567  1.00  0.00     0.167 HD
BRANCH  14  16
HETATM   16  C7  UNL     1      26.978   1.311  53.201  1.00  0.00     0.035 A 
HETATM   17  C8  UNL     1      27.903   2.223  53.669  1.00  0.00     0.029 A 
HETATM   18  C9  UNL     1      29.142   1.697  53.972  1.00  0.00     0.004 A 
HETATM   19  C10 UNL     1      29.461   0.365  53.829  1.00  0.00     0.019 A 
HETATM   20  C11 UNL     1      28.497  -0.507  53.356  1.00  0.00     0.013 A 
HETATM   21 BR1  UNL     1      28.931  -2.349  53.154  1.00  0.00    -0.051 Br
HETATM   22  C12 UNL     1      27.223  -0.041  53.030  1.00  0.00     0.048 A 
ENDBRANCH  14  16
ENDBRANCH   6  14
BRANCH   1  23
HETATM   23  C1  UNL     1      18.575   2.260  51.337  1.00  0.00     0.250 C 
HETATM   24  F1  UNL     1      18.617   3.623  51.580  1.00  0.00    -0.251 F 
ENDBRANCH   1  23
TORSDOF 3
ENDMDL
