MODEL 1
REMARK VINA RESULT:      -7.4      0.000      0.000
REMARK  4 active torsions:
REMARK  status: ('A' for Active; 'I' for Inactive)
REMARK    1  A    between atoms: O1_2  and  C2_3 
REMARK    2  A    between atoms: C6_7  and  O2_8 
REMARK    3  A    between atoms: C10_15  and  N3_16 
REMARK    4  A    between atoms: N3_16  and  C12_18 
ROOT
HETATM    1  C2  UNL     1      25.546   1.118  52.526  1.00  0.00     0.116 A 
HETATM    2  C3  UNL     1      24.398   1.731  52.540  1.00  0.00     0.027 A 
HETATM    3  C4  UNL     1      23.411   1.069  53.122  1.00  0.00     0.037 A 
HETATM    4  C5  UNL     1      24.103  -0.108  53.666  1.00  0.00     0.124 A 
HETATM    5  C6  UNL     1      25.395  -0.094  53.316  1.00  0.00     0.137 A 
HETATM    6  O3  UNL     1      23.726  -1.195  54.440  1.00  0.00    -0.300 OA
HETATM    7  C8  UNL     1      22.531  -1.513  55.069  1.00  0.00     0.260 C 
HETATM    8  N1  UNL     1      21.275  -1.214  54.837  1.00  0.00    -0.230 NA
HETATM    9  C9  UNL     1      20.653  -0.418  53.805  1.00  0.00     0.231 C 
HETATM   10  N2  UNL     1      21.066   0.635  53.234  1.00  0.00    -0.252 NA
HETATM   11  C10 UNL     1      22.040   1.642  53.061  1.00  0.00     0.247 C 
ENDROOT
BRANCH  11  12
HETATM   12  N3  UNL     1      21.894   2.492  51.912  1.00  0.00    -0.358 N 
HETATM   13  C11 UNL     1      21.515   3.871  52.272  1.00  0.00     0.152 C 
BRANCH  12  14
HETATM   14  C12 UNL     1      22.046   2.297  50.508  1.00  0.00     0.031 A 
HETATM   15  C13 UNL     1      21.546   1.196  49.838  1.00  0.00     0.029 A 
HETATM   16  C14 UNL     1      21.705   1.039  48.488  1.00  0.00     0.002 A 
HETATM   17  C15 UNL     1      22.370   1.961  47.707  1.00  0.00     0.000 A 
HETATM   18  C16 UNL     1      22.891   3.090  48.344  1.00  0.00     0.002 A 
HETATM   19  C17 UNL     1      22.703   3.198  49.701  1.00  0.00     0.029 A 
ENDBRANCH  12  14
ENDBRANCH  11  12
BRANCH   1  20
HETATM   20  O1  UNL     1      26.745   1.468  51.904  1.00  0.00    -0.352 OA
HETATM   21  C1  UNL     1      27.730   2.104  52.687  1.00  0.00     0.210 C 
ENDBRANCH   1  20
BRANCH   5  22
HETATM   22  O2  UNL     1      26.323  -1.086  53.681  1.00  0.00    -0.351 OA
HETATM   23  C7  UNL     1      26.958  -1.902  52.705  1.00  0.00     0.210 C 
ENDBRANCH   5  22
TORSDOF 4
ENDMDL
MODEL 2
REMARK VINA RESULT:      -7.3      2.508      5.636
REMARK  4 active torsions:
REMARK  status: ('A' for Active; 'I' for Inactive)
REMARK    1  A    between atoms: O1_2  and  C2_3 
REMARK    2  A    between atoms: C6_7  and  O2_8 
REMARK    3  A    between atoms: C10_15  and  N3_16 
REMARK    4  A    between atoms: N3_16  and  C12_18 
ROOT
HETATM    1  C2  UNL     1      23.524   1.947  51.337  1.00  0.00     0.116 A 
HETATM    2  C3  UNL     1      24.372   1.170  51.945  1.00  0.00     0.027 A 
HETATM    3  C4  UNL     1      23.842   0.328  52.818  1.00  0.00     0.037 A 
HETATM    4  C5  UNL     1      22.400   0.544  52.624  1.00  0.00     0.124 A 
HETATM    5  C6  UNL     1      22.190   1.519  51.732  1.00  0.00     0.137 A 
HETATM    6  O3  UNL     1      21.247  -0.023  53.143  1.00  0.00    -0.300 OA
HETATM    7  C8  UNL     1      21.048  -1.098  53.998  1.00  0.00     0.260 C 
HETATM    8  N1  UNL     1      21.772  -1.658  54.937  1.00  0.00    -0.230 NA
HETATM    9  C9  UNL     1      23.088  -1.350  55.445  1.00  0.00     0.231 C 
HETATM   10  N2  UNL     1      24.112  -0.921  54.835  1.00  0.00    -0.252 NA
HETATM   11  C10 UNL     1      24.755  -0.499  53.651  1.00  0.00     0.247 C 
ENDROOT
BRANCH  11  12
HETATM   12  N3  UNL     1      26.029   0.147  53.802  1.00  0.00    -0.358 N 
HETATM   13  C11 UNL     1      25.904   1.557  54.216  1.00  0.00     0.152 C 
BRANCH  12  14
HETATM   14  C12 UNL     1      27.381  -0.279  53.652  1.00  0.00     0.031 A 
HETATM   15  C13 UNL     1      28.465   0.526  53.947  1.00  0.00     0.029 A 
HETATM   16  C14 UNL     1      29.753   0.088  53.795  1.00  0.00     0.002 A 
HETATM   17  C15 UNL     1      30.057  -1.179  53.342  1.00  0.00     0.000 A 
HETATM   18  C16 UNL     1      28.990  -2.026  53.032  1.00  0.00     0.002 A 
HETATM   19  C17 UNL     1      27.718  -1.535  53.202  1.00  0.00     0.029 A 
ENDBRANCH  12  14
ENDBRANCH  11  12
BRANCH   1  20
HETATM   20  O1  UNL     1      23.745   3.010  50.461  1.00  0.00    -0.352 OA
HETATM   21  C1  UNL     1      23.921   4.294  51.018  1.00  0.00     0.210 C 
ENDBRANCH   1  20
BRANCH   5  22
HETATM   22  O2  UNL     1      20.917   1.962  51.331  1.00  0.00    -0.351 OA
HETATM   23  C7  UNL     1      20.334   3.137  51.881  1.00  0.00     0.210 C 
ENDBRANCH   5  22
TORSDOF 4
ENDMDL
MODEL 3
REMARK VINA RESULT:      -7.2      1.248      2.027
REMARK  4 active torsions:
REMARK  status: ('A' for Active; 'I' for Inactive)
REMARK    1  A    between atoms: O1_2  and  C2_3 
REMARK    2  A    between atoms: C6_7  and  O2_8 
REMARK    3  A    between atoms: C10_15  and  N3_16 
REMARK    4  A    between atoms: N3_16  and  C12_18 
ROOT
HETATM    1  C2  UNL     1      25.759   1.132  52.505  1.00  0.00     0.116 A 
HETATM    2  C3  UNL     1      24.503   1.460  52.435  1.00  0.00     0.027 A 
HETATM    3  C4  UNL     1      23.683   0.718  53.162  1.00  0.00     0.037 A 
HETATM    4  C5  UNL     1      24.617  -0.143  53.903  1.00  0.00     0.124 A 
HETATM    5  C6  UNL     1      25.877   0.095  53.518  1.00  0.00     0.137 A 
HETATM    6  O3  UNL     1      24.486  -1.115  54.883  1.00  0.00    -0.300 OA
HETATM    7  C8  UNL     1      23.384  -1.566  55.597  1.00  0.00     0.260 C 
HETATM    8  N1  UNL     1      22.097  -1.611  55.348  1.00  0.00    -0.230 NA
HETATM    9  C9  UNL     1      21.327  -1.194  54.201  1.00  0.00     0.231 C 
HETATM   10  N2  UNL     1      21.497  -0.206  53.425  1.00  0.00    -0.252 NA
HETATM   11  C10 UNL     1      22.219   0.942  53.033  1.00  0.00     0.247 C 
ENDROOT
BRANCH  11  12
HETATM   12  N3  UNL     1      21.901   1.496  51.746  1.00  0.00    -0.358 N 
HETATM   13  C11 UNL     1      21.419   0.477  50.794  1.00  0.00     0.152 C 
BRANCH  12  14
HETATM   14  C12 UNL     1      21.939   2.809  51.194  1.00  0.00     0.031 A 
HETATM   15  C13 UNL     1      21.581   3.940  51.905  1.00  0.00     0.029 A 
HETATM   16  C14 UNL     1      21.631   5.188  51.349  1.00  0.00     0.002 A 
HETATM   17  C15 UNL     1      22.040   5.407  50.049  1.00  0.00     0.000 A 
HETATM   18  C16 UNL     1      22.411   4.291  49.294  1.00  0.00     0.002 A 
HETATM   19  C17 UNL     1      22.341   3.060  49.902  1.00  0.00     0.029 A 
ENDBRANCH  12  14
ENDBRANCH  11  12
BRANCH   1  20
HETATM   20  O1  UNL     1      26.857   1.616  51.792  1.00  0.00    -0.352 OA
HETATM   21  C1  UNL     1      26.643   2.692  50.905  1.00  0.00     0.210 C 
ENDBRANCH   1  20
BRANCH   5  22
HETATM   22  O2  UNL     1      27.001  -0.570  54.041  1.00  0.00    -0.351 OA
HETATM   23  C7  UNL     1      27.996   0.128  54.779  1.00  0.00     0.210 C 
ENDBRANCH   5  22
TORSDOF 4
ENDMDL
MODEL 4
REMARK VINA RESULT:      -7.0      2.653      5.745
REMARK  4 active torsions:
REMARK  status: ('A' for Active; 'I' for Inactive)
REMARK    1  A    between atoms: O1_2  and  C2_3 
REMARK    2  A    between atoms: C6_7  and  O2_8 
REMARK    3  A    between atoms: C10_15  and  N3_16 
REMARK    4  A    between atoms: N3_16  and  C12_18 
ROOT
HETATM    1  C2  UNL     1      24.876   3.161  50.181  1.00  0.00     0.116 A 
HETATM    2  C3  UNL     1      25.318   2.240  50.986  1.00  0.00     0.027 A 
HETATM    3  C4  UNL     1      24.387   1.494  51.558  1.00  0.00     0.037 A 
HETATM    4  C5  UNL     1      23.161   1.962  50.894  1.00  0.00     0.124 A 
HETATM    5  C6  UNL     1      23.438   2.970  50.058  1.00  0.00     0.137 A 
HETATM    6  O3  UNL     1      21.824   1.600  50.940  1.00  0.00    -0.300 OA
HETATM    7  C8  UNL     1      21.166   0.566  51.592  1.00  0.00     0.260 C 
HETATM    8  N1  UNL     1      21.413  -0.124  52.679  1.00  0.00    -0.230 NA
HETATM    9  C9  UNL     1      22.496  -0.059  53.631  1.00  0.00     0.231 C 
HETATM   10  N2  UNL     1      23.724   0.192  53.447  1.00  0.00    -0.252 NA
HETATM   11  C10 UNL     1      24.802   0.509  52.592  1.00  0.00     0.247 C 
ENDROOT
BRANCH  11  12
HETATM   12  N3  UNL     1      26.027   0.919  53.221  1.00  0.00    -0.358 N 
HETATM   13  C11 UNL     1      25.893   2.199  53.941  1.00  0.00     0.152 C 
BRANCH  12  14
HETATM   14  C12 UNL     1      27.333   0.356  53.310  1.00  0.00     0.031 A 
HETATM   15  C13 UNL     1      28.457   1.098  53.623  1.00  0.00     0.029 A 
HETATM   16  C14 UNL     1      29.698   0.528  53.705  1.00  0.00     0.002 A 
HETATM   17  C15 UNL     1      29.914  -0.816  53.483  1.00  0.00     0.000 A 
HETATM   18  C16 UNL     1      28.804  -1.603  53.164  1.00  0.00     0.002 A 
HETATM   19  C17 UNL     1      27.582  -0.980  53.095  1.00  0.00     0.029 A 
ENDBRANCH  12  14
ENDBRANCH  11  12
BRANCH   1  20
HETATM   20  O1  UNL     1      25.559   4.180  49.517  1.00  0.00    -0.352 OA
HETATM   21  C1  UNL     1      25.430   5.493  50.016  1.00  0.00     0.210 C 
ENDBRANCH   1  20
BRANCH   5  22
HETATM   22  O2  UNL     1      22.477   3.634  49.276  1.00  0.00    -0.351 OA
HETATM   23  C7  UNL     1      22.382   3.414  47.874  1.00  0.00     0.210 C 
ENDBRANCH   5  22
TORSDOF 4
ENDMDL
MODEL 5
REMARK VINA RESULT:      -6.7      1.988      4.334
REMARK  4 active torsions:
REMARK  status: ('A' for Active; 'I' for Inactive)
REMARK    1  A    between atoms: O1_2  and  C2_3 
REMARK    2  A    between atoms: C6_7  and  O2_8 
REMARK    3  A    between atoms: C10_15  and  N3_16 
REMARK    4  A    between atoms: N3_16  and  C12_18 
ROOT
HETATM    1  C2  UNL     1      23.854  -0.157  53.452  1.00  0.00     0.116 A 
HETATM    2  C3  UNL     1      23.027   0.398  52.616  1.00  0.00     0.027 A 
HETATM    3  C4  UNL     1      23.563   1.290  51.798  1.00  0.00     0.037 A 
HETATM    4  C5  UNL     1      24.996   1.174  52.108  1.00  0.00     0.124 A 
HETATM    5  C6  UNL     1      25.190   0.303  53.105  1.00  0.00     0.137 A 
HETATM    6  O3  UNL     1      26.155   1.748  51.608  1.00  0.00    -0.300 OA
HETATM    7  C8  UNL     1      26.377   2.603  50.537  1.00  0.00     0.260 C 
HETATM    8  N1  UNL     1      25.642   3.497  49.921  1.00  0.00    -0.230 NA
HETATM    9  C9  UNL     1      24.285   3.938  50.139  1.00  0.00     0.231 C 
HETATM   10  N2  UNL     1      23.268   3.279  50.511  1.00  0.00    -0.252 NA
HETATM   11  C10 UNL     1      22.663   2.067  50.906  1.00  0.00     0.247 C 
ENDROOT
BRANCH  11  12
HETATM   12  N3  UNL     1      21.343   2.156  51.468  1.00  0.00    -0.358 N 
HETATM   13  C11 UNL     1      21.168   3.354  52.311  1.00  0.00     0.152 C 
BRANCH  12  14
HETATM   14  C12 UNL     1      20.170   1.352  51.379  1.00  0.00     0.031 A 
HETATM   15  C13 UNL     1      19.724   0.548  52.412  1.00  0.00     0.029 A 
HETATM   16  C14 UNL     1      18.592  -0.211  52.299  1.00  0.00     0.002 A 
HETATM   17  C15 UNL     1      17.820  -0.227  51.155  1.00  0.00     0.000 A 
HETATM   18  C16 UNL     1      18.235   0.572  50.086  1.00  0.00     0.002 A 
HETATM   19  C17 UNL     1      19.380   1.314  50.254  1.00  0.00     0.029 A 
ENDBRANCH  12  14
ENDBRANCH  11  12
BRANCH   1  20
HETATM   20  O1  UNL     1      23.611  -1.034  54.510  1.00  0.00    -0.352 OA
HETATM   21  C1  UNL     1      22.269  -1.264  54.879  1.00  0.00     0.210 C 
ENDBRANCH   1  20
BRANCH   5  22
HETATM   22  O2  UNL     1      26.452  -0.026  53.632  1.00  0.00    -0.351 OA
HETATM   23  C7  UNL     1      26.829   0.363  54.947  1.00  0.00     0.210 C 
ENDBRANCH   5  22
TORSDOF 4
ENDMDL
MODEL 6
REMARK VINA RESULT:      -6.6      2.652      4.801
REMARK  4 active torsions:
REMARK  status: ('A' for Active; 'I' for Inactive)
REMARK    1  A    between atoms: O1_2  and  C2_3 
REMARK    2  A    between atoms: C6_7  and  O2_8 
REMARK    3  A    between atoms: C10_15  and  N3_16 
REMARK    4  A    between atoms: N3_16  and  C12_18 
ROOT
HETATM    1  C2  UNL     1      24.683   2.876  50.085  1.00  0.00     0.116 A 
HETATM    2  C3  UNL     1      24.140   2.363  51.150  1.00  0.00     0.027 A 
HETATM    3  C4  UNL     1      24.987   2.017  52.106  1.00  0.00     0.037 A 
HETATM    4  C5  UNL     1      26.267   2.517  51.584  1.00  0.00     0.124 A 
HETATM    5  C6  UNL     1      26.102   3.040  50.364  1.00  0.00     0.137 A 
HETATM    6  O3  UNL     1      27.567   2.567  52.064  1.00  0.00    -0.300 OA
HETATM    7  C8  UNL     1      28.114   2.226  53.293  1.00  0.00     0.260 C 
HETATM    8  N1  UNL     1      27.777   1.375  54.232  1.00  0.00    -0.230 NA
HETATM    9  C9  UNL     1      26.676   0.448  54.336  1.00  0.00     0.231 C 
HETATM   10  N2  UNL     1      25.480   0.562  53.934  1.00  0.00    -0.252 NA
HETATM   11  C10 UNL     1      24.459   1.300  53.297  1.00  0.00     0.247 C 
ENDROOT
BRANCH  11  12
HETATM   12  N3  UNL     1      23.255   0.588  52.969  1.00  0.00    -0.358 N 
HETATM   13  C11 UNL     1      23.354  -0.855  53.260  1.00  0.00     0.152 C 
BRANCH  12  14
HETATM   14  C12 UNL     1      21.989   0.970  52.438  1.00  0.00     0.031 A 
HETATM   15  C13 UNL     1      21.262   2.046  52.914  1.00  0.00     0.029 A 
HETATM   16  C14 UNL     1      20.050   2.391  52.381  1.00  0.00     0.002 A 
HETATM   17  C15 UNL     1      19.473   1.696  51.338  1.00  0.00     0.000 A 
HETATM   18  C16 UNL     1      20.174   0.601  50.827  1.00  0.00     0.002 A 
HETATM   19  C17 UNL     1      21.386   0.298  51.399  1.00  0.00     0.029 A 
ENDBRANCH  12  14
ENDBRANCH  11  12
BRANCH   1  20
HETATM   20  O1  UNL     1      24.109   3.234  48.865  1.00  0.00    -0.352 OA
HETATM   21  C1  UNL     1      22.796   2.792  48.602  1.00  0.00     0.210 C 
ENDBRANCH   1  20
BRANCH   5  22
HETATM   22  O2  UNL     1      27.140   3.602  49.598  1.00  0.00    -0.351 OA
HETATM   23  C7  UNL     1      26.982   4.853  48.941  1.00  0.00     0.210 C 
ENDBRANCH   5  22
TORSDOF 4
ENDMDL
MODEL 7
REMARK VINA RESULT:      -6.6      2.296      4.107
REMARK  4 active torsions:
REMARK  status: ('A' for Active; 'I' for Inactive)
REMARK    1  A    between atoms: O1_2  and  C2_3 
REMARK    2  A    between atoms: C6_7  and  O2_8 
REMARK    3  A    between atoms: C10_15  and  N3_16 
REMARK    4  A    between atoms: N3_16  and  C12_18 
ROOT
HETATM    1  C2  UNL     1      21.721   0.993  52.735  1.00  0.00     0.116 A 
HETATM    2  C3  UNL     1      22.428   1.545  51.793  1.00  0.00     0.027 A 
HETATM    3  C4  UNL     1      23.739   1.398  51.909  1.00  0.00     0.037 A 
HETATM    4  C5  UNL     1      23.849   0.494  53.063  1.00  0.00     0.124 A 
HETATM    5  C6  UNL     1      22.639   0.238  53.574  1.00  0.00     0.137 A 
HETATM    6  O3  UNL     1      24.898  -0.135  53.718  1.00  0.00    -0.300 OA
HETATM    7  C8  UNL     1      26.256  -0.199  53.441  1.00  0.00     0.260 C 
HETATM    8  N1  UNL     1      27.093   0.591  52.812  1.00  0.00    -0.230 NA
HETATM    9  C9  UNL     1      26.902   1.863  52.155  1.00  0.00     0.231 C 
HETATM   10  N2  UNL     1      25.913   2.291  51.490  1.00  0.00    -0.252 NA
HETATM   11  C10 UNL     1      24.621   2.112  50.949  1.00  0.00     0.247 C 
ENDROOT
BRANCH  11  12
HETATM   12  N3  UNL     1      23.968   3.284  50.433  1.00  0.00    -0.358 N 
HETATM   13  C11 UNL     1      23.966   4.401  51.397  1.00  0.00     0.152 C 
BRANCH  12  14
HETATM   14  C12 UNL     1      23.337   3.604  49.197  1.00  0.00     0.031 A 
HETATM   15  C13 UNL     1      22.783   2.653  48.361  1.00  0.00     0.029 A 
HETATM   16  C14 UNL     1      22.180   2.992  47.181  1.00  0.00     0.002 A 
HETATM   17  C15 UNL     1      22.082   4.298  46.745  1.00  0.00     0.000 A 
HETATM   18  C16 UNL     1      22.628   5.292  47.561  1.00  0.00     0.002 A 
HETATM   19  C17 UNL     1      23.223   4.896  48.735  1.00  0.00     0.029 A 
ENDBRANCH  12  14
ENDBRANCH  11  12
BRANCH   1  20
HETATM   20  O1  UNL     1      20.350   1.051  52.982  1.00  0.00    -0.352 OA
HETATM   21  C1  UNL     1      19.510   0.197  52.238  1.00  0.00     0.210 C 
ENDBRANCH   1  20
BRANCH   5  22
HETATM   22  O2  UNL     1      22.411  -0.594  54.686  1.00  0.00    -0.351 OA
HETATM   23  C7  UNL     1      21.688  -1.812  54.562  1.00  0.00     0.210 C 
ENDBRANCH   5  22
TORSDOF 4
ENDMDL
MODEL 8
REMARK VINA RESULT:      -6.6      2.746      5.943
REMARK  4 active torsions:
REMARK  status: ('A' for Active; 'I' for Inactive)
REMARK    1  A    between atoms: O1_2  and  C2_3 
REMARK    2  A    between atoms: C6_7  and  O2_8 
REMARK    3  A    between atoms: C10_15  and  N3_16 
REMARK    4  A    between atoms: N3_16  and  C12_18 
ROOT
HETATM    1  C2  UNL     1      20.586   0.446  52.858  1.00  0.00     0.116 A 
HETATM    2  C3  UNL     1      21.567   1.293  52.751  1.00  0.00     0.027 A 
HETATM    3  C4  UNL     1      21.763   1.782  51.537  1.00  0.00     0.037 A 
HETATM    4  C5  UNL     1      20.625   1.226  50.790  1.00  0.00     0.124 A 
HETATM    5  C6  UNL     1      19.903   0.417  51.574  1.00  0.00     0.137 A 
HETATM    6  O3  UNL     1      20.148   1.354  49.495  1.00  0.00    -0.300 OA
HETATM    7  C8  UNL     1      20.550   2.155  48.435  1.00  0.00     0.260 C 
HETATM    8  N1  UNL     1      21.692   2.702  48.093  1.00  0.00    -0.230 NA
HETATM    9  C9  UNL     1      22.995   2.669  48.712  1.00  0.00     0.231 C 
HETATM   10  N2  UNL     1      23.309   2.654  49.939  1.00  0.00    -0.252 NA
HETATM   11  C10 UNL     1      22.947   2.651  51.304  1.00  0.00     0.247 C 
ENDROOT
BRANCH  11  12
HETATM   12  N3  UNL     1      23.989   2.355  52.248  1.00  0.00    -0.358 N 
HETATM   13  C11 UNL     1      24.194   3.443  53.223  1.00  0.00     0.152 C 
BRANCH  12  14
HETATM   14  C12 UNL     1      24.855   1.243  52.455  1.00  0.00     0.031 A 
HETATM   15  C13 UNL     1      25.996   1.022  51.706  1.00  0.00     0.029 A 
HETATM   16  C14 UNL     1      26.810  -0.054  51.930  1.00  0.00     0.002 A 
HETATM   17  C15 UNL     1      26.552  -0.988  52.912  1.00  0.00     0.000 A 
HETATM   18  C16 UNL     1      25.408  -0.803  53.693  1.00  0.00     0.002 A 
HETATM   19  C17 UNL     1      24.626   0.294  53.426  1.00  0.00     0.029 A 
ENDBRANCH  12  14
ENDBRANCH  11  12
BRANCH   1  20
HETATM   20  O1  UNL     1      20.184  -0.334  53.943  1.00  0.00    -0.352 OA
HETATM   21  C1  UNL     1      21.106  -1.270  54.457  1.00  0.00     0.210 C 
ENDBRANCH   1  20
BRANCH   5  22
HETATM   22  O2  UNL     1      18.749  -0.268  51.151  1.00  0.00    -0.351 OA
HETATM   23  C7  UNL     1      17.464   0.056  51.669  1.00  0.00     0.210 C 
ENDBRANCH   5  22
TORSDOF 4
ENDMDL
MODEL 9
REMARK VINA RESULT:      -6.4      3.210      6.214
REMARK  4 active torsions:
REMARK  status: ('A' for Active; 'I' for Inactive)
REMARK    1  A    between atoms: O1_2  and  C2_3 
REMARK    2  A    between atoms: C6_7  and  O2_8 
REMARK    3  A    between atoms: C10_15  and  N3_16 
REMARK    4  A    between atoms: N3_16  and  C12_18 
ROOT
HETATM    1  C2  UNL     1      22.088   1.457  52.718  1.00  0.00     0.116 A 
HETATM    2  C3  UNL     1      23.288   1.933  52.559  1.00  0.00     0.027 A 
HETATM    3  C4  UNL     1      23.349   3.162  52.071  1.00  0.00     0.037 A 
HETATM    4  C5  UNL     1      21.932   3.554  52.036  1.00  0.00     0.124 A 
HETATM    5  C6  UNL     1      21.156   2.535  52.425  1.00  0.00     0.137 A 
HETATM    6  O3  UNL     1      21.244   4.710  51.703  1.00  0.00    -0.300 OA
HETATM    7  C8  UNL     1      21.682   5.980  51.355  1.00  0.00     0.260 C 
HETATM    8  N1  UNL     1      22.775   6.443  50.797  1.00  0.00    -0.230 NA
HETATM    9  C9  UNL     1      23.964   5.777  50.320  1.00  0.00     0.231 C 
HETATM   10  N2  UNL     1      24.565   4.761  50.780  1.00  0.00    -0.252 NA
HETATM   11  C10 UNL     1      24.682   3.727  51.734  1.00  0.00     0.247 C 
ENDROOT
BRANCH  11  12
HETATM   12  N3  UNL     1      25.619   2.678  51.437  1.00  0.00    -0.358 N 
HETATM   13  C11 UNL     1      25.970   2.622  50.006  1.00  0.00     0.152 C 
BRANCH  12  14
HETATM   14  C12 UNL     1      26.287   1.693  52.221  1.00  0.00     0.031 A 
HETATM   15  C13 UNL     1      26.477   0.391  51.798  1.00  0.00     0.029 A 
HETATM   16  C14 UNL     1      27.126  -0.532  52.573  1.00  0.00     0.002 A 
HETATM   17  C15 UNL     1      27.633  -0.230  53.819  1.00  0.00     0.000 A 
HETATM   18  C16 UNL     1      27.463   1.077  54.285  1.00  0.00     0.002 A 
HETATM   19  C17 UNL     1      26.804   1.963  53.468  1.00  0.00     0.029 A 
ENDBRANCH  12  14
ENDBRANCH  11  12
BRANCH   1  20
HETATM   20  O1  UNL     1      21.669   0.180  53.091  1.00  0.00    -0.352 OA
HETATM   21  C1  UNL     1      21.423  -0.058  54.459  1.00  0.00     0.210 C 
ENDBRANCH   1  20
BRANCH   5  22
HETATM   22  O2  UNL     1      19.753   2.595  52.498  1.00  0.00    -0.351 OA
HETATM   23  C7  UNL     1      18.933   1.881  51.582  1.00  0.00     0.210 C 
ENDBRANCH   5  22
TORSDOF 4
ENDMDL
