MODEL 1
REMARK VINA RESULT:      -8.3      0.000      0.000
REMARK  6 active torsions:
REMARK  status: ('A' for Active; 'I' for Inactive)
REMARK    1  A    between atoms: C2_2  and  C3_3 
REMARK    2  A    between atoms: C3_3  and  C4_4 
REMARK    3  A    between atoms: C5_5  and  N1_6 
REMARK    4  A    between atoms: C8_9  and  N2_10 
REMARK    5  A    between atoms: C13_15  and  N3_16 
REMARK    6  A    between atoms: N3_16  and  C14_17 
ROOT
HETATM    1  C3  UNL     1      23.764  -0.415  53.753  1.00  0.00    -0.041 C 
HETATM    2  C13 UNL     1      24.821  -0.912  54.385  1.00  0.00     0.113 C 
ENDROOT
BRANCH   1   3
HETATM    3  C2  UNL     1      22.375  -0.927  53.642  1.00  0.00     0.035 C 
HETATM    4  C1  UNL     1      21.572  -0.651  54.877  1.00  0.00     0.010 C 
ENDBRANCH   1   3
BRANCH   1   5
HETATM    5  C4  UNL     1      23.998   0.837  53.052  1.00  0.00     0.025 C 
HETATM    6  C5  UNL     1      23.230   1.395  52.153  1.00  0.00     0.086 C 
BRANCH   6   7
HETATM    7  N1  UNL     1      23.328   2.595  51.396  1.00  0.00    -0.390 N 
HETATM    8  C6  UNL     1      23.311   2.308  50.000  1.00  0.00     0.124 C 
HETATM    9  C7  UNL     1      23.723   3.543  49.207  1.00  0.00     0.055 C 
HETATM   10  C8  UNL     1      25.000   4.046  49.865  1.00  0.00     0.225 C 
HETATM   11  C11 UNL     1      24.560   4.706  51.151  1.00  0.00     0.055 C 
HETATM   12  C12 UNL     1      23.435   3.969  51.819  1.00  0.00     0.124 C 
BRANCH  10  13
HETATM   13  N2  UNL     1      25.723   4.986  49.058  1.00  0.00     0.084 N 
HETATM   14  C9  UNL     1      25.662   6.282  49.709  1.00  0.00     0.309 C 
HETATM   15  C10 UNL     1      27.119   4.638  48.913  1.00  0.00     0.309 C 
ENDBRANCH  10  13
ENDBRANCH   6   7
ENDBRANCH   1   5
BRANCH   2  16
HETATM   16  N3  UNL     1      26.118  -0.376  54.452  1.00  0.00    -0.196 N 
HETATM   17  H24 UNL     1      26.636   0.252  55.097  1.00  0.00     0.183 HD
BRANCH  16  18
HETATM   18  C14 UNL     1      26.956  -0.779  53.380  1.00  0.00     0.744 C 
HETATM   19  N4  UNL     1      27.603  -0.068  52.522  1.00  0.00     0.044 NA
HETATM   20  N5  UNL     1      27.498   1.320  52.624  1.00  0.00    -0.132 NA
HETATM   21  C15 UNL     1      28.411   1.839  53.391  1.00  0.00     0.110 C 
HETATM   22  C16 UNL     1      28.835   1.034  54.359  1.00  0.00     0.036 C 
HETATM   23  C17 UNL     1      29.440  -0.222  53.962  1.00  0.00     0.004 C 
HETATM   24  C18 UNL     1      29.541  -1.429  53.518  1.00  0.00     0.020 C 
HETATM   25  C19 UNL     1      28.602  -2.402  53.030  1.00  0.00     0.136 C 
HETATM   26  N6  UNL     1      27.343  -2.095  52.959  1.00  0.00    -0.074 NA
ENDBRANCH  16  18
ENDBRANCH   2  16
TORSDOF 6
ENDMDL
MODEL 2
REMARK VINA RESULT:      -8.3      2.296      5.098
REMARK  6 active torsions:
REMARK  status: ('A' for Active; 'I' for Inactive)
REMARK    1  A    between atoms: C2_2  and  C3_3 
REMARK    2  A    between atoms: C3_3  and  C4_4 
REMARK    3  A    between atoms: C5_5  and  N1_6 
REMARK    4  A    between atoms: C8_9  and  N2_10 
REMARK    5  A    between atoms: C13_15  and  N3_16 
REMARK    6  A    between atoms: N3_16  and  C14_17 
ROOT
HETATM    1  C3  UNL     1      26.378   2.517  51.537  1.00  0.00    -0.041 C 
HETATM    2  C13 UNL     1      27.279   2.196  52.459  1.00  0.00     0.113 C 
ENDROOT
BRANCH   1   3
HETATM    3  C2  UNL     1      26.535   2.794  50.087  1.00  0.00     0.035 C 
HETATM    4  C1  UNL     1      26.165   4.204  49.740  1.00  0.00     0.010 C 
ENDBRANCH   1   3
BRANCH   1   5
HETATM    5  C4  UNL     1      25.010   2.613  52.020  1.00  0.00     0.025 C 
HETATM    6  C5  UNL     1      24.024   1.792  51.766  1.00  0.00     0.086 C 
BRANCH   6   7
HETATM    7  N1  UNL     1      22.657   1.759  52.161  1.00  0.00    -0.390 N 
HETATM    8  C6  UNL     1      22.403   0.624  52.985  1.00  0.00     0.124 C 
HETATM    9  C7  UNL     1      20.901   0.421  53.147  1.00  0.00     0.055 C 
HETATM   10  C8  UNL     1      20.325   0.483  51.739  1.00  0.00     0.225 C 
HETATM   11  C11 UNL     1      20.343   1.946  51.360  1.00  0.00     0.055 C 
HETATM   12  C12 UNL     1      21.568   2.655  51.861  1.00  0.00     0.124 C 
BRANCH  10  13
HETATM   13  N2  UNL     1      18.987  -0.026  51.650  1.00  0.00     0.084 N 
HETATM   14  C9  UNL     1      18.668  -0.681  52.906  1.00  0.00     0.309 C 
HETATM   15  C10 UNL     1      18.007   1.017  51.443  1.00  0.00     0.309 C 
ENDBRANCH  10  13
ENDBRANCH   6   7
ENDBRANCH   1   5
BRANCH   2  16
HETATM   16  N3  UNL     1      27.064   1.944  53.825  1.00  0.00    -0.196 N 
HETATM   17  H24 UNL     1      26.477   2.352  54.578  1.00  0.00     0.183 HD
BRANCH  16  18
HETATM   18  C14 UNL     1      27.830   0.862  54.331  1.00  0.00     0.744 C 
HETATM   19  N4  UNL     1      27.461  -0.162  55.022  1.00  0.00     0.044 NA
HETATM   20  N5  UNL     1      26.107  -0.269  55.345  1.00  0.00    -0.132 NA
HETATM   21  C15 UNL     1      25.426  -0.923  54.450  1.00  0.00     0.110 C 
HETATM   22  C16 UNL     1      25.910  -0.827  53.216  1.00  0.00     0.036 C 
HETATM   23  C17 UNL     1      27.260  -1.306  52.992  1.00  0.00     0.004 C 
HETATM   24  C18 UNL     1      28.549  -1.348  53.020  1.00  0.00     0.020 C 
HETATM   25  C19 UNL     1      29.571  -0.493  53.559  1.00  0.00     0.136 C 
HETATM   26  N6  UNL     1      29.231   0.583  54.198  1.00  0.00    -0.074 NA
ENDBRANCH  16  18
ENDBRANCH   2  16
TORSDOF 6
ENDMDL
MODEL 3
REMARK VINA RESULT:      -7.8      2.037      5.543
REMARK  6 active torsions:
REMARK  status: ('A' for Active; 'I' for Inactive)
REMARK    1  A    between atoms: C2_2  and  C3_3 
REMARK    2  A    between atoms: C3_3  and  C4_4 
REMARK    3  A    between atoms: C5_5  and  N1_6 
REMARK    4  A    between atoms: C8_9  and  N2_10 
REMARK    5  A    between atoms: C13_15  and  N3_16 
REMARK    6  A    between atoms: N3_16  and  C14_17 
ROOT
HETATM    1  C3  UNL     1      25.534   3.880  49.822  1.00  0.00    -0.041 C 
HETATM    2  C13 UNL     1      26.606   3.295  50.346  1.00  0.00     0.113 C 
ENDROOT
BRANCH   1   3
HETATM    3  C2  UNL     1      25.388   5.177  49.114  1.00  0.00     0.035 C 
HETATM    4  C1  UNL     1      26.715   5.771  48.749  1.00  0.00     0.010 C 
ENDBRANCH   1   3
BRANCH   1   5
HETATM    5  C4  UNL     1      24.295   3.131  49.960  1.00  0.00     0.025 C 
HETATM    6  C5  UNL     1      23.291   3.404  50.752  1.00  0.00     0.086 C 
BRANCH   6   7
HETATM    7  N1  UNL     1      22.037   2.775  50.990  1.00  0.00    -0.390 N 
HETATM    8  C6  UNL     1      21.399   3.349  52.128  1.00  0.00     0.124 C 
HETATM    9  C7  UNL     1      20.224   2.481  52.562  1.00  0.00     0.055 C 
HETATM   10  C8  UNL     1      20.767   1.061  52.630  1.00  0.00     0.225 C 
HETATM   11  C11 UNL     1      20.898   0.609  51.194  1.00  0.00     0.055 C 
HETATM   12  C12 UNL     1      21.371   1.708  50.287  1.00  0.00     0.124 C 
BRANCH  10  13
HETATM   13  N2  UNL     1      19.911   0.160  53.347  1.00  0.00     0.084 N 
HETATM   14  C9  UNL     1      18.904  -0.337  52.427  1.00  0.00     0.309 C 
HETATM   15  C10 UNL     1      20.622  -0.985  53.871  1.00  0.00     0.309 C 
ENDBRANCH  10  13
ENDBRANCH   6   7
ENDBRANCH   1   5
BRANCH   2  16
HETATM   16  N3  UNL     1      26.677   2.058  51.008  1.00  0.00    -0.196 N 
HETATM   17  H24 UNL     1      26.506   1.065  50.759  1.00  0.00     0.183 HD
BRANCH  16  18
HETATM   18  C14 UNL     1      27.087   2.161  52.363  1.00  0.00     0.744 C 
HETATM   19  N4  UNL     1      26.394   2.080  53.447  1.00  0.00     0.044 NA
HETATM   20  N5  UNL     1      25.023   1.852  53.319  1.00  0.00    -0.132 NA
HETATM   21  C15 UNL     1      24.721   0.587  53.311  1.00  0.00     0.110 C 
HETATM   22  C16 UNL     1      25.673  -0.199  52.818  1.00  0.00     0.036 C 
HETATM   23  C17 UNL     1      26.957  -0.190  53.491  1.00  0.00     0.004 C 
HETATM   24  C18 UNL     1      28.115   0.223  53.882  1.00  0.00     0.020 C 
HETATM   25  C19 UNL     1      28.887   1.413  53.653  1.00  0.00     0.136 C 
HETATM   26  N6  UNL     1      28.396   2.361  52.916  1.00  0.00    -0.074 NA
ENDBRANCH  16  18
ENDBRANCH   2  16
TORSDOF 6
ENDMDL
MODEL 4
REMARK VINA RESULT:      -7.4      2.418      6.445
REMARK  6 active torsions:
REMARK  status: ('A' for Active; 'I' for Inactive)
REMARK    1  A    between atoms: C2_2  and  C3_3 
REMARK    2  A    between atoms: C3_3  and  C4_4 
REMARK    3  A    between atoms: C5_5  and  N1_6 
REMARK    4  A    between atoms: C8_9  and  N2_10 
REMARK    5  A    between atoms: C13_15  and  N3_16 
REMARK    6  A    between atoms: N3_16  and  C14_17 
ROOT
HETATM    1  C3  UNL     1      26.212   0.917  52.221  1.00  0.00    -0.041 C 
HETATM    2  C13 UNL     1      26.899   1.923  51.692  1.00  0.00     0.113 C 
ENDROOT
BRANCH   1   3
HETATM    3  C2  UNL     1      26.607  -0.490  52.485  1.00  0.00     0.035 C 
HETATM    4  C1  UNL     1      27.909  -0.581  53.222  1.00  0.00     0.010 C 
ENDBRANCH   1   3
BRANCH   1   5
HETATM    5  C4  UNL     1      24.848   1.239  52.608  1.00  0.00     0.025 C 
HETATM    6  C5  UNL     1      23.771   0.538  52.363  1.00  0.00     0.086 C 
BRANCH   6   7
HETATM    7  N1  UNL     1      22.395   0.724  52.673  1.00  0.00    -0.390 N 
HETATM    8  C6  UNL     1      21.835  -0.478  53.195  1.00  0.00     0.124 C 
HETATM    9  C7  UNL     1      20.314  -0.372  53.233  1.00  0.00     0.055 C 
HETATM   10  C8  UNL     1      19.903   0.124  51.853  1.00  0.00     0.225 C 
HETATM   11  C11 UNL     1      20.258   1.592  51.829  1.00  0.00     0.055 C 
HETATM   12  C12 UNL     1      21.549   1.883  52.540  1.00  0.00     0.124 C 
BRANCH  10  13
HETATM   13  N2  UNL     1      18.505  -0.043  51.583  1.00  0.00     0.084 N 
HETATM   14  C9  UNL     1      17.923  -0.812  52.669  1.00  0.00     0.309 C 
HETATM   15  C10 UNL     1      17.796   1.216  51.516  1.00  0.00     0.309 C 
ENDBRANCH  10  13
ENDBRANCH   6   7
ENDBRANCH   1   5
BRANCH   2  16
HETATM   16  N3  UNL     1      26.465   3.241  51.466  1.00  0.00    -0.196 N 
HETATM   17  H24 UNL     1      26.196   4.052  52.056  1.00  0.00     0.183 HD
BRANCH  16  18
HETATM   18  C14 UNL     1      26.360   3.577  50.091  1.00  0.00     0.744 C 
HETATM   19  N4  UNL     1      25.324   3.616  49.325  1.00  0.00     0.044 NA
HETATM   20  N5  UNL     1      24.090   3.289  49.891  1.00  0.00    -0.132 NA
HETATM   21  C15 UNL     1      23.473   4.322  50.384  1.00  0.00     0.110 C 
HETATM   22  C16 UNL     1      24.279   5.285  50.818  1.00  0.00     0.036 C 
HETATM   23  C17 UNL     1      25.173   5.890  49.851  1.00  0.00     0.004 C 
HETATM   24  C18 UNL     1      26.172   6.025  49.046  1.00  0.00     0.020 C 
HETATM   25  C19 UNL     1      27.273   5.185  48.662  1.00  0.00     0.136 C 
HETATM   26  N6  UNL     1      27.373   3.993  49.165  1.00  0.00    -0.074 NA
ENDBRANCH  16  18
ENDBRANCH   2  16
TORSDOF 6
ENDMDL
MODEL 5
REMARK VINA RESULT:      -7.3      2.130      6.542
REMARK  6 active torsions:
REMARK  status: ('A' for Active; 'I' for Inactive)
REMARK    1  A    between atoms: C2_2  and  C3_3 
REMARK    2  A    between atoms: C3_3  and  C4_4 
REMARK    3  A    between atoms: C5_5  and  N1_6 
REMARK    4  A    between atoms: C8_9  and  N2_10 
REMARK    5  A    between atoms: C13_15  and  N3_16 
REMARK    6  A    between atoms: N3_16  and  C14_17 
ROOT
HETATM    1  C3  UNL     1      21.179   0.923  53.069  1.00  0.00    -0.041 C 
HETATM    2  C13 UNL     1      20.410   1.948  52.716  1.00  0.00     0.113 C 
ENDROOT
BRANCH   1   3
HETATM    3  C2  UNL     1      20.843  -0.338  53.777  1.00  0.00     0.035 C 
HETATM    4  C1  UNL     1      19.457  -0.811  53.459  1.00  0.00     0.010 C 
ENDBRANCH   1   3
BRANCH   1   5
HETATM    5  C4  UNL     1      22.580   1.050  52.704  1.00  0.00     0.025 C 
HETATM    6  C5  UNL     1      23.603   0.481  53.287  1.00  0.00     0.086 C 
BRANCH   6   7
HETATM    7  N1  UNL     1      25.005   0.512  53.045  1.00  0.00    -0.390 N 
HETATM    8  C6  UNL     1      25.563  -0.793  53.179  1.00  0.00     0.124 C 
HETATM    9  C7  UNL     1      27.084  -0.708  53.228  1.00  0.00     0.055 C 
HETATM   10  C8  UNL     1      27.402   0.365  54.259  1.00  0.00     0.225 C 
HETATM   11  C11 UNL     1      27.097   1.681  53.581  1.00  0.00     0.055 C 
HETATM   12  C12 UNL     1      25.878   1.608  52.707  1.00  0.00     0.124 C 
BRANCH  10  13
HETATM   13  N2  UNL     1      28.769   0.347  54.694  1.00  0.00     0.084 N 
HETATM   14  C9  UNL     1      29.481  -0.645  53.909  1.00  0.00     0.309 C 
HETATM   15  C10 UNL     1      29.434   1.616  54.495  1.00  0.00     0.309 C 
ENDBRANCH  10  13
ENDBRANCH   6   7
ENDBRANCH   1   5
BRANCH   2  16
HETATM   16  N3  UNL     1      20.792   3.122  52.043  1.00  0.00    -0.196 N 
HETATM   17  H24 UNL     1      21.199   4.038  52.309  1.00  0.00     0.183 HD
BRANCH  16  18
HETATM   18  C14 UNL     1      20.579   3.067  50.640  1.00  0.00     0.744 C 
HETATM   19  N4  UNL     1      20.876   3.923  49.724  1.00  0.00     0.044 NA
HETATM   20  N5  UNL     1      21.510   5.101  50.123  1.00  0.00    -0.132 NA
HETATM   21  C15 UNL     1      22.807   5.000  50.120  1.00  0.00     0.110 C 
HETATM   22  C16 UNL     1      23.261   3.774  50.353  1.00  0.00     0.036 C 
HETATM   23  C17 UNL     1      22.866   2.731  49.427  1.00  0.00     0.004 C 
HETATM   24  C18 UNL     1      22.123   1.864  48.827  1.00  0.00     0.020 C 
HETATM   25  C19 UNL     1      20.752   1.453  48.959  1.00  0.00     0.136 C 
HETATM   26  N6  UNL     1      19.993   2.033  49.837  1.00  0.00    -0.074 NA
ENDBRANCH  16  18
ENDBRANCH   2  16
TORSDOF 6
ENDMDL
MODEL 6
REMARK VINA RESULT:      -7.0      2.756      4.666
REMARK  6 active torsions:
REMARK  status: ('A' for Active; 'I' for Inactive)
REMARK    1  A    between atoms: C2_2  and  C3_3 
REMARK    2  A    between atoms: C3_3  and  C4_4 
REMARK    3  A    between atoms: C5_5  and  N1_6 
REMARK    4  A    between atoms: C8_9  and  N2_10 
REMARK    5  A    between atoms: C13_15  and  N3_16 
REMARK    6  A    between atoms: N3_16  and  C14_17 
ROOT
HETATM    1  C3  UNL     1      26.181   3.028  50.402  1.00  0.00    -0.041 C 
HETATM    2  C13 UNL     1      26.712   2.623  51.551  1.00  0.00     0.113 C 
ENDROOT
BRANCH   1   3
HETATM    3  C2  UNL     1      26.815   3.309  49.090  1.00  0.00     0.035 C 
HETATM    4  C1  UNL     1      27.219   4.746  48.956  1.00  0.00     0.010 C 
ENDBRANCH   1   3
BRANCH   1   5
HETATM    5  C4  UNL     1      24.741   3.229  50.427  1.00  0.00     0.025 C 
HETATM    6  C5  UNL     1      24.104   4.369  50.480  1.00  0.00     0.086 C 
BRANCH   6   7
HETATM    7  N1  UNL     1      22.724   4.716  50.510  1.00  0.00    -0.390 N 
HETATM    8  C6  UNL     1      22.004   3.981  49.525  1.00  0.00     0.124 C 
HETATM    9  C7  UNL     1      20.609   4.570  49.349  1.00  0.00     0.055 C 
HETATM   10  C8  UNL     1      20.815   6.069  49.182  1.00  0.00     0.225 C 
HETATM   11  C11 UNL     1      21.137   6.590  50.563  1.00  0.00     0.055 C 
HETATM   12  C12 UNL     1      22.005   5.645  51.345  1.00  0.00     0.124 C 
BRANCH  10  13
HETATM   13  N2  UNL     1      19.661   6.746  48.664  1.00  0.00     0.084 N 
HETATM   14  C9  UNL     1      19.833   8.170  48.889  1.00  0.00     0.309 C 
HETATM   15  C10 UNL     1      19.492   6.549  47.241  1.00  0.00     0.309 C 
ENDBRANCH  10  13
ENDBRANCH   6   7
ENDBRANCH   1   5
BRANCH   2  16
HETATM   16  N3  UNL     1      26.052   2.373  52.767  1.00  0.00    -0.196 N 
HETATM   17  H24 UNL     1      25.072   2.408  53.107  1.00  0.00     0.183 HD
BRANCH  16  18
HETATM   18  C14 UNL     1      26.922   1.965  53.812  1.00  0.00     0.744 C 
HETATM   19  N4  UNL     1      26.808   0.994  54.652  1.00  0.00     0.044 NA
HETATM   20  N5  UNL     1      25.672   0.189  54.558  1.00  0.00    -0.132 NA
HETATM   21  C15 UNL     1      25.841  -0.829  53.765  1.00  0.00     0.110 C 
HETATM   22  C16 UNL     1      26.710  -0.618  52.782  1.00  0.00     0.036 C 
HETATM   23  C17 UNL     1      28.070  -0.287  53.157  1.00  0.00     0.004 C 
HETATM   24  C18 UNL     1      29.072   0.400  53.594  1.00  0.00     0.020 C 
HETATM   25  C19 UNL     1      29.228   1.732  54.107  1.00  0.00     0.136 C 
HETATM   26  N6  UNL     1      28.189   2.501  54.217  1.00  0.00    -0.074 NA
ENDBRANCH  16  18
ENDBRANCH   2  16
TORSDOF 6
ENDMDL
MODEL 7
REMARK VINA RESULT:      -6.9      2.614      5.382
REMARK  6 active torsions:
REMARK  status: ('A' for Active; 'I' for Inactive)
REMARK    1  A    between atoms: C2_2  and  C3_3 
REMARK    2  A    between atoms: C3_3  and  C4_4 
REMARK    3  A    between atoms: C5_5  and  N1_6 
REMARK    4  A    between atoms: C8_9  and  N2_10 
REMARK    5  A    between atoms: C13_15  and  N3_16 
REMARK    6  A    between atoms: N3_16  and  C14_17 
ROOT
HETATM    1  C3  UNL     1      25.048   0.673  53.266  1.00  0.00    -0.041 C 
HETATM    2  C13 UNL     1      23.883   0.063  53.452  1.00  0.00     0.113 C 
ENDROOT
BRANCH   1   3
HETATM    3  C2  UNL     1      26.210   0.836  54.175  1.00  0.00     0.035 C 
HETATM    4  C1  UNL     1      26.186  -0.150  55.303  1.00  0.00     0.010 C 
ENDBRANCH   1   3
BRANCH   1   5
HETATM    5  C4  UNL     1      25.222   1.282  51.957  1.00  0.00     0.025 C 
HETATM    6  C5  UNL     1      25.168   2.555  51.665  1.00  0.00     0.086 C 
BRANCH   6   7
HETATM    7  N1  UNL     1      25.315   3.285  50.453  1.00  0.00    -0.390 N 
HETATM    8  C6  UNL     1      26.691   3.396  50.101  1.00  0.00     0.124 C 
HETATM    9  C7  UNL     1      26.866   4.426  48.991  1.00  0.00     0.055 C 
HETATM   10  C8  UNL     1      26.096   5.657  49.449  1.00  0.00     0.225 C 
HETATM   11  C11 UNL     1      24.636   5.318  49.252  1.00  0.00     0.055 C 
HETATM   12  C12 UNL     1      24.328   3.888  49.591  1.00  0.00     0.124 C 
BRANCH  10  13
HETATM   13  N2  UNL     1      26.424   6.841  48.709  1.00  0.00     0.084 N 
HETATM   14  C9  UNL     1      26.288   7.982  49.595  1.00  0.00     0.309 C 
HETATM   15  C10 UNL     1      27.785   6.832  48.220  1.00  0.00     0.309 C 
ENDBRANCH  10  13
ENDBRANCH   6   7
ENDBRANCH   1   5
BRANCH   2  16
HETATM   16  N3  UNL     1      22.816  -0.057  52.545  1.00  0.00    -0.196 N 
HETATM   17  H24 UNL     1      22.699  -0.381  51.566  1.00  0.00     0.183 HD
BRANCH  16  18
HETATM   18  C14 UNL     1      21.568   0.362  53.076  1.00  0.00     0.744 C 
HETATM   19  N4  UNL     1      20.941   1.479  52.934  1.00  0.00     0.044 NA
HETATM   20  N5  UNL     1      21.540   2.459  52.139  1.00  0.00    -0.132 NA
HETATM   21  C15 UNL     1      21.192   2.374  50.888  1.00  0.00     0.110 C 
HETATM   22  C16 UNL     1      20.894   1.143  50.486  1.00  0.00     0.036 C 
HETATM   23  C17 UNL     1      19.800   0.471  51.158  1.00  0.00     0.004 C 
HETATM   24  C18 UNL     1      19.146  -0.149  52.082  1.00  0.00     0.020 C 
HETATM   25  C19 UNL     1      19.461  -0.589  53.413  1.00  0.00     0.136 C 
HETATM   26  N6  UNL     1      20.636  -0.345  53.905  1.00  0.00    -0.074 NA
ENDBRANCH  16  18
ENDBRANCH   2  16
TORSDOF 6
ENDMDL
MODEL 8
REMARK VINA RESULT:      -6.9      2.723      6.900
REMARK  6 active torsions:
REMARK  status: ('A' for Active; 'I' for Inactive)
REMARK    1  A    between atoms: C2_2  and  C3_3 
REMARK    2  A    between atoms: C3_3  and  C4_4 
REMARK    3  A    between atoms: C5_5  and  N1_6 
REMARK    4  A    between atoms: C8_9  and  N2_10 
REMARK    5  A    between atoms: C13_15  and  N3_16 
REMARK    6  A    between atoms: N3_16  and  C14_17 
ROOT
HETATM    1  C3  UNL     1      21.097   4.404  51.432  1.00  0.00    -0.041 C 
HETATM    2  C13 UNL     1      20.034   3.654  51.699  1.00  0.00     0.113 C 
ENDROOT
BRANCH   1   3
HETATM    3  C2  UNL     1      21.244   5.600  50.565  1.00  0.00     0.035 C 
HETATM    4  C1  UNL     1      21.147   5.257  49.110  1.00  0.00     0.010 C 
ENDBRANCH   1   3
BRANCH   1   5
HETATM    5  C4  UNL     1      22.324   3.992  52.096  1.00  0.00     0.025 C 
HETATM    6  C5  UNL     1      23.335   3.357  51.563  1.00  0.00     0.086 C 
BRANCH   6   7
HETATM    7  N1  UNL     1      24.578   2.896  52.078  1.00  0.00    -0.390 N 
HETATM    8  C6  UNL     1      25.557   2.839  51.044  1.00  0.00     0.124 C 
HETATM    9  C7  UNL     1      26.778   2.062  51.523  1.00  0.00     0.055 C 
HETATM   10  C8  UNL     1      26.235   0.775  52.128  1.00  0.00     0.225 C 
HETATM   11  C11 UNL     1      25.649   1.172  53.463  1.00  0.00     0.055 C 
HETATM   12  C12 UNL     1      24.957   2.504  53.413  1.00  0.00     0.124 C 
BRANCH  10  13
HETATM   13  N2  UNL     1      27.239  -0.231  52.317  1.00  0.00     0.084 N 
HETATM   14  C9  UNL     1      28.139   0.219  53.364  1.00  0.00     0.309 C 
HETATM   15  C10 UNL     1      26.684  -1.499  52.738  1.00  0.00     0.309 C 
ENDBRANCH  10  13
ENDBRANCH   6   7
ENDBRANCH   1   5
BRANCH   2  16
HETATM   16  N3  UNL     1      19.960   2.526  52.534  1.00  0.00    -0.196 N 
HETATM   17  H24 UNL     1      20.102   2.332  53.544  1.00  0.00     0.183 HD
BRANCH  16  18
HETATM   18  C14 UNL     1      19.600   1.335  51.851  1.00  0.00     0.744 C 
HETATM   19  N4  UNL     1      20.321   0.321  51.518  1.00  0.00     0.044 NA
HETATM   20  N5  UNL     1      21.673   0.349  51.866  1.00  0.00    -0.132 NA
HETATM   21  C15 UNL     1      21.903  -0.169  53.037  1.00  0.00     0.110 C 
HETATM   22  C16 UNL     1      20.893  -0.055  53.893  1.00  0.00     0.036 C 
HETATM   23  C17 UNL     1      19.634  -0.670  53.522  1.00  0.00     0.004 C 
HETATM   24  C18 UNL     1      18.514  -0.859  52.911  1.00  0.00     0.020 C 
HETATM   25  C19 UNL     1      17.803  -0.159  51.877  1.00  0.00     0.136 C 
HETATM   26  N6  UNL     1      18.323   0.909  51.355  1.00  0.00    -0.074 NA
ENDBRANCH  16  18
ENDBRANCH   2  16
TORSDOF 6
ENDMDL
MODEL 9
REMARK VINA RESULT:      -6.7      2.595      5.743
REMARK  6 active torsions:
REMARK  status: ('A' for Active; 'I' for Inactive)
REMARK    1  A    between atoms: C2_2  and  C3_3 
REMARK    2  A    between atoms: C3_3  and  C4_4 
REMARK    3  A    between atoms: C5_5  and  N1_6 
REMARK    4  A    between atoms: C8_9  and  N2_10 
REMARK    5  A    between atoms: C13_15  and  N3_16 
REMARK    6  A    between atoms: N3_16  and  C14_17 
ROOT
HETATM    1  C3  UNL     1      24.313   0.001  53.326  1.00  0.00    -0.041 C 
HETATM    2  C13 UNL     1      23.157  -0.652  53.268  1.00  0.00     0.113 C 
ENDROOT
BRANCH   1   3
HETATM    3  C2  UNL     1      25.467  -0.156  54.247  1.00  0.00     0.035 C 
HETATM    4  C1  UNL     1      26.701  -0.614  53.530  1.00  0.00     0.010 C 
ENDBRANCH   1   3
BRANCH   1   5
HETATM    5  C4  UNL     1      24.483   1.043  52.326  1.00  0.00     0.025 C 
HETATM    6  C5  UNL     1      24.483   2.336  52.525  1.00  0.00     0.086 C 
BRANCH   6   7
HETATM    7  N1  UNL     1      24.634   3.455  51.660  1.00  0.00    -0.390 N 
HETATM    8  C6  UNL     1      23.665   4.455  51.964  1.00  0.00     0.124 C 
HETATM    9  C7  UNL     1      23.627   5.500  50.854  1.00  0.00     0.055 C 
HETATM   10  C8  UNL     1      23.529   4.714  49.554  1.00  0.00     0.225 C 
HETATM   11  C11 UNL     1      24.910   4.147  49.319  1.00  0.00     0.055 C 
HETATM   12  C12 UNL     1      25.571   3.699  50.592  1.00  0.00     0.124 C 
BRANCH  10  13
HETATM   13  N2  UNL     1      23.137   5.519  48.433  1.00  0.00     0.084 N 
HETATM   14  C9  UNL     1      21.855   6.127  48.739  1.00  0.00     0.309 C 
HETATM   15  C10 UNL     1      24.071   6.589  48.161  1.00  0.00     0.309 C 
ENDBRANCH  10  13
ENDBRANCH   6   7
ENDBRANCH   1   5
BRANCH   2  16
HETATM   16  N3  UNL     1      22.098  -0.453  52.366  1.00  0.00    -0.196 N 
HETATM   17  H24 UNL     1      21.966  -0.526  51.338  1.00  0.00     0.183 HD
BRANCH  16  18
HETATM   18  C14 UNL     1      20.888  -0.054  52.990  1.00  0.00     0.744 C 
HETATM   19  N4  UNL     1      20.323   1.104  53.037  1.00  0.00     0.044 NA
HETATM   20  N5  UNL     1      20.961   2.160  52.383  1.00  0.00    -0.132 NA
HETATM   21  C15 UNL     1      20.584   2.287  51.145  1.00  0.00     0.110 C 
HETATM   22  C16 UNL     1      20.207   1.151  50.568  1.00  0.00     0.036 C 
HETATM   23  C17 UNL     1      19.090   0.442  51.162  1.00  0.00     0.004 C 
HETATM   24  C18 UNL     1      18.420  -0.275  51.999  1.00  0.00     0.020 C 
HETATM   25  C19 UNL     1      18.736  -0.931  53.238  1.00  0.00     0.136 C 
HETATM   26  N6  UNL     1      19.933  -0.829  53.728  1.00  0.00    -0.074 NA
ENDBRANCH  16  18
ENDBRANCH   2  16
TORSDOF 6
ENDMDL
