MODEL 1
REMARK VINA RESULT:      -8.7      0.000      0.000
REMARK  6 active torsions:
REMARK  status: ('A' for Active; 'I' for Inactive)
REMARK    1  A    between atoms: O1_2  and  C2_3 
REMARK    2  A    between atoms: C6_7  and  C7_8 
REMARK    3  A    between atoms: C8_9  and  C9_10 
REMARK       I    between atoms: C9_10  and  N1_12 
REMARK    4  A    between atoms: N1_12  and  C10_13 
REMARK    5  A    between atoms: C10_13  and  C12_15 
REMARK    6  A    between atoms: C16_21  and  C17_22 
ROOT
HETATM    1  C10 UNL     1      22.933  -0.377  54.168  1.00  0.00     0.104 C 
HETATM    2  C11 UNL     1      22.783  -1.606  55.043  1.00  0.00     0.036 C 
ENDROOT
BRANCH   1   3
HETATM    3  N1  UNL     1      21.816  -0.269  53.255  1.00  0.00    -0.350 N 
HETATM    4  C9  UNL     1      20.478   0.249  53.308  1.00  0.00     0.241 C 
HETATM    5  O2  UNL     1      20.570   0.619  54.529  1.00  0.00    -0.269 OA
HETATM    6  H9  UNL     1      22.243  -0.728  52.381  1.00  0.00     0.163 HD
BRANCH   4   7
HETATM    7  C8  UNL     1      19.691   0.142  52.096  1.00  0.00     0.075 C 
HETATM    8  C7  UNL     1      19.798   0.593  50.876  1.00  0.00     0.017 C 
BRANCH   8   9
HETATM    9  C6  UNL     1      20.728   1.407  50.141  1.00  0.00    -0.033 A 
HETATM   10  C5  UNL     1      21.274   1.007  48.944  1.00  0.00     0.011 A 
HETATM   11  C4  UNL     1      22.151   1.725  48.173  1.00  0.00     0.004 A 
HETATM   12  C3  UNL     1      22.539   2.969  48.622  1.00  0.00     0.037 A 
HETATM   13  C2  UNL     1      22.035   3.446  49.820  1.00  0.00     0.069 A 
HETATM   14  C22 UNL     1      21.165   2.648  50.511  1.00  0.00     0.048 A 
BRANCH  13  15
HETATM   15  O1  UNL     1      22.489   4.690  50.162  1.00  0.00    -0.356 OA
HETATM   16  C1  UNL     1      21.916   5.496  51.159  1.00  0.00     0.210 C 
ENDBRANCH  13  15
ENDBRANCH   8   9
ENDBRANCH   4   7
ENDBRANCH   1   3
BRANCH   1  17
HETATM   17  C12 UNL     1      24.256  -0.220  53.554  1.00  0.00     0.009 C 
HETATM   18  C13 UNL     1      24.957   0.662  52.903  1.00  0.00    -0.011 A 
HETATM   19  C14 UNL     1      24.074   1.818  52.799  1.00  0.00     0.191 A 
HETATM   20  C16 UNL     1      26.300   0.382  52.435  1.00  0.00     0.073 A 
HETATM   21  N2  UNL     1      24.788   2.806  51.979  1.00  0.00    -0.278 NA
HETATM   22  C15 UNL     1      25.974   2.544  51.552  1.00  0.00     0.227 A 
HETATM   23  N3  UNL     1      26.737   1.387  51.755  1.00  0.00    -0.241 NA
BRANCH  20  24
HETATM   24  C17 UNL     1      27.104  -0.811  52.640  1.00  0.00    -0.011 A 
HETATM   25  C18 UNL     1      27.107  -2.122  52.548  1.00  0.00     0.011 A 
HETATM   26  C19 UNL     1      28.298  -2.852  52.920  1.00  0.00    -0.002 A 
HETATM   27  C20 UNL     1      29.101  -1.875  53.277  1.00  0.00    -0.006 A 
HETATM   28  C21 UNL     1      28.500  -0.549  53.155  1.00  0.00     0.115 A 
HETATM   29 BR1  UNL     1      28.406   0.374  54.854  1.00  0.00    -0.082 Br
ENDBRANCH  20  24
ENDBRANCH   1  17
TORSDOF 6
ENDMDL
MODEL 2
REMARK VINA RESULT:      -8.3      2.530      4.265
REMARK  6 active torsions:
REMARK  status: ('A' for Active; 'I' for Inactive)
REMARK    1  A    between atoms: O1_2  and  C2_3 
REMARK    2  A    between atoms: C6_7  and  C7_8 
REMARK    3  A    between atoms: C8_9  and  C9_10 
REMARK       I    between atoms: C9_10  and  N1_12 
REMARK    4  A    between atoms: N1_12  and  C10_13 
REMARK    5  A    between atoms: C10_13  and  C12_15 
REMARK    6  A    between atoms: C16_21  and  C17_22 
ROOT
HETATM    1  C10 UNL     1      21.910   1.237  52.075  1.00  0.00     0.104 C 
HETATM    2  C11 UNL     1      21.504   0.288  50.964  1.00  0.00     0.036 C 
ENDROOT
BRANCH   1   3
HETATM    3  N1  UNL     1      21.978   2.593  51.579  1.00  0.00    -0.350 N 
HETATM    4  C9  UNL     1      21.336   3.843  51.879  1.00  0.00     0.241 C 
HETATM    5  O2  UNL     1      20.605   3.351  52.806  1.00  0.00    -0.269 OA
HETATM    6  H9  UNL     1      22.721   2.475  50.811  1.00  0.00     0.163 HD
BRANCH   4   7
HETATM    7  C8  UNL     1      21.747   4.989  51.092  1.00  0.00     0.075 C 
HETATM    8  C7  UNL     1      22.821   5.327  50.434  1.00  0.00     0.017 C 
BRANCH   8   9
HETATM    9  C6  UNL     1      24.109   4.745  50.166  1.00  0.00    -0.033 A 
HETATM   10  C5  UNL     1      24.459   3.491  50.607  1.00  0.00     0.011 A 
HETATM   11  C4  UNL     1      25.654   2.857  50.384  1.00  0.00     0.004 A 
HETATM   12  C3  UNL     1      26.612   3.522  49.649  1.00  0.00     0.037 A 
HETATM   13  C2  UNL     1      26.339   4.792  49.168  1.00  0.00     0.069 A 
HETATM   14  C22 UNL     1      25.113   5.332  49.449  1.00  0.00     0.048 A 
BRANCH  13  15
HETATM   15  O1  UNL     1      27.362   5.351  48.454  1.00  0.00    -0.356 OA
HETATM   16  C1  UNL     1      27.609   6.731  48.372  1.00  0.00     0.210 C 
ENDBRANCH  13  15
ENDBRANCH   8   9
ENDBRANCH   4   7
ENDBRANCH   1   3
BRANCH   1  17
HETATM   17  C12 UNL     1      23.071   0.802  52.859  1.00  0.00     0.009 C 
HETATM   18  C13 UNL     1      23.383  -0.045  53.796  1.00  0.00    -0.011 A 
HETATM   19  C14 UNL     1      22.130  -0.728  54.096  1.00  0.00     0.191 A 
HETATM   20  C16 UNL     1      24.728  -0.142  54.327  1.00  0.00     0.073 A 
HETATM   21  N2  UNL     1      22.412  -1.625  55.225  1.00  0.00    -0.278 NA
HETATM   22  C15 UNL     1      23.605  -1.693  55.703  1.00  0.00     0.227 A 
HETATM   23  N3  UNL     1      24.749  -0.995  55.294  1.00  0.00    -0.241 NA
BRANCH  20  24
HETATM   24  C17 UNL     1      25.924   0.572  53.912  1.00  0.00    -0.011 A 
HETATM   25  C18 UNL     1      26.407   1.759  53.616  1.00  0.00     0.011 A 
HETATM   26  C19 UNL     1      27.797   1.879  53.238  1.00  0.00    -0.002 A 
HETATM   27  C20 UNL     1      28.196   0.629  53.313  1.00  0.00    -0.006 A 
HETATM   28  C21 UNL     1      27.143  -0.298  53.721  1.00  0.00     0.115 A 
HETATM   29 BR1  UNL     1      26.782  -1.639  52.372  1.00  0.00    -0.082 Br
ENDBRANCH  20  24
ENDBRANCH   1  17
TORSDOF 6
ENDMDL
MODEL 3
REMARK VINA RESULT:      -8.2      3.682      6.686
REMARK  6 active torsions:
REMARK  status: ('A' for Active; 'I' for Inactive)
REMARK    1  A    between atoms: O1_2  and  C2_3 
REMARK    2  A    between atoms: C6_7  and  C7_8 
REMARK    3  A    between atoms: C8_9  and  C9_10 
REMARK       I    between atoms: C9_10  and  N1_12 
REMARK    4  A    between atoms: N1_12  and  C10_13 
REMARK    5  A    between atoms: C10_13  and  C12_15 
REMARK    6  A    between atoms: C16_21  and  C17_22 
ROOT
HETATM    1  C10 UNL     1      22.974   4.480  52.276  1.00  0.00     0.104 C 
HETATM    2  C11 UNL     1      23.811   4.516  53.540  1.00  0.00     0.036 C 
ENDROOT
BRANCH   1   3
HETATM    3  N1  UNL     1      22.501   3.137  52.024  1.00  0.00    -0.350 N 
HETATM    4  C9  UNL     1      21.265   2.424  52.183  1.00  0.00     0.241 C 
HETATM    5  O2  UNL     1      20.642   3.428  52.673  1.00  0.00    -0.269 OA
HETATM    6  H9  UNL     1      23.399   2.694  51.630  1.00  0.00     0.163 HD
BRANCH   4   7
HETATM    7  C8  UNL     1      21.258   1.035  51.769  1.00  0.00     0.075 C 
HETATM    8  C7  UNL     1      21.808  -0.066  52.203  1.00  0.00     0.017 C 
BRANCH   8   9
HETATM    9  C6  UNL     1      22.678  -0.444  53.284  1.00  0.00    -0.033 A 
HETATM   10  C5  UNL     1      22.211  -1.017  54.443  1.00  0.00     0.011 A 
HETATM   11  C4  UNL     1      22.970  -1.421  55.511  1.00  0.00     0.004 A 
HETATM   12  C3  UNL     1      24.335  -1.243  55.439  1.00  0.00     0.037 A 
HETATM   13  C2  UNL     1      24.886  -0.672  54.305  1.00  0.00     0.069 A 
HETATM   14  C22 UNL     1      24.038  -0.305  53.296  1.00  0.00     0.048 A 
BRANCH  13  15
HETATM   15  O1  UNL     1      26.248  -0.549  54.346  1.00  0.00    -0.356 OA
HETATM   16  C1  UNL     1      26.934   0.676  54.299  1.00  0.00     0.210 C 
ENDBRANCH  13  15
ENDBRANCH   8   9
ENDBRANCH   4   7
ENDBRANCH   1   3
BRANCH   1  17
HETATM   17  C12 UNL     1      23.578   5.155  51.122  1.00  0.00     0.009 C 
HETATM   18  C13 UNL     1      23.305   6.081  50.251  1.00  0.00    -0.011 A 
HETATM   19  C14 UNL     1      21.963   6.527  50.609  1.00  0.00     0.191 A 
HETATM   20  C16 UNL     1      24.235   6.447  49.202  1.00  0.00     0.073 A 
HETATM   21  N2  UNL     1      21.569   7.504  49.585  1.00  0.00    -0.278 NA
HETATM   22  C15 UNL     1      22.394   7.813  48.646  1.00  0.00     0.227 A 
HETATM   23  N3  UNL     1      23.690   7.326  48.431  1.00  0.00    -0.241 NA
BRANCH  20  24
HETATM   24  C17 UNL     1      25.582   5.955  48.967  1.00  0.00    -0.011 A 
HETATM   25  C18 UNL     1      26.341   4.881  48.982  1.00  0.00     0.011 A 
HETATM   26  C19 UNL     1      27.735   4.999  48.619  1.00  0.00    -0.002 A 
HETATM   27  C20 UNL     1      27.828   6.284  48.358  1.00  0.00    -0.006 A 
HETATM   28  C21 UNL     1      26.571   7.008  48.528  1.00  0.00     0.115 A 
HETATM   29 BR1  UNL     1      26.696   8.389  49.879  1.00  0.00    -0.082 Br
ENDBRANCH  20  24
ENDBRANCH   1  17
TORSDOF 6
ENDMDL
MODEL 4
REMARK VINA RESULT:      -8.0      2.996      6.982
REMARK  6 active torsions:
REMARK  status: ('A' for Active; 'I' for Inactive)
REMARK    1  A    between atoms: O1_2  and  C2_3 
REMARK    2  A    between atoms: C6_7  and  C7_8 
REMARK    3  A    between atoms: C8_9  and  C9_10 
REMARK       I    between atoms: C9_10  and  N1_12 
REMARK    4  A    between atoms: N1_12  and  C10_13 
REMARK    5  A    between atoms: C10_13  and  C12_15 
REMARK    6  A    between atoms: C16_21  and  C17_22 
ROOT
HETATM    1  C10 UNL     1      25.603   3.189  50.488  1.00  0.00     0.104 C 
HETATM    2  C11 UNL     1      26.735   3.282  49.483  1.00  0.00     0.036 C 
ENDROOT
BRANCH   1   3
HETATM    3  N1  UNL     1      25.659   1.929  51.194  1.00  0.00    -0.350 N 
HETATM    4  C9  UNL     1      26.244   1.447  52.414  1.00  0.00     0.241 C 
HETATM    5  O2  UNL     1      26.763   2.576  52.720  1.00  0.00    -0.269 OA
HETATM    6  H9  UNL     1      25.086   1.313  50.524  1.00  0.00     0.163 HD
BRANCH   4   7
HETATM    7  C8  UNL     1      26.021   0.051  52.735  1.00  0.00     0.075 C 
HETATM    8  C7  UNL     1      24.996  -0.663  53.110  1.00  0.00     0.017 C 
BRANCH   8   9
HETATM    9  C6  UNL     1      23.605  -0.428  53.390  1.00  0.00    -0.033 A 
HETATM   10  C5  UNL     1      22.986  -0.915  54.517  1.00  0.00     0.011 A 
HETATM   11  C4  UNL     1      21.674  -0.725  54.868  1.00  0.00     0.004 A 
HETATM   12  C3  UNL     1      20.880   0.023  54.024  1.00  0.00     0.037 A 
HETATM   13  C2  UNL     1      21.427   0.550  52.867  1.00  0.00     0.069 A 
HETATM   14  C22 UNL     1      22.748   0.300  52.612  1.00  0.00     0.048 A 
BRANCH  13  15
HETATM   15  O1  UNL     1      20.546   1.273  52.111  1.00  0.00    -0.356 OA
HETATM   16  C1  UNL     1      20.335   1.077  50.736  1.00  0.00     0.210 C 
ENDBRANCH  13  15
ENDBRANCH   8   9
ENDBRANCH   4   7
ENDBRANCH   1   3
BRANCH   1  17
HETATM   17  C12 UNL     1      24.283   3.548  49.957  1.00  0.00     0.009 C 
HETATM   18  C13 UNL     1      23.129   3.989  50.364  1.00  0.00    -0.011 A 
HETATM   19  C14 UNL     1      23.291   4.145  51.805  1.00  0.00     0.191 A 
HETATM   20  C16 UNL     1      22.022   4.199  49.453  1.00  0.00     0.073 A 
HETATM   21  N2  UNL     1      21.976   4.544  52.324  1.00  0.00    -0.278 NA
HETATM   22  C15 UNL     1      20.993   4.712  51.511  1.00  0.00     0.227 A 
HETATM   23  N3  UNL     1      20.978   4.559  50.119  1.00  0.00    -0.241 NA
BRANCH  20  24
HETATM   24  C17 UNL     1      21.992   4.048  48.007  1.00  0.00    -0.011 A 
HETATM   25  C18 UNL     1      22.061   3.175  47.026  1.00  0.00     0.011 A 
HETATM   26  C19 UNL     1      21.959   3.639  45.662  1.00  0.00    -0.002 A 
HETATM   27  C20 UNL     1      21.813   4.934  45.838  1.00  0.00    -0.006 A 
HETATM   28  C21 UNL     1      21.812   5.337  47.242  1.00  0.00     0.115 A 
HETATM   29 BR1  UNL     1      23.261   6.551  47.658  1.00  0.00    -0.082 Br
ENDBRANCH  20  24
ENDBRANCH   1  17
TORSDOF 6
ENDMDL
MODEL 5
REMARK VINA RESULT:      -8.0      3.101      5.165
REMARK  6 active torsions:
REMARK  status: ('A' for Active; 'I' for Inactive)
REMARK    1  A    between atoms: O1_2  and  C2_3 
REMARK    2  A    between atoms: C6_7  and  C7_8 
REMARK    3  A    between atoms: C8_9  and  C9_10 
REMARK       I    between atoms: C9_10  and  N1_12 
REMARK    4  A    between atoms: N1_12  and  C10_13 
REMARK    5  A    between atoms: C10_13  and  C12_15 
REMARK    6  A    between atoms: C16_21  and  C17_22 
ROOT
HETATM    1  C10 UNL     1      22.472   2.428  50.854  1.00  0.00     0.104 C 
HETATM    2  C11 UNL     1      22.274   1.707  49.534  1.00  0.00     0.036 C 
ENDROOT
BRANCH   1   3
HETATM    3  N1  UNL     1      22.774   3.823  50.625  1.00  0.00    -0.350 N 
HETATM    4  C9  UNL     1      22.809   5.022  51.415  1.00  0.00     0.241 C 
HETATM    5  O2  UNL     1      22.448   4.433  52.492  1.00  0.00    -0.269 OA
HETATM    6  H9  UNL     1      23.006   3.795  49.575  1.00  0.00     0.163 HD
BRANCH   4   7
HETATM    7  C8  UNL     1      23.192   6.241  50.731  1.00  0.00     0.075 C 
HETATM    8  C7  UNL     1      24.212   6.619  50.010  1.00  0.00     0.017 C 
BRANCH   8   9
HETATM    9  C6  UNL     1      25.440   6.032  49.547  1.00  0.00    -0.033 A 
HETATM   10  C5  UNL     1      25.740   4.704  49.735  1.00  0.00     0.011 A 
HETATM   11  C4  UNL     1      26.875   4.061  49.313  1.00  0.00     0.004 A 
HETATM   12  C3  UNL     1      27.821   4.798  48.633  1.00  0.00     0.037 A 
HETATM   13  C2  UNL     1      27.596   6.145  48.403  1.00  0.00     0.069 A 
HETATM   14  C22 UNL     1      26.428   6.686  48.867  1.00  0.00     0.048 A 
BRANCH  13  15
HETATM   15  O1  UNL     1      28.601   6.771  47.719  1.00  0.00    -0.356 OA
HETATM   16  C1  UNL     1      28.404   7.816  46.802  1.00  0.00     0.210 C 
ENDBRANCH  13  15
ENDBRANCH   8   9
ENDBRANCH   4   7
ENDBRANCH   1   3
BRANCH   1  17
HETATM   17  C12 UNL     1      23.364   1.744  51.797  1.00  0.00     0.009 C 
HETATM   18  C13 UNL     1      23.339   0.796  52.687  1.00  0.00    -0.011 A 
HETATM   19  C14 UNL     1      21.957   0.328  52.676  1.00  0.00     0.191 A 
HETATM   20  C16 UNL     1      24.513   0.428  53.452  1.00  0.00     0.073 A 
HETATM   21  N2  UNL     1      21.856  -0.677  53.743  1.00  0.00    -0.278 NA
HETATM   22  C15 UNL     1      22.900  -0.986  54.430  1.00  0.00     0.227 A 
HETATM   23  N3  UNL     1      24.199  -0.477  54.316  1.00  0.00    -0.241 NA
BRANCH  20  24
HETATM   24  C17 UNL     1      25.868   0.945  53.344  1.00  0.00    -0.011 A 
HETATM   25  C18 UNL     1      26.581   2.017  53.078  1.00  0.00     0.011 A 
HETATM   26  C19 UNL     1      28.022   1.936  53.131  1.00  0.00    -0.002 A 
HETATM   27  C20 UNL     1      28.200   0.677  53.464  1.00  0.00    -0.006 A 
HETATM   28  C21 UNL     1      26.952  -0.065  53.633  1.00  0.00     0.115 A 
HETATM   29 BR1  UNL     1      26.807  -1.549  52.398  1.00  0.00    -0.082 Br
ENDBRANCH  20  24
ENDBRANCH   1  17
TORSDOF 6
ENDMDL
MODEL 6
REMARK VINA RESULT:      -7.9      3.386      6.607
REMARK  6 active torsions:
REMARK  status: ('A' for Active; 'I' for Inactive)
REMARK    1  A    between atoms: O1_2  and  C2_3 
REMARK    2  A    between atoms: C6_7  and  C7_8 
REMARK    3  A    between atoms: C8_9  and  C9_10 
REMARK       I    between atoms: C9_10  and  N1_12 
REMARK    4  A    between atoms: N1_12  and  C10_13 
REMARK    5  A    between atoms: C10_13  and  C12_15 
REMARK    6  A    between atoms: C16_21  and  C17_22 
ROOT
HETATM    1  C10 UNL     1      20.483   2.422  51.240  1.00  0.00     0.104 C 
HETATM    2  C11 UNL     1      19.672   3.477  51.966  1.00  0.00     0.036 C 
ENDROOT
BRANCH   1   3
HETATM    3  N1  UNL     1      21.082   1.508  52.186  1.00  0.00    -0.350 N 
HETATM    4  C9  UNL     1      21.526   0.142  52.173  1.00  0.00     0.241 C 
HETATM    5  O2  UNL     1      21.194  -0.051  50.953  1.00  0.00    -0.269 OA
HETATM    6  H9  UNL     1      21.142   2.145  53.050  1.00  0.00     0.163 HD
BRANCH   4   7
HETATM    7  C8  UNL     1      22.092  -0.369  53.406  1.00  0.00     0.075 C 
HETATM    8  C7  UNL     1      23.295  -0.483  53.898  1.00  0.00     0.017 C 
BRANCH   8   9
HETATM    9  C6  UNL     1      24.632  -0.167  53.473  1.00  0.00    -0.033 A 
HETATM   10  C5  UNL     1      24.892   0.684  52.425  1.00  0.00     0.011 A 
HETATM   11  C4  UNL     1      26.131   1.051  51.967  1.00  0.00     0.004 A 
HETATM   12  C3  UNL     1      27.237   0.527  52.602  1.00  0.00     0.037 A 
HETATM   13  C2  UNL     1      27.061  -0.339  53.667  1.00  0.00     0.069 A 
HETATM   14  C22 UNL     1      25.781  -0.639  54.044  1.00  0.00     0.048 A 
BRANCH  13  15
HETATM   15  O1  UNL     1      28.229  -0.792  54.217  1.00  0.00    -0.356 OA
HETATM   16  C1  UNL     1      29.455  -0.854  53.534  1.00  0.00     0.210 C 
ENDBRANCH  13  15
ENDBRANCH   8   9
ENDBRANCH   4   7
ENDBRANCH   1   3
BRANCH   1  17
HETATM   17  C12 UNL     1      21.396   2.947  50.218  1.00  0.00     0.009 C 
HETATM   18  C13 UNL     1      21.401   3.284  48.962  1.00  0.00    -0.011 A 
HETATM   19  C14 UNL     1      20.037   3.026  48.514  1.00  0.00     0.191 A 
HETATM   20  C16 UNL     1      22.597   3.769  48.301  1.00  0.00     0.073 A 
HETATM   21  N2  UNL     1      20.022   3.297  47.070  1.00  0.00    -0.278 NA
HETATM   22  C15 UNL     1      21.093   3.710  46.486  1.00  0.00     0.227 A 
HETATM   23  N3  UNL     1      22.352   3.954  47.049  1.00  0.00    -0.241 NA
BRANCH  20  24
HETATM   24  C17 UNL     1      23.909   4.029  48.871  1.00  0.00    -0.011 A 
HETATM   25  C18 UNL     1      24.941   3.473  49.465  1.00  0.00     0.011 A 
HETATM   26  C19 UNL     1      26.069   4.296  49.836  1.00  0.00    -0.002 A 
HETATM   27  C20 UNL     1      25.675   5.479  49.420  1.00  0.00    -0.006 A 
HETATM   28  C21 UNL     1      24.353   5.471  48.797  1.00  0.00     0.115 A 
HETATM   29 BR1  UNL     1      23.089   6.591  49.742  1.00  0.00    -0.082 Br
ENDBRANCH  20  24
ENDBRANCH   1  17
TORSDOF 6
ENDMDL
MODEL 7
REMARK VINA RESULT:      -7.9      2.355      2.966
REMARK  6 active torsions:
REMARK  status: ('A' for Active; 'I' for Inactive)
REMARK    1  A    between atoms: O1_2  and  C2_3 
REMARK    2  A    between atoms: C6_7  and  C7_8 
REMARK    3  A    between atoms: C8_9  and  C9_10 
REMARK       I    between atoms: C9_10  and  N1_12 
REMARK    4  A    between atoms: N1_12  and  C10_13 
REMARK    5  A    between atoms: C10_13  and  C12_15 
REMARK    6  A    between atoms: C16_21  and  C17_22 
ROOT
HETATM    1  C10 UNL     1      22.792  -0.448  54.239  1.00  0.00     0.104 C 
HETATM    2  C11 UNL     1      22.753  -1.579  55.248  1.00  0.00     0.036 C 
ENDROOT
BRANCH   1   3
HETATM    3  N1  UNL     1      21.650  -0.522  53.355  1.00  0.00    -0.350 N 
HETATM    4  C9  UNL     1      20.334   0.049  53.308  1.00  0.00     0.241 C 
HETATM    5  O2  UNL     1      20.479   0.705  54.397  1.00  0.00    -0.269 OA
HETATM    6  H9  UNL     1      22.032  -1.201  52.613  1.00  0.00     0.163 HD
BRANCH   4   7
HETATM    7  C8  UNL     1      19.503  -0.323  52.179  1.00  0.00     0.075 C 
HETATM    8  C7  UNL     1      18.676   0.305  51.389  1.00  0.00     0.017 C 
BRANCH   8   9
HETATM    9  C6  UNL     1      18.183   1.648  51.247  1.00  0.00    -0.033 A 
HETATM   10  C5  UNL     1      18.933   2.655  50.687  1.00  0.00     0.011 A 
HETATM   11  C4  UNL     1      18.536   3.954  50.499  1.00  0.00     0.004 A 
HETATM   12  C3  UNL     1      17.266   4.307  50.904  1.00  0.00     0.037 A 
HETATM   13  C2  UNL     1      16.446   3.351  51.479  1.00  0.00     0.069 A 
HETATM   14  C22 UNL     1      16.942   2.084  51.619  1.00  0.00     0.048 A 
BRANCH  13  15
HETATM   15  O1  UNL     1      15.212   3.817  51.838  1.00  0.00    -0.356 OA
HETATM   16  C1  UNL     1      14.824   4.093  53.160  1.00  0.00     0.210 C 
ENDBRANCH  13  15
ENDBRANCH   8   9
ENDBRANCH   4   7
ENDBRANCH   1   3
BRANCH   1  17
HETATM   17  C12 UNL     1      24.086  -0.268  53.571  1.00  0.00     0.009 C 
HETATM   18  C13 UNL     1      24.734   0.615  52.870  1.00  0.00    -0.011 A 
HETATM   19  C14 UNL     1      23.811   1.740  52.766  1.00  0.00     0.191 A 
HETATM   20  C16 UNL     1      26.067   0.364  52.360  1.00  0.00     0.073 A 
HETATM   21  N2  UNL     1      24.462   2.725  51.892  1.00  0.00    -0.278 NA
HETATM   22  C15 UNL     1      25.639   2.488  51.428  1.00  0.00     0.227 A 
HETATM   23  N3  UNL     1      26.446   1.362  51.635  1.00  0.00    -0.241 NA
BRANCH  20  24
HETATM   24  C17 UNL     1      26.917  -0.796  52.568  1.00  0.00    -0.011 A 
HETATM   25  C18 UNL     1      26.974  -2.106  52.468  1.00  0.00     0.011 A 
HETATM   26  C19 UNL     1      28.188  -2.789  52.851  1.00  0.00    -0.002 A 
HETATM   27  C20 UNL     1      28.947  -1.783  53.224  1.00  0.00    -0.006 A 
HETATM   28  C21 UNL     1      28.294  -0.481  53.101  1.00  0.00     0.115 A 
HETATM   29 BR1  UNL     1      28.141   0.426  54.805  1.00  0.00    -0.082 Br
ENDBRANCH  20  24
ENDBRANCH   1  17
TORSDOF 6
ENDMDL
MODEL 8
REMARK VINA RESULT:      -7.8      4.313      6.449
REMARK  6 active torsions:
REMARK  status: ('A' for Active; 'I' for Inactive)
REMARK    1  A    between atoms: O1_2  and  C2_3 
REMARK    2  A    between atoms: C6_7  and  C7_8 
REMARK    3  A    between atoms: C8_9  and  C9_10 
REMARK       I    between atoms: C9_10  and  N1_12 
REMARK    4  A    between atoms: N1_12  and  C10_13 
REMARK    5  A    between atoms: C10_13  and  C12_15 
REMARK    6  A    between atoms: C16_21  and  C17_22 
ROOT
HETATM    1  C10 UNL     1      25.607   3.682  50.121  1.00  0.00     0.104 C 
HETATM    2  C11 UNL     1      26.763   3.647  49.140  1.00  0.00     0.036 C 
ENDROOT
BRANCH   1   3
HETATM    3  N1  UNL     1      25.274   5.048  50.458  1.00  0.00    -0.350 N 
HETATM    4  C9  UNL     1      24.103   5.876  50.399  1.00  0.00     0.241 C 
HETATM    5  O2  UNL     1      23.365   4.958  49.901  1.00  0.00    -0.269 OA
HETATM    6  H9  UNL     1      26.228   5.389  50.820  1.00  0.00     0.163 HD
BRANCH   4   7
HETATM    7  C8  UNL     1      24.246   7.238  50.873  1.00  0.00     0.075 C 
HETATM    8  C7  UNL     1      25.041   8.237  50.603  1.00  0.00     0.017 C 
BRANCH   8   9
HETATM    9  C6  UNL     1      26.150   8.480  49.722  1.00  0.00    -0.033 A 
HETATM   10  C5  UNL     1      26.112   8.169  48.383  1.00  0.00     0.011 A 
HETATM   11  C4  UNL     1      27.115   8.382  47.472  1.00  0.00     0.004 A 
HETATM   12  C3  UNL     1      28.283   8.961  47.920  1.00  0.00     0.037 A 
HETATM   13  C2  UNL     1      28.403   9.304  49.255  1.00  0.00     0.069 A 
HETATM   14  C22 UNL     1      27.341   9.048  50.079  1.00  0.00     0.048 A 
BRANCH  13  15
HETATM   15  O1  UNL     1      29.604   9.871  49.581  1.00  0.00    -0.356 OA
HETATM   16  C1  UNL     1      30.851   9.261  49.369  1.00  0.00     0.210 C 
ENDBRANCH  13  15
ENDBRANCH   8   9
ENDBRANCH   4   7
ENDBRANCH   1   3
BRANCH   1  17
HETATM   17  C12 UNL     1      25.748   2.774  51.265  1.00  0.00     0.009 C 
HETATM   18  C13 UNL     1      25.051   1.918  51.953  1.00  0.00    -0.011 A 
HETATM   19  C14 UNL     1      23.737   1.932  51.318  1.00  0.00     0.191 A 
HETATM   20  C16 UNL     1      25.606   1.211  53.089  1.00  0.00     0.073 A 
HETATM   21  N2  UNL     1      22.882   1.053  52.128  1.00  0.00    -0.278 NA
HETATM   22  C15 UNL     1      23.378   0.441  53.146  1.00  0.00     0.227 A 
HETATM   23  N3  UNL     1      24.689   0.489  53.638  1.00  0.00    -0.241 NA
BRANCH  20  24
HETATM   24  C17 UNL     1      26.963   1.248  53.609  1.00  0.00    -0.011 A 
HETATM   25  C18 UNL     1      28.011   2.020  53.797  1.00  0.00     0.011 A 
HETATM   26  C19 UNL     1      29.190   1.467  54.422  1.00  0.00    -0.002 A 
HETATM   27  C20 UNL     1      28.814   0.225  54.634  1.00  0.00    -0.006 A 
HETATM   28  C21 UNL     1      27.454  -0.059  54.184  1.00  0.00     0.115 A 
HETATM   29 BR1  UNL     1      27.404  -1.431  52.819  1.00  0.00    -0.082 Br
ENDBRANCH  20  24
ENDBRANCH   1  17
TORSDOF 6
ENDMDL
MODEL 9
REMARK VINA RESULT:      -7.6      3.670      7.852
REMARK  6 active torsions:
REMARK  status: ('A' for Active; 'I' for Inactive)
REMARK    1  A    between atoms: O1_2  and  C2_3 
REMARK    2  A    between atoms: C6_7  and  C7_8 
REMARK    3  A    between atoms: C8_9  and  C9_10 
REMARK       I    between atoms: C9_10  and  N1_12 
REMARK    4  A    between atoms: N1_12  and  C10_13 
REMARK    5  A    between atoms: C10_13  and  C12_15 
REMARK    6  A    between atoms: C16_21  and  C17_22 
ROOT
HETATM    1  C10 UNL     1      25.285   4.011  50.523  1.00  0.00     0.104 C 
HETATM    2  C11 UNL     1      26.569   3.620  49.818  1.00  0.00     0.036 C 
ENDROOT
BRANCH   1   3
HETATM    3  N1  UNL     1      24.740   2.881  51.242  1.00  0.00    -0.350 N 
HETATM    4  C9  UNL     1      23.962   2.685  52.433  1.00  0.00     0.241 C 
HETATM    5  O2  UNL     1      23.893   3.932  52.705  1.00  0.00    -0.269 OA
HETATM    6  H9  UNL     1      25.084   2.077  50.615  1.00  0.00     0.163 HD
BRANCH   4   7
HETATM    7  C8  UNL     1      23.631   1.315  52.774  1.00  0.00     0.075 C 
HETATM    8  C7  UNL     1      24.308   0.254  53.117  1.00  0.00     0.017 C 
BRANCH   8   9
HETATM    9  C6  UNL     1      25.692  -0.082  53.322  1.00  0.00    -0.033 A 
HETATM   10  C5  UNL     1      26.286  -1.164  52.718  1.00  0.00     0.011 A 
HETATM   11  C4  UNL     1      27.597  -1.545  52.844  1.00  0.00     0.004 A 
HETATM   12  C3  UNL     1      28.417  -0.785  53.651  1.00  0.00     0.037 A 
HETATM   13  C2  UNL     1      27.895   0.323  54.297  1.00  0.00     0.069 A 
HETATM   14  C22 UNL     1      26.573   0.615  54.101  1.00  0.00     0.048 A 
BRANCH  13  15
HETATM   15  O1  UNL     1      28.802   0.999  55.066  1.00  0.00    -0.356 OA
HETATM   16  C1  UNL     1      29.630   2.030  54.592  1.00  0.00     0.210 C 
ENDBRANCH  13  15
ENDBRANCH   8   9
ENDBRANCH   4   7
ENDBRANCH   1   3
BRANCH   1  17
HETATM   17  C12 UNL     1      24.324   4.739  49.686  1.00  0.00     0.009 C 
HETATM   18  C13 UNL     1      23.772   5.913  49.588  1.00  0.00    -0.011 A 
HETATM   19  C14 UNL     1      24.344   6.672  50.695  1.00  0.00     0.191 A 
HETATM   20  C16 UNL     1      22.801   6.222  48.559  1.00  0.00     0.073 A 
HETATM   21  N2  UNL     1      23.670   7.978  50.687  1.00  0.00    -0.278 NA
HETATM   22  C15 UNL     1      22.795   8.239  49.780  1.00  0.00     0.227 A 
HETATM   23  N3  UNL     1      22.353   7.419  48.734  1.00  0.00    -0.241 NA
BRANCH  20  24
HETATM   24  C17 UNL     1      22.333   5.383  47.468  1.00  0.00    -0.011 A 
HETATM   25  C18 UNL     1      22.330   5.239  46.161  1.00  0.00     0.011 A 
HETATM   26  C19 UNL     1      21.644   4.109  45.578  1.00  0.00    -0.002 A 
HETATM   27  C20 UNL     1      21.181   3.504  46.650  1.00  0.00    -0.006 A 
HETATM   28  C21 UNL     1      21.531   4.178  47.899  1.00  0.00     0.115 A 
HETATM   29 BR1  UNL     1      19.968   4.754  48.885  1.00  0.00    -0.082 Br
ENDBRANCH  20  24
ENDBRANCH   1  17
TORSDOF 6
ENDMDL
