MODEL 1
REMARK VINA RESULT:      -9.2      0.000      0.000
REMARK  5 active torsions:
REMARK  status: ('A' for Active; 'I' for Inactive)
REMARK    1  A    between atoms: N3_10  and  C7_11 
REMARK    2  A    between atoms: N4_21  and  C16_22 
REMARK    3  A    between atoms: C16_22  and  C17_23 
REMARK    4  A    between atoms: C17_23  and  C18_24 
REMARK    5  A    between atoms: C18_24  and  N5_25 
ROOT
HETATM    1  N1  UNL     1      20.420   5.562  50.372  1.00  0.00    -0.286 NA
HETATM    2  C1  UNL     1      20.390   4.341  50.689  1.00  0.00     0.123 C 
HETATM    3  C2  UNL     1      19.209   3.776  51.400  1.00  0.00     0.253 C 
HETATM    4  O1  UNL     1      19.666   3.143  52.612  1.00  0.00    -0.342 OA
HETATM    5  C3  UNL     1      20.688   2.169  52.487  1.00  0.00     0.093 C 
HETATM    6  C4  UNL     1      20.727   1.182  53.362  1.00  0.00     0.027 C 
HETATM    7  C5  UNL     1      21.768   0.163  53.224  1.00  0.00     0.087 A 
HETATM    8  C6  UNL     1      22.062  -0.675  54.371  1.00  0.00     0.125 A 
HETATM    9  N2  UNL     1      23.280  -0.938  54.672  1.00  0.00    -0.188 NA
HETATM   10  N3  UNL     1      24.389  -0.462  53.965  1.00  0.00    -0.269 N 
HETATM   11  C12 UNL     1      24.161   0.389  52.821  1.00  0.00     0.121 A 
HETATM   12  C13 UNL     1      22.918   0.688  52.475  1.00  0.00    -0.026 A 
HETATM   13  C14 UNL     1      22.703   1.629  51.373  1.00  0.00     0.042 C 
HETATM   14  C15 UNL     1      21.587   2.400  51.352  1.00  0.00     0.070 C 
HETATM   15  N4  UNL     1      21.484   3.492  50.396  1.00  0.00    -0.331 N 
HETATM   16  H1  UNL     1      21.174   6.026  49.894  1.00  0.00     0.188 HD
ENDROOT
BRANCH  15  17
HETATM   17  C16 UNL     1      22.488   3.430  49.416  1.00  0.00     0.132 C 
BRANCH  17  18
HETATM   18  C17 UNL     1      23.348   4.643  49.225  1.00  0.00     0.050 C 
BRANCH  18  19
HETATM   19  C18 UNL     1      24.357   4.802  50.320  1.00  0.00     0.274 C 
BRANCH  19  20
HETATM   20  N5  UNL     1      25.558   5.474  49.848  1.00  0.00     0.088 N 
HETATM   21  C19 UNL     1      26.459   4.370  49.478  1.00  0.00     0.272 C 
HETATM   22  C20 UNL     1      27.596   4.795  48.616  1.00  0.00     0.030 C 
HETATM   23  C21 UNL     1      27.763   6.289  48.537  1.00  0.00     0.003 C 
HETATM   24  C22 UNL     1      26.460   6.941  48.132  1.00  0.00     0.030 C 
HETATM   25  C23 UNL     1      25.249   6.133  48.567  1.00  0.00     0.272 C 
ENDBRANCH  19  20
ENDBRANCH  18  19
ENDBRANCH  17  18
ENDBRANCH  15  17
BRANCH  10  26
HETATM   26  C7  UNL     1      25.758  -0.802  54.346  1.00  0.00     0.158 A 
HETATM   27  C8  UNL     1      26.460  -1.204  53.079  1.00  0.00     0.007 A 
HETATM   28  C9  UNL     1      27.468  -0.385  52.824  1.00  0.00     0.040 A 
HETATM   29  C10 UNL     1      27.520   0.613  53.881  1.00  0.00     0.114 A 
HETATM   30  F1  UNL     1      28.313   1.680  54.158  1.00  0.00    -0.206 F 
HETATM   31  C11 UNL     1      26.541   0.383  54.763  1.00  0.00     0.046 A 
ENDBRANCH  10  26
TORSDOF 5
ENDMDL
MODEL 2
REMARK VINA RESULT:      -9.2      2.364      5.529
REMARK  5 active torsions:
REMARK  status: ('A' for Active; 'I' for Inactive)
REMARK    1  A    between atoms: N3_10  and  C7_11 
REMARK    2  A    between atoms: N4_21  and  C16_22 
REMARK    3  A    between atoms: C16_22  and  C17_23 
REMARK    4  A    between atoms: C17_23  and  C18_24 
REMARK    5  A    between atoms: C18_24  and  N5_25 
ROOT
HETATM    1  N1  UNL     1      19.394   2.157  48.745  1.00  0.00    -0.286 NA
HETATM    2  C1  UNL     1      20.448   2.795  49.016  1.00  0.00     0.123 C 
HETATM    3  C2  UNL     1      21.244   3.429  47.929  1.00  0.00     0.253 C 
HETATM    4  O1  UNL     1      22.600   2.947  48.017  1.00  0.00    -0.342 OA
HETATM    5  C3  UNL     1      23.257   3.087  49.266  1.00  0.00     0.093 C 
HETATM    6  C4  UNL     1      24.567   3.241  49.273  1.00  0.00     0.027 C 
HETATM    7  C5  UNL     1      25.246   3.407  50.559  1.00  0.00     0.087 A 
HETATM    8  C6  UNL     1      26.678   3.180  50.611  1.00  0.00     0.125 A 
HETATM    9  N2  UNL     1      27.184   2.525  51.591  1.00  0.00    -0.188 NA
HETATM   10  N3  UNL     1      26.443   1.986  52.648  1.00  0.00    -0.269 N 
HETATM   11  C12 UNL     1      25.011   2.167  52.645  1.00  0.00     0.121 A 
HETATM   12  C13 UNL     1      24.445   2.835  51.651  1.00  0.00    -0.026 A 
HETATM   13  C14 UNL     1      22.984   2.928  51.609  1.00  0.00     0.042 C 
HETATM   14  C15 UNL     1      22.349   3.049  50.416  1.00  0.00     0.070 C 
HETATM   15  N4  UNL     1      20.903   2.905  50.352  1.00  0.00    -0.331 N 
HETATM   16  H1  UNL     1      18.798   1.697  49.413  1.00  0.00     0.188 HD
ENDROOT
BRANCH  15  17
HETATM   17  C16 UNL     1      20.315   2.916  51.627  1.00  0.00     0.132 C 
BRANCH  17  18
HETATM   18  C17 UNL     1      19.339   1.826  51.954  1.00  0.00     0.050 C 
BRANCH  18  19
HETATM   19  C18 UNL     1      19.948   0.463  51.830  1.00  0.00     0.274 C 
BRANCH  19  20
HETATM   20  N5  UNL     1      20.873   0.189  52.919  1.00  0.00     0.088 N 
HETATM   21  C19 UNL     1      20.218  -0.892  53.675  1.00  0.00     0.272 C 
HETATM   22  C20 UNL     1      21.136  -1.604  54.606  1.00  0.00     0.030 C 
HETATM   23  C21 UNL     1      22.453  -0.903  54.805  1.00  0.00     0.003 C 
HETATM   24  C22 UNL     1      23.100  -0.615  53.468  1.00  0.00     0.030 C 
HETATM   25  C23 UNL     1      22.079  -0.442  52.357  1.00  0.00     0.272 C 
ENDBRANCH  19  20
ENDBRANCH  18  19
ENDBRANCH  17  18
ENDBRANCH  15  17
BRANCH  10  26
HETATM   26  C7  UNL     1      27.073   1.257  53.746  1.00  0.00     0.158 A 
HETATM   27  C8  UNL     1      26.843  -0.202  53.469  1.00  0.00     0.007 A 
HETATM   28  C9  UNL     1      27.995  -0.833  53.304  1.00  0.00     0.040 A 
HETATM   29  C10 UNL     1      29.068   0.137  53.454  1.00  0.00     0.114 A 
HETATM   30  F1  UNL     1      30.425   0.087  53.397  1.00  0.00    -0.206 F 
HETATM   31  C11 UNL     1      28.550   1.343  53.709  1.00  0.00     0.046 A 
ENDBRANCH  10  26
TORSDOF 5
ENDMDL
MODEL 3
REMARK VINA RESULT:      -8.8      3.597      6.161
REMARK  5 active torsions:
REMARK  status: ('A' for Active; 'I' for Inactive)
REMARK    1  A    between atoms: N3_10  and  C7_11 
REMARK    2  A    between atoms: N4_21  and  C16_22 
REMARK    3  A    between atoms: C16_22  and  C17_23 
REMARK    4  A    between atoms: C17_23  and  C18_24 
REMARK    5  A    between atoms: C18_24  and  N5_25 
ROOT
HETATM    1  N1  UNL     1      27.835   8.784  47.868  1.00  0.00    -0.286 NA
HETATM    2  C1  UNL     1      27.165   7.717  47.797  1.00  0.00     0.123 C 
HETATM    3  C2  UNL     1      25.731   7.754  47.396  1.00  0.00     0.253 C 
HETATM    4  O1  UNL     1      24.955   7.101  48.420  1.00  0.00    -0.342 OA
HETATM    5  C3  UNL     1      25.339   5.786  48.784  1.00  0.00     0.093 C 
HETATM    6  C4  UNL     1      24.408   4.954  49.210  1.00  0.00     0.027 C 
HETATM    7  C5  UNL     1      24.798   3.589  49.567  1.00  0.00     0.087 A 
HETATM    8  C6  UNL     1      23.891   2.812  50.391  1.00  0.00     0.125 A 
HETATM    9  N2  UNL     1      24.355   2.100  51.351  1.00  0.00    -0.188 NA
HETATM   10  N3  UNL     1      25.710   2.012  51.687  1.00  0.00    -0.269 N 
HETATM   11  C12 UNL     1      26.660   2.775  50.912  1.00  0.00     0.121 A 
HETATM   12  C13 UNL     1      26.225   3.526  49.912  1.00  0.00    -0.026 A 
HETATM   13  C14 UNL     1      27.186   4.368  49.195  1.00  0.00     0.042 C 
HETATM   14  C15 UNL     1      26.772   5.524  48.619  1.00  0.00     0.070 C 
HETATM   15  N4  UNL     1      27.756   6.471  48.117  1.00  0.00    -0.331 N 
HETATM   16  H1  UNL     1      28.804   8.853  48.131  1.00  0.00     0.188 HD
ENDROOT
BRANCH  15  17
HETATM   17  C16 UNL     1      29.044   5.915  48.065  1.00  0.00     0.132 C 
BRANCH  17  18
HETATM   18  C17 UNL     1      30.170   6.712  48.650  1.00  0.00     0.050 C 
BRANCH  18  19
HETATM   19  C18 UNL     1      31.374   6.732  47.760  1.00  0.00     0.274 C 
BRANCH  19  20
HETATM   20  N5  UNL     1      31.676   5.407  47.240  1.00  0.00     0.088 N 
HETATM   21  C19 UNL     1      32.473   5.675  46.031  1.00  0.00     0.272 C 
HETATM   22  C20 UNL     1      33.220   4.486  45.536  1.00  0.00     0.030 C 
HETATM   23  C21 UNL     1      32.791   3.197  46.184  1.00  0.00     0.003 C 
HETATM   24  C22 UNL     1      32.845   3.324  47.690  1.00  0.00     0.030 C 
HETATM   25  C23 UNL     1      32.623   4.752  48.158  1.00  0.00     0.272 C 
ENDBRANCH  19  20
ENDBRANCH  18  19
ENDBRANCH  17  18
ENDBRANCH  15  17
BRANCH  10  26
HETATM   26  C7  UNL     1      26.185   1.176  52.786  1.00  0.00     0.158 A 
HETATM   27  C8  UNL     1      24.960   0.589  53.429  1.00  0.00     0.007 A 
HETATM   28  C9  UNL     1      24.970  -0.731  53.334  1.00  0.00     0.040 A 
HETATM   29  C10 UNL     1      26.181  -1.126  52.631  1.00  0.00     0.114 A 
HETATM   30  F1  UNL     1      26.729  -2.308  52.248  1.00  0.00    -0.206 F 
HETATM   31  C11 UNL     1      26.889  -0.036  52.312  1.00  0.00     0.046 A 
ENDBRANCH  10  26
TORSDOF 5
ENDMDL
MODEL 4
REMARK VINA RESULT:      -8.7      1.757      2.721
REMARK  5 active torsions:
REMARK  status: ('A' for Active; 'I' for Inactive)
REMARK    1  A    between atoms: N3_10  and  C7_11 
REMARK    2  A    between atoms: N4_21  and  C16_22 
REMARK    3  A    between atoms: C16_22  and  C17_23 
REMARK    4  A    between atoms: C17_23  and  C18_24 
REMARK    5  A    between atoms: C18_24  and  N5_25 
ROOT
HETATM    1  N1  UNL     1      23.690   7.736  51.197  1.00  0.00    -0.286 NA
HETATM    2  C1  UNL     1      23.330   6.545  50.989  1.00  0.00     0.123 C 
HETATM    3  C2  UNL     1      21.887   6.179  51.014  1.00  0.00     0.253 C 
HETATM    4  O1  UNL     1      21.705   5.107  51.962  1.00  0.00    -0.342 OA
HETATM    5  C3  UNL     1      22.511   3.953  51.795  1.00  0.00     0.093 C 
HETATM    6  C4  UNL     1      22.028   2.788  52.182  1.00  0.00     0.027 C 
HETATM    7  C5  UNL     1      22.849   1.591  51.992  1.00  0.00     0.087 A 
HETATM    8  C6  UNL     1      22.512   0.403  52.753  1.00  0.00     0.125 A 
HETATM    9  N2  UNL     1      23.444  -0.293  53.294  1.00  0.00    -0.188 NA
HETATM   10  N3  UNL     1      24.806   0.013  53.214  1.00  0.00    -0.269 N 
HETATM   11  C12 UNL     1      25.204   1.192  52.482  1.00  0.00     0.121 A 
HETATM   12  C13 UNL     1      24.274   1.942  51.909  1.00  0.00    -0.026 A 
HETATM   13  C14 UNL     1      24.681   3.186  51.251  1.00  0.00     0.042 C 
HETATM   14  C15 UNL     1      23.815   4.229  51.183  1.00  0.00     0.070 C 
HETATM   15  N4  UNL     1      24.290   5.532  50.747  1.00  0.00    -0.331 N 
HETATM   16  H1  UNL     1      24.639   8.071  51.201  1.00  0.00     0.188 HD
ENDROOT
BRANCH  15  17
HETATM   17  C16 UNL     1      25.576   5.465  50.189  1.00  0.00     0.132 C 
BRANCH  17  18
HETATM   18  C17 UNL     1      25.736   5.874  48.756  1.00  0.00     0.050 C 
BRANCH  18  19
HETATM   19  C18 UNL     1      26.182   7.297  48.618  1.00  0.00     0.274 C 
BRANCH  19  20
HETATM   20  N5  UNL     1      27.520   7.386  48.053  1.00  0.00     0.088 N 
HETATM   21  C19 UNL     1      28.190   8.398  48.886  1.00  0.00     0.272 C 
HETATM   22  C20 UNL     1      29.673   8.391  48.751  1.00  0.00     0.030 C 
HETATM   23  C21 UNL     1      30.166   7.565  47.594  1.00  0.00     0.003 C 
HETATM   24  C22 UNL     1      29.588   6.169  47.662  1.00  0.00     0.030 C 
HETATM   25  C23 UNL     1      28.237   6.136  48.357  1.00  0.00     0.272 C 
ENDBRANCH  19  20
ENDBRANCH  18  19
ENDBRANCH  17  18
ENDBRANCH  15  17
BRANCH  10  26
HETATM   26  C7  UNL     1      25.828  -0.821  53.841  1.00  0.00     0.158 A 
HETATM   27  C8  UNL     1      26.831  -1.136  52.767  1.00  0.00     0.007 A 
HETATM   28  C9  UNL     1      28.021  -0.647  53.082  1.00  0.00     0.040 A 
HETATM   29  C10 UNL     1      27.909   0.023  54.369  1.00  0.00     0.114 A 
HETATM   30  F1  UNL     1      28.767   0.692  55.183  1.00  0.00    -0.206 F 
HETATM   31  C11 UNL     1      26.652  -0.072  54.815  1.00  0.00     0.046 A 
ENDBRANCH  10  26
TORSDOF 5
ENDMDL
MODEL 5
REMARK VINA RESULT:      -8.7      4.003      6.833
REMARK  5 active torsions:
REMARK  status: ('A' for Active; 'I' for Inactive)
REMARK    1  A    between atoms: N3_10  and  C7_11 
REMARK    2  A    between atoms: N4_21  and  C16_22 
REMARK    3  A    between atoms: C16_22  and  C17_23 
REMARK    4  A    between atoms: C17_23  and  C18_24 
REMARK    5  A    between atoms: C18_24  and  N5_25 
ROOT
HETATM    1  N1  UNL     1      24.180   4.481  52.304  1.00  0.00    -0.286 NA
HETATM    2  C1  UNL     1      23.508   3.658  51.625  1.00  0.00     0.123 C 
HETATM    3  C2  UNL     1      22.980   4.040  50.285  1.00  0.00     0.253 C 
HETATM    4  O1  UNL     1      21.555   3.819  50.278  1.00  0.00    -0.342 OA
HETATM    5  C3  UNL     1      21.098   2.529  50.646  1.00  0.00     0.093 C 
HETATM    6  C4  UNL     1      19.975   2.084  50.116  1.00  0.00     0.027 C 
HETATM    7  C5  UNL     1      19.511   0.744  50.478  1.00  0.00     0.087 A 
HETATM    8  C6  UNL     1      18.122   0.410  50.229  1.00  0.00     0.125 A 
HETATM    9  N2  UNL     1      17.453  -0.235  51.112  1.00  0.00    -0.188 NA
HETATM   10  N3  UNL     1      17.968  -0.654  52.343  1.00  0.00    -0.269 N 
HETATM   11  C12 UNL     1      19.342  -0.339  52.656  1.00  0.00     0.121 A 
HETATM   12  C13 UNL     1      20.070   0.329  51.772  1.00  0.00    -0.026 A 
HETATM   13  C14 UNL     1      21.431   0.726  52.140  1.00  0.00     0.042 C 
HETATM   14  C15 UNL     1      21.980   1.841  51.594  1.00  0.00     0.070 C 
HETATM   15  N4  UNL     1      23.227   2.365  52.128  1.00  0.00    -0.331 N 
HETATM   16  H1  UNL     1      24.572   4.310  53.215  1.00  0.00     0.188 HD
ENDROOT
BRANCH  15  17
HETATM   17  C16 UNL     1      23.847   1.460  53.005  1.00  0.00     0.132 C 
BRANCH  17  18
HETATM   18  C17 UNL     1      25.305   1.178  52.798  1.00  0.00     0.050 C 
BRANCH  18  19
HETATM   19  C18 UNL     1      26.137   1.602  53.968  1.00  0.00     0.274 C 
BRANCH  19  20
HETATM   20  N5  UNL     1      27.311   0.757  54.124  1.00  0.00     0.088 N 
HETATM   21  C19 UNL     1      26.970  -0.463  53.374  1.00  0.00     0.272 C 
HETATM   22  C20 UNL     1      28.150  -1.318  53.065  1.00  0.00     0.030 C 
HETATM   23  C21 UNL     1      29.391  -0.923  53.818  1.00  0.00     0.003 C 
HETATM   24  C22 UNL     1      29.679   0.548  53.618  1.00  0.00     0.030 C 
HETATM   25  C23 UNL     1      28.418   1.354  53.358  1.00  0.00     0.272 C 
ENDBRANCH  19  20
ENDBRANCH  18  19
ENDBRANCH  17  18
ENDBRANCH  15  17
BRANCH  10  26
HETATM   26  C7  UNL     1      17.164  -1.397  53.310  1.00  0.00     0.158 A 
HETATM   27  C8  UNL     1      15.895  -1.776  52.599  1.00  0.00     0.007 A 
HETATM   28  C9  UNL     1      15.777  -3.093  52.527  1.00  0.00     0.040 A 
HETATM   29  C10 UNL     1      16.937  -3.688  53.172  1.00  0.00     0.114 A 
HETATM   30  F1  UNL     1      17.362  -4.958  53.407  1.00  0.00    -0.206 F 
HETATM   31  C11 UNL     1      17.742  -2.722  53.627  1.00  0.00     0.046 A 
ENDBRANCH  10  26
TORSDOF 5
ENDMDL
MODEL 6
REMARK VINA RESULT:      -8.7      2.976      7.705
REMARK  5 active torsions:
REMARK  status: ('A' for Active; 'I' for Inactive)
REMARK    1  A    between atoms: N3_10  and  C7_11 
REMARK    2  A    between atoms: N4_21  and  C16_22 
REMARK    3  A    between atoms: C16_22  and  C17_23 
REMARK    4  A    between atoms: C17_23  and  C18_24 
REMARK    5  A    between atoms: C18_24  and  N5_25 
ROOT
HETATM    1  N1  UNL     1      25.238  -1.219  55.310  1.00  0.00    -0.286 NA
HETATM    2  C1  UNL     1      25.424  -0.743  54.157  1.00  0.00     0.123 C 
HETATM    3  C2  UNL     1      26.793  -0.696  53.572  1.00  0.00     0.253 C 
HETATM    4  O1  UNL     1      27.078   0.664  53.188  1.00  0.00    -0.342 OA
HETATM    5  C3  UNL     1      26.147   1.303  52.331  1.00  0.00     0.093 C 
HETATM    6  C4  UNL     1      26.588   2.228  51.500  1.00  0.00     0.027 C 
HETATM    7  C5  UNL     1      25.632   2.876  50.600  1.00  0.00     0.087 A 
HETATM    8  C6  UNL     1      26.014   4.133  49.987  1.00  0.00     0.125 A 
HETATM    9  N2  UNL     1      25.166   5.092  49.917  1.00  0.00    -0.188 NA
HETATM   10  N3  UNL     1      23.857   5.026  50.406  1.00  0.00    -0.269 N 
HETATM   11  C12 UNL     1      23.422   3.805  51.041  1.00  0.00     0.121 A 
HETATM   12  C13 UNL     1      24.267   2.789  51.137  1.00  0.00    -0.026 A 
HETATM   13  C14 UNL     1      23.846   1.591  51.868  1.00  0.00     0.042 C 
HETATM   14  C15 UNL     1      24.771   0.820  52.492  1.00  0.00     0.070 C 
HETATM   15  N4  UNL     1      24.340  -0.226  53.406  1.00  0.00    -0.331 N 
HETATM   16  H1  UNL     1      24.352  -1.288  55.781  1.00  0.00     0.188 HD
ENDROOT
BRANCH  15  17
HETATM   17  C16 UNL     1      22.960  -0.469  53.314  1.00  0.00     0.132 C 
BRANCH  17  18
HETATM   18  C17 UNL     1      22.147  -0.342  54.567  1.00  0.00     0.050 C 
BRANCH  18  19
HETATM   19  C18 UNL     1      20.803   0.268  54.312  1.00  0.00     0.274 C 
BRANCH  19  20
HETATM   20  N5  UNL     1      20.561   0.453  52.889  1.00  0.00     0.088 N 
HETATM   21  C19 UNL     1      19.288  -0.249  52.653  1.00  0.00     0.272 C 
HETATM   22  C20 UNL     1      18.639   0.117  51.364  1.00  0.00     0.030 C 
HETATM   23  C21 UNL     1      19.537   0.894  50.439  1.00  0.00     0.003 C 
HETATM   24  C22 UNL     1      20.112   2.096  51.155  1.00  0.00     0.030 C 
HETATM   25  C23 UNL     1      20.241   1.871  52.651  1.00  0.00     0.272 C 
ENDBRANCH  19  20
ENDBRANCH  18  19
ENDBRANCH  17  18
ENDBRANCH  15  17
BRANCH  10  26
HETATM   26  C7  UNL     1      22.927   6.146  50.290  1.00  0.00     0.158 A 
HETATM   27  C8  UNL     1      22.646   6.309  48.822  1.00  0.00     0.007 A 
HETATM   28  C9  UNL     1      21.361   6.113  48.569  1.00  0.00     0.040 A 
HETATM   29  C10 UNL     1      20.693   5.807  49.825  1.00  0.00     0.114 A 
HETATM   30  F1  UNL     1      19.416   5.524  50.190  1.00  0.00    -0.206 F 
HETATM   31  C11 UNL     1      21.584   5.824  50.822  1.00  0.00     0.046 A 
ENDBRANCH  10  26
TORSDOF 5
ENDMDL
MODEL 7
REMARK VINA RESULT:      -8.5      1.799      2.364
REMARK  5 active torsions:
REMARK  status: ('A' for Active; 'I' for Inactive)
REMARK    1  A    between atoms: N3_10  and  C7_11 
REMARK    2  A    between atoms: N4_21  and  C16_22 
REMARK    3  A    between atoms: C16_22  and  C17_23 
REMARK    4  A    between atoms: C17_23  and  C18_24 
REMARK    5  A    between atoms: C18_24  and  N5_25 
ROOT
HETATM    1  N1  UNL     1      18.693   1.961  50.606  1.00  0.00    -0.286 NA
HETATM    2  C1  UNL     1      19.319   1.001  51.132  1.00  0.00     0.123 C 
HETATM    3  C2  UNL     1      18.636   0.093  52.095  1.00  0.00     0.253 C 
HETATM    4  O1  UNL     1      19.399   0.070  53.318  1.00  0.00    -0.342 OA
HETATM    5  C3  UNL     1      20.775  -0.254  53.217  1.00  0.00     0.093 C 
HETATM    6  C4  UNL     1      21.356  -0.859  54.235  1.00  0.00     0.027 C 
HETATM    7  C5  UNL     1      22.773  -1.213  54.125  1.00  0.00     0.087 A 
HETATM    8  C6  UNL     1      23.502  -1.503  55.345  1.00  0.00     0.125 A 
HETATM    9  N2  UNL     1      24.686  -1.038  55.505  1.00  0.00    -0.188 NA
HETATM   10  N3  UNL     1      25.355  -0.240  54.572  1.00  0.00    -0.269 N 
HETATM   11  C12 UNL     1      24.675   0.096  53.343  1.00  0.00     0.121 A 
HETATM   12  C13 UNL     1      23.449  -0.361  53.136  1.00  0.00    -0.026 A 
HETATM   13  C14 UNL     1      22.734   0.065  51.930  1.00  0.00     0.042 C 
HETATM   14  C15 UNL     1      21.379   0.138  51.939  1.00  0.00     0.070 C 
HETATM   15  N4  UNL     1      20.686   0.780  50.834  1.00  0.00    -0.331 N 
HETATM   16  H1  UNL     1      19.073   2.622  49.950  1.00  0.00     0.188 HD
ENDROOT
BRANCH  15  17
HETATM   17  C16 UNL     1      21.538   1.016  49.743  1.00  0.00     0.132 C 
BRANCH  17  18
HETATM   18  C17 UNL     1      21.879   2.440  49.422  1.00  0.00     0.050 C 
BRANCH  18  19
HETATM   19  C18 UNL     1      22.262   3.221  50.641  1.00  0.00     0.274 C 
BRANCH  19  20
HETATM   20  N5  UNL     1      23.494   3.968  50.433  1.00  0.00     0.088 N 
HETATM   21  C19 UNL     1      24.547   2.941  50.510  1.00  0.00     0.272 C 
HETATM   22  C20 UNL     1      25.853   3.388  49.953  1.00  0.00     0.030 C 
HETATM   23  C21 UNL     1      25.920   4.869  49.695  1.00  0.00     0.003 C 
HETATM   24  C22 UNL     1      24.752   5.305  48.839  1.00  0.00     0.030 C 
HETATM   25  C23 UNL     1      23.533   4.420  49.031  1.00  0.00     0.272 C 
ENDBRANCH  19  20
ENDBRANCH  18  19
ENDBRANCH  17  18
ENDBRANCH  15  17
BRANCH  10  26
HETATM   26  C7  UNL     1      26.710   0.254  54.801  1.00  0.00     0.158 A 
HETATM   27  C8  UNL     1      27.618  -0.601  53.962  1.00  0.00     0.007 A 
HETATM   28  C9  UNL     1      28.244   0.133  53.056  1.00  0.00     0.040 A 
HETATM   29  C10 UNL     1      27.813   1.513  53.213  1.00  0.00     0.114 A 
HETATM   30  F1  UNL     1      28.101   2.688  52.594  1.00  0.00    -0.206 F 
HETATM   31  C11 UNL     1      26.930   1.595  54.215  1.00  0.00     0.046 A 
ENDBRANCH  10  26
TORSDOF 5
ENDMDL
MODEL 8
REMARK VINA RESULT:      -8.4      3.101      6.651
REMARK  5 active torsions:
REMARK  status: ('A' for Active; 'I' for Inactive)
REMARK    1  A    between atoms: N3_10  and  C7_11 
REMARK    2  A    between atoms: N4_21  and  C16_22 
REMARK    3  A    between atoms: C16_22  and  C17_23 
REMARK    4  A    between atoms: C17_23  and  C18_24 
REMARK    5  A    between atoms: C18_24  and  N5_25 
ROOT
HETATM    1  N1  UNL     1      19.998   2.090  48.230  1.00  0.00    -0.286 NA
HETATM    2  C1  UNL     1      20.939   2.623  48.878  1.00  0.00     0.123 C 
HETATM    3  C2  UNL     1      21.818   3.638  48.232  1.00  0.00     0.253 C 
HETATM    4  O1  UNL     1      23.187   3.206  48.366  1.00  0.00    -0.342 OA
HETATM    5  C3  UNL     1      23.647   2.906  49.672  1.00  0.00     0.093 C 
HETATM    6  C4  UNL     1      24.923   3.093  49.949  1.00  0.00     0.027 C 
HETATM    7  C5  UNL     1      25.397   2.804  51.304  1.00  0.00     0.087 A 
HETATM    8  C6  UNL     1      26.822   2.625  51.506  1.00  0.00     0.125 A 
HETATM    9  N2  UNL     1      27.244   1.678  52.259  1.00  0.00    -0.188 NA
HETATM   10  N3  UNL     1      26.417   0.764  52.920  1.00  0.00    -0.269 N 
HETATM   11  C12 UNL     1      24.988   0.881  52.746  1.00  0.00     0.121 A 
HETATM   12  C13 UNL     1      24.507   1.845  51.974  1.00  0.00    -0.026 A 
HETATM   13  C14 UNL     1      23.064   1.894  51.729  1.00  0.00     0.042 C 
HETATM   14  C15 UNL     1      22.594   2.418  50.569  1.00  0.00     0.070 C 
HETATM   15  N4  UNL     1      21.191   2.255  50.222  1.00  0.00    -0.331 N 
HETATM   16  H1  UNL     1      19.360   1.397  48.583  1.00  0.00     0.188 HD
ENDROOT
BRANCH  15  17
HETATM   17  C16 UNL     1      20.432   1.780  51.303  1.00  0.00     0.132 C 
BRANCH  17  18
HETATM   18  C17 UNL     1      19.714   0.475  51.130  1.00  0.00     0.050 C 
BRANCH  18  19
HETATM   19  C18 UNL     1      18.355   0.487  51.760  1.00  0.00     0.274 C 
BRANCH  19  20
HETATM   20  N5  UNL     1      17.863  -0.861  51.995  1.00  0.00     0.088 N 
HETATM   21  C19 UNL     1      18.546  -1.276  53.232  1.00  0.00     0.272 C 
HETATM   22  C20 UNL     1      17.925  -2.462  53.884  1.00  0.00     0.030 C 
HETATM   23  C21 UNL     1      16.920  -3.168  53.014  1.00  0.00     0.003 C 
HETATM   24  C22 UNL     1      15.889  -2.187  52.502  1.00  0.00     0.030 C 
HETATM   25  C23 UNL     1      16.443  -0.778  52.379  1.00  0.00     0.272 C 
ENDBRANCH  19  20
ENDBRANCH  18  19
ENDBRANCH  17  18
ENDBRANCH  15  17
BRANCH  10  26
HETATM   26  C7  UNL     1      26.952  -0.291  53.777  1.00  0.00     0.158 A 
HETATM   27  C8  UNL     1      26.919  -1.553  52.960  1.00  0.00     0.007 A 
HETATM   28  C9  UNL     1      28.143  -2.027  52.784  1.00  0.00     0.040 A 
HETATM   29  C10 UNL     1      29.075  -1.135  53.457  1.00  0.00     0.114 A 
HETATM   30  F1  UNL     1      30.423  -1.101  53.625  1.00  0.00    -0.206 F 
HETATM   31  C11 UNL     1      28.400  -0.133  54.032  1.00  0.00     0.046 A 
ENDBRANCH  10  26
TORSDOF 5
ENDMDL
MODEL 9
REMARK VINA RESULT:      -8.4      4.215      8.774
REMARK  5 active torsions:
REMARK  status: ('A' for Active; 'I' for Inactive)
REMARK    1  A    between atoms: N3_10  and  C7_11 
REMARK    2  A    between atoms: N4_21  and  C16_22 
REMARK    3  A    between atoms: C16_22  and  C17_23 
REMARK    4  A    between atoms: C17_23  and  C18_24 
REMARK    5  A    between atoms: C18_24  and  N5_25 
ROOT
HETATM    1  N1  UNL     1      23.926   6.350  48.091  1.00  0.00    -0.286 NA
HETATM    2  C1  UNL     1      25.083   6.675  48.476  1.00  0.00     0.123 C 
HETATM    3  C2  UNL     1      25.454   8.111  48.614  1.00  0.00     0.253 C 
HETATM    4  O1  UNL     1      26.637   8.353  47.827  1.00  0.00    -0.342 OA
HETATM    5  C3  UNL     1      27.758   7.521  48.072  1.00  0.00     0.093 C 
HETATM    6  C4  UNL     1      28.965   8.017  47.875  1.00  0.00     0.027 C 
HETATM    7  C5  UNL     1      30.126   7.167  48.146  1.00  0.00     0.087 A 
HETATM    8  C6  UNL     1      31.401   7.548  47.571  1.00  0.00     0.125 A 
HETATM    9  N2  UNL     1      32.157   6.653  47.048  1.00  0.00    -0.188 NA
HETATM   10  N3  UNL     1      31.838   5.293  46.978  1.00  0.00    -0.269 N 
HETATM   11  C12 UNL     1      30.574   4.854  47.521  1.00  0.00     0.121 A 
HETATM   12  C13 UNL     1      29.762   5.746  48.069  1.00  0.00    -0.026 A 
HETATM   13  C14 UNL     1      28.443   5.304  48.529  1.00  0.00     0.042 C 
HETATM   14  C15 UNL     1      27.403   6.176  48.536  1.00  0.00     0.070 C 
HETATM   15  N4  UNL     1      26.053   5.686  48.764  1.00  0.00    -0.331 N 
HETATM   16  H1  UNL     1      23.591   5.409  47.968  1.00  0.00     0.188 HD
ENDROOT
BRANCH  15  17
HETATM   17  C16 UNL     1      26.045   4.358  49.220  1.00  0.00     0.132 C 
BRANCH  17  18
HETATM   18  C17 UNL     1      25.339   4.069  50.510  1.00  0.00     0.050 C 
BRANCH  18  19
HETATM   19  C18 UNL     1      24.210   3.101  50.335  1.00  0.00     0.274 C 
BRANCH  19  20
HETATM   20  N5  UNL     1      24.321   1.977  51.252  1.00  0.00     0.088 N 
HETATM   21  C19 UNL     1      25.357   2.402  52.208  1.00  0.00     0.272 C 
HETATM   22  C20 UNL     1      25.381   1.593  53.457  1.00  0.00     0.030 C 
HETATM   23  C21 UNL     1      24.553   0.339  53.375  1.00  0.00     0.003 C 
HETATM   24  C22 UNL     1      23.145   0.668  52.930  1.00  0.00     0.030 C 
HETATM   25  C23 UNL     1      23.091   1.912  52.060  1.00  0.00     0.272 C 
ENDBRANCH  19  20
ENDBRANCH  18  19
ENDBRANCH  17  18
ENDBRANCH  15  17
BRANCH  10  26
HETATM   26  C7  UNL     1      32.742   4.313  46.380  1.00  0.00     0.158 A 
HETATM   27  C8  UNL     1      33.968   4.286  47.249  1.00  0.00     0.007 A 
HETATM   28  C9  UNL     1      34.134   3.087  47.785  1.00  0.00     0.040 A 
HETATM   29  C10 UNL     1      33.050   2.232  47.325  1.00  0.00     0.114 A 
HETATM   30  F1  UNL     1      32.696   0.936  47.528  1.00  0.00    -0.206 F 
HETATM   31  C11 UNL     1      32.243   2.927  46.516  1.00  0.00     0.046 A 
ENDBRANCH  10  26
TORSDOF 5
ENDMDL
