MODEL 1
REMARK VINA RESULT:      -9.6      0.000      0.000
REMARK  3 active torsions:
REMARK  status: ('A' for Active; 'I' for Inactive)
REMARK    1  A    between atoms: C15_17  and  N2_18 
REMARK    2  A    between atoms: N2_18  and  C16_19 
REMARK    3  A    between atoms: C19_23  and  C20_24 
ROOT
HETATM    1  C1  UNL     1      27.156   4.357  49.059  1.00  0.00     0.037 C 
HETATM    2  C2  UNL     1      25.848   3.704  49.282  1.00  0.00    -0.019 C 
HETATM    3  C3  UNL     1      24.889   4.378  49.865  1.00  0.00    -0.031 C 
HETATM    4  C4  UNL     1      25.119   5.802  50.310  1.00  0.00     0.010 C 
HETATM    5  C5  UNL     1      24.245   6.704  50.862  1.00  0.00     0.002 C 
HETATM    6  C6  UNL     1      22.795   6.759  51.208  1.00  0.00     0.221 C 
HETATM    7  O1  UNL     1      22.008   5.746  50.655  1.00  0.00    -0.296 OA
HETATM    8  N1  UNL     1      21.801   4.693  51.413  1.00  0.00    -0.153 NA
HETATM    9  C7  UNL     1      20.543   3.979  50.998  1.00  0.00     0.163 C 
HETATM   10  C8  UNL     1      19.441   4.940  50.703  1.00  0.00     0.042 C 
HETATM   11  C9  UNL     1      20.911   3.144  49.858  1.00  0.00    -0.084 C 
HETATM   12  C10 UNL     1      21.204   2.487  48.924  1.00  0.00    -0.095 C 
HETATM   13  C11 UNL     1      21.548   1.725  47.791  1.00  0.00     0.107 C 
HETATM   14  C12 UNL     1      22.722   2.264  47.993  1.00  0.00    -0.007 C 
HETATM   15  C13 UNL     1      23.532   3.077  48.800  1.00  0.00     0.008 C 
HETATM   16  C14 UNL     1      23.566   3.708  49.989  1.00  0.00    -0.009 C 
HETATM   17  C15 UNL     1      22.763   3.647  51.250  1.00  0.00     0.236 C 
ENDROOT
BRANCH  17  18
HETATM   18  N2  UNL     1      23.590   3.548  52.461  1.00  0.00    -0.199 N 
HETATM   19  H17 UNL     1      23.852   4.315  53.143  1.00  0.00     0.180 HD
BRANCH  18  20
HETATM   20  C16 UNL     1      24.106   2.283  52.780  1.00  0.00     0.724 A 
HETATM   21  N3  UNL     1      23.193   1.332  53.137  1.00  0.00    -0.075 NA
HETATM   22  C17 UNL     1      23.769   0.106  53.421  1.00  0.00     0.139 A 
HETATM   23  C18 UNL     1      25.202   0.052  53.292  1.00  0.00     0.053 A 
HETATM   24  C19 UNL     1      26.219   1.054  52.909  1.00  0.00     0.089 A 
HETATM   25  N5  UNL     1      25.281   1.877  52.774  1.00  0.00    -0.062 NA
BRANCH  24  26
HETATM   26  C20 UNL     1      27.270   0.102  53.068  1.00  0.00     0.011 A 
HETATM   27  C21 UNL     1      27.665  -1.198  52.985  1.00  0.00     0.017 A 
HETATM   28  C22 UNL     1      28.973  -1.479  53.296  1.00  0.00     0.020 A 
HETATM   29  C23 UNL     1      29.934  -0.585  53.684  1.00  0.00     0.116 A 
HETATM   30  N4  UNL     1      29.584   0.738  53.784  1.00  0.00    -0.272 NA
HETATM   31  C24 UNL     1      28.260   1.035  53.470  1.00  0.00     0.130 A 
ENDBRANCH  24  26
ENDBRANCH  18  20
ENDBRANCH  17  18
TORSDOF 3
ENDMDL
MODEL 2
REMARK VINA RESULT:      -9.1      2.439      6.518
REMARK  3 active torsions:
REMARK  status: ('A' for Active; 'I' for Inactive)
REMARK    1  A    between atoms: C15_17  and  N2_18 
REMARK    2  A    between atoms: N2_18  and  C16_19 
REMARK    3  A    between atoms: C19_23  and  C20_24 
ROOT
HETATM    1  C1  UNL     1      28.219   1.976  53.514  1.00  0.00     0.037 C 
HETATM    2  C2  UNL     1      26.749   1.808  53.512  1.00  0.00    -0.019 C 
HETATM    3  C3  UNL     1      26.062   2.216  52.475  1.00  0.00    -0.031 C 
HETATM    4  C4  UNL     1      26.761   2.854  51.299  1.00  0.00     0.010 C 
HETATM    5  C5  UNL     1      26.254   3.276  50.097  1.00  0.00     0.002 C 
HETATM    6  C6  UNL     1      24.936   3.270  49.397  1.00  0.00     0.221 C 
HETATM    7  O1  UNL     1      23.964   2.440  49.956  1.00  0.00    -0.296 OA
HETATM    8  N1  UNL     1      23.130   3.007  50.798  1.00  0.00    -0.153 NA
HETATM    9  C7  UNL     1      21.845   2.230  50.879  1.00  0.00     0.163 C 
HETATM   10  C8  UNL     1      21.388   1.786  49.530  1.00  0.00     0.042 C 
HETATM   11  C9  UNL     1      22.098   1.126  51.802  1.00  0.00    -0.084 C 
HETATM   12  C10 UNL     1      22.310   0.223  52.529  1.00  0.00    -0.095 C 
HETATM   13  C11 UNL     1      22.574  -0.871  53.375  1.00  0.00     0.107 C 
HETATM   14  C12 UNL     1      23.767  -0.338  53.416  1.00  0.00    -0.007 C 
HETATM   15  C13 UNL     1      24.606   0.722  53.043  1.00  0.00     0.008 C 
HETATM   16  C14 UNL     1      24.598   1.946  52.482  1.00  0.00    -0.009 C 
HETATM   17  C15 UNL     1      23.549   2.965  52.165  1.00  0.00     0.236 C 
ENDROOT
BRANCH  17  18
HETATM   18  N2  UNL     1      23.902   4.320  52.612  1.00  0.00    -0.199 N 
HETATM   19  H17 UNL     1      24.460   4.607  53.465  1.00  0.00     0.180 HD
BRANCH  18  20
HETATM   20  C16 UNL     1      23.459   5.389  51.818  1.00  0.00     0.724 A 
HETATM   21  N3  UNL     1      22.112   5.609  51.798  1.00  0.00    -0.075 NA
HETATM   22  C17 UNL     1      21.749   6.687  51.010  1.00  0.00     0.139 A 
HETATM   23  C18 UNL     1      22.836   7.373  50.362  1.00  0.00     0.053 A 
HETATM   24  C19 UNL     1      24.300   7.167  50.360  1.00  0.00     0.089 A 
HETATM   25  N5  UNL     1      24.111   6.193  51.129  1.00  0.00    -0.062 NA
BRANCH  24  26
HETATM   26  C20 UNL     1      24.491   8.279  49.486  1.00  0.00     0.011 A 
HETATM   27  C21 UNL     1      24.029   9.004  48.430  1.00  0.00     0.017 A 
HETATM   28  C22 UNL     1      24.763  10.102  48.053  1.00  0.00     0.020 A 
HETATM   29  C23 UNL     1      25.919  10.554  48.629  1.00  0.00     0.116 A 
HETATM   30  N4  UNL     1      26.425   9.855  49.696  1.00  0.00    -0.272 NA
HETATM   31  C24 UNL     1      25.690   8.740  50.088  1.00  0.00     0.130 A 
ENDBRANCH  24  26
ENDBRANCH  18  20
ENDBRANCH  17  18
TORSDOF 3
ENDMDL
MODEL 3
REMARK VINA RESULT:      -8.6      6.919     10.598
REMARK  3 active torsions:
REMARK  status: ('A' for Active; 'I' for Inactive)
REMARK    1  A    between atoms: C15_17  and  N2_18 
REMARK    2  A    between atoms: N2_18  and  C16_19 
REMARK    3  A    between atoms: C19_23  and  C20_24 
ROOT
HETATM    1  C1  UNL     1      32.874   1.625  47.010  1.00  0.00     0.037 C 
HETATM    2  C2  UNL     1      32.604   2.946  46.401  1.00  0.00    -0.019 C 
HETATM    3  C3  UNL     1      33.206   4.005  46.881  1.00  0.00    -0.031 C 
HETATM    4  C4  UNL     1      34.159   3.879  48.045  1.00  0.00     0.010 C 
HETATM    5  C5  UNL     1      34.943   4.830  48.647  1.00  0.00     0.002 C 
HETATM    6  C6  UNL     1      35.264   6.274  48.452  1.00  0.00     0.221 C 
HETATM    7  O1  UNL     1      34.873   6.815  47.226  1.00  0.00    -0.296 OA
HETATM    8  N1  UNL     1      33.708   7.422  47.205  1.00  0.00    -0.153 NA
HETATM    9  C7  UNL     1      33.648   8.420  46.081  1.00  0.00     0.163 C 
HETATM   10  C8  UNL     1      34.918   9.195  45.971  1.00  0.00     0.042 C 
HETATM   11  C9  UNL     1      33.324   7.656  44.879  1.00  0.00    -0.084 C 
HETATM   12  C10 UNL     1      33.084   7.035  43.906  1.00  0.00    -0.095 C 
HETATM   13  C11 UNL     1      32.827   6.289  42.740  1.00  0.00     0.107 C 
HETATM   14  C12 UNL     1      32.854   5.285  43.578  1.00  0.00    -0.007 C 
HETATM   15  C13 UNL     1      32.959   4.852  44.908  1.00  0.00     0.008 C 
HETATM   16  C14 UNL     1      32.970   5.296  46.180  1.00  0.00    -0.009 C 
HETATM   17  C15 UNL     1      32.605   6.576  46.864  1.00  0.00     0.236 C 
ENDROOT
BRANCH  17  18
HETATM   18  N2  UNL     1      31.753   6.381  48.045  1.00  0.00    -0.199 N 
HETATM   19  H17 UNL     1      32.036   6.070  49.016  1.00  0.00     0.180 HD
BRANCH  18  20
HETATM   20  C16 UNL     1      30.382   6.641  47.892  1.00  0.00     0.724 A 
HETATM   21  N3  UNL     1      30.055   7.734  47.143  1.00  0.00    -0.075 NA
HETATM   22  C17 UNL     1      28.689   7.919  47.020  1.00  0.00     0.139 A 
HETATM   23  C18 UNL     1      27.870   6.944  47.693  1.00  0.00     0.053 A 
HETATM   24  C19 UNL     1      28.186   5.753  48.509  1.00  0.00     0.089 A 
HETATM   25  N5  UNL     1      29.400   6.014  48.326  1.00  0.00    -0.062 NA
BRANCH  24  26
HETATM   26  C20 UNL     1      26.800   5.475  48.704  1.00  0.00     0.011 A 
HETATM   27  C21 UNL     1      25.515   5.913  48.605  1.00  0.00     0.017 A 
HETATM   28  C22 UNL     1      24.523   5.044  48.989  1.00  0.00     0.020 A 
HETATM   29  C23 UNL     1      24.686   3.771  49.464  1.00  0.00     0.116 A 
HETATM   30  N4  UNL     1      25.964   3.284  49.583  1.00  0.00    -0.272 NA
HETATM   31  C24 UNL     1      26.978   4.156  49.196  1.00  0.00     0.130 A 
ENDBRANCH  24  26
ENDBRANCH  18  20
ENDBRANCH  17  18
TORSDOF 3
ENDMDL
MODEL 4
REMARK VINA RESULT:      -8.6      1.359      4.058
REMARK  3 active torsions:
REMARK  status: ('A' for Active; 'I' for Inactive)
REMARK    1  A    between atoms: C15_17  and  N2_18 
REMARK    2  A    between atoms: N2_18  and  C16_19 
REMARK    3  A    between atoms: C19_23  and  C20_24 
ROOT
HETATM    1  C1  UNL     1      18.124   4.594  49.735  1.00  0.00     0.037 C 
HETATM    2  C2  UNL     1      19.468   4.798  50.318  1.00  0.00    -0.019 C 
HETATM    3  C3  UNL     1      20.471   4.083  49.874  1.00  0.00    -0.031 C 
HETATM    4  C4  UNL     1      20.256   3.060  48.785  1.00  0.00     0.010 C 
HETATM    5  C5  UNL     1      21.165   2.270  48.128  1.00  0.00     0.002 C 
HETATM    6  C6  UNL     1      22.645   2.080  48.108  1.00  0.00     0.221 C 
HETATM    7  O1  UNL     1      23.386   3.082  48.736  1.00  0.00    -0.296 OA
HETATM    8  N1  UNL     1      23.716   2.863  49.988  1.00  0.00    -0.153 NA
HETATM    9  C7  UNL     1      24.934   3.662  50.365  1.00  0.00     0.163 C 
HETATM   10  C8  UNL     1      25.962   3.634  49.286  1.00  0.00     0.042 C 
HETATM   11  C9  UNL     1      24.453   5.006  50.679  1.00  0.00    -0.084 C 
HETATM   12  C10 UNL     1      24.067   6.095  50.910  1.00  0.00    -0.095 C 
HETATM   13  C11 UNL     1      23.608   7.403  51.158  1.00  0.00     0.107 C 
HETATM   14  C12 UNL     1      22.452   6.878  50.845  1.00  0.00    -0.007 C 
HETATM   15  C13 UNL     1      21.725   5.727  50.506  1.00  0.00     0.008 C 
HETATM   16  C14 UNL     1      21.818   4.386  50.429  1.00  0.00    -0.009 C 
HETATM   17  C15 UNL     1      22.772   3.354  50.944  1.00  0.00     0.236 C 
ENDROOT
BRANCH  17  18
HETATM   18  N2  UNL     1      22.104   2.222  51.601  1.00  0.00    -0.199 N 
HETATM   19  H17 UNL     1      21.075   1.974  51.597  1.00  0.00     0.180 HD
BRANCH  18  20
HETATM   20  C16 UNL     1      22.915   1.337  52.328  1.00  0.00     0.724 A 
HETATM   21  N3  UNL     1      22.272   0.516  53.209  1.00  0.00    -0.075 NA
HETATM   22  C17 UNL     1      23.130  -0.341  53.877  1.00  0.00     0.139 A 
HETATM   23  C18 UNL     1      24.522  -0.216  53.531  1.00  0.00     0.053 A 
HETATM   24  C19 UNL     1      25.252   0.655  52.587  1.00  0.00     0.089 A 
HETATM   25  N5  UNL     1      24.145   1.167  52.285  1.00  0.00    -0.062 NA
BRANCH  24  26
HETATM   26  C20 UNL     1      26.498   0.059  52.944  1.00  0.00     0.011 A 
HETATM   27  C21 UNL     1      27.438  -0.889  52.675  1.00  0.00     0.017 A 
HETATM   28  C22 UNL     1      28.544  -0.925  53.487  1.00  0.00     0.020 A 
HETATM   29  C23 UNL     1      28.811  -0.103  54.548  1.00  0.00     0.116 A 
HETATM   30  N4  UNL     1      27.892   0.869  54.860  1.00  0.00    -0.272 NA
HETATM   31  C24 UNL     1      26.766   0.915  54.042  1.00  0.00     0.130 A 
ENDBRANCH  24  26
ENDBRANCH  18  20
ENDBRANCH  17  18
TORSDOF 3
ENDMDL
MODEL 5
REMARK VINA RESULT:      -8.5      2.289      7.180
REMARK  3 active torsions:
REMARK  status: ('A' for Active; 'I' for Inactive)
REMARK    1  A    between atoms: C15_17  and  N2_18 
REMARK    2  A    between atoms: N2_18  and  C16_19 
REMARK    3  A    between atoms: C19_23  and  C20_24 
ROOT
HETATM    1  C1  UNL     1      28.148   1.897  53.454  1.00  0.00     0.037 C 
HETATM    2  C2  UNL     1      26.671   1.824  53.472  1.00  0.00    -0.019 C 
HETATM    3  C3  UNL     1      25.998   2.243  52.431  1.00  0.00    -0.031 C 
HETATM    4  C4  UNL     1      26.722   2.799  51.228  1.00  0.00     0.010 C 
HETATM    5  C5  UNL     1      26.227   3.216  50.018  1.00  0.00     0.002 C 
HETATM    6  C6  UNL     1      24.904   3.274  49.333  1.00  0.00     0.221 C 
HETATM    7  O1  UNL     1      23.887   2.525  49.928  1.00  0.00    -0.296 OA
HETATM    8  N1  UNL     1      23.102   3.169  50.761  1.00  0.00    -0.153 NA
HETATM    9  C7  UNL     1      21.771   2.479  50.879  1.00  0.00     0.163 C 
HETATM   10  C8  UNL     1      21.270   2.025  49.549  1.00  0.00     0.042 C 
HETATM   11  C9  UNL     1      21.965   1.390  51.833  1.00  0.00    -0.084 C 
HETATM   12  C10 UNL     1      22.128   0.498  52.586  1.00  0.00    -0.095 C 
HETATM   13  C11 UNL     1      22.332  -0.585  53.463  1.00  0.00     0.107 C 
HETATM   14  C12 UNL     1      23.557  -0.129  53.474  1.00  0.00    -0.007 C 
HETATM   15  C13 UNL     1      24.457   0.864  53.059  1.00  0.00     0.008 C 
HETATM   16  C14 UNL     1      24.521   2.069  52.461  1.00  0.00    -0.009 C 
HETATM   17  C15 UNL     1      23.534   3.143  52.124  1.00  0.00     0.236 C 
ENDROOT
BRANCH  17  18
HETATM   18  N2  UNL     1      23.979   4.485  52.524  1.00  0.00    -0.199 N 
HETATM   19  H17 UNL     1      24.554   4.763  53.369  1.00  0.00     0.180 HD
BRANCH  18  20
HETATM   20  C16 UNL     1      23.611   5.553  51.692  1.00  0.00     0.724 A 
HETATM   21  N3  UNL     1      24.635   6.272  51.146  1.00  0.00    -0.075 NA
HETATM   22  C17 UNL     1      24.201   7.298  50.324  1.00  0.00     0.139 A 
HETATM   23  C18 UNL     1      22.773   7.422  50.193  1.00  0.00     0.053 A 
HETATM   24  C19 UNL     1      21.638   6.667  50.765  1.00  0.00     0.089 A 
HETATM   25  N5  UNL     1      22.482   5.947  51.354  1.00  0.00    -0.062 NA
BRANCH  24  26
HETATM   26  C20 UNL     1      20.697   7.496  50.085  1.00  0.00     0.011 A 
HETATM   27  C21 UNL     1      20.096   8.715  49.991  1.00  0.00     0.017 A 
HETATM   28  C22 UNL     1      19.180   8.887  48.982  1.00  0.00     0.020 A 
HETATM   29  C23 UNL     1      18.802   7.960  48.050  1.00  0.00     0.116 A 
HETATM   30  N4  UNL     1      19.379   6.715  48.104  1.00  0.00    -0.272 NA
HETATM   31  C24 UNL     1      20.309   6.529  49.123  1.00  0.00     0.130 A 
ENDBRANCH  24  26
ENDBRANCH  18  20
ENDBRANCH  17  18
TORSDOF 3
ENDMDL
MODEL 6
REMARK VINA RESULT:      -8.4      2.841      7.456
REMARK  3 active torsions:
REMARK  status: ('A' for Active; 'I' for Inactive)
REMARK    1  A    between atoms: C15_17  and  N2_18 
REMARK    2  A    between atoms: N2_18  and  C16_19 
REMARK    3  A    between atoms: C19_23  and  C20_24 
ROOT
HETATM    1  C1  UNL     1      21.220  -1.602  54.318  1.00  0.00     0.037 C 
HETATM    2  C2  UNL     1      22.228  -0.996  53.419  1.00  0.00    -0.019 C 
HETATM    3  C3  UNL     1      22.022   0.208  52.950  1.00  0.00    -0.031 C 
HETATM    4  C4  UNL     1      20.770   0.968  53.319  1.00  0.00     0.010 C 
HETATM    5  C5  UNL     1      20.395   2.250  53.009  1.00  0.00     0.002 C 
HETATM    6  C6  UNL     1      20.977   3.423  52.294  1.00  0.00     0.221 C 
HETATM    7  O1  UNL     1      22.347   3.347  52.033  1.00  0.00    -0.296 OA
HETATM    8  N1  UNL     1      22.687   2.888  50.850  1.00  0.00    -0.153 NA
HETATM    9  C7  UNL     1      24.059   3.373  50.467  1.00  0.00     0.163 C 
HETATM   10  C8  UNL     1      24.247   4.812  50.814  1.00  0.00     0.042 C 
HETATM   11  C9  UNL     1      25.004   2.482  51.136  1.00  0.00    -0.084 C 
HETATM   12  C10 UNL     1      25.765   1.776  51.694  1.00  0.00    -0.095 C 
HETATM   13  C11 UNL     1      26.673   0.951  52.384  1.00  0.00     0.107 C 
HETATM   14  C12 UNL     1      25.575   0.404  52.836  1.00  0.00    -0.007 C 
HETATM   15  C13 UNL     1      24.173   0.353  52.801  1.00  0.00     0.008 C 
HETATM   16  C14 UNL     1      23.103   0.808  52.122  1.00  0.00    -0.009 C 
HETATM   17  C15 UNL     1      22.885   1.472  50.799  1.00  0.00     0.236 C 
ENDROOT
BRANCH  17  18
HETATM   18  N2  UNL     1      21.810   0.855  50.009  1.00  0.00    -0.199 N 
HETATM   19  H17 UNL     1      21.460  -0.144  50.042  1.00  0.00     0.180 HD
BRANCH  18  20
HETATM   20  C16 UNL     1      21.141   1.678  49.090  1.00  0.00     0.724 A 
HETATM   21  N3  UNL     1      19.808   1.873  49.315  1.00  0.00    -0.075 NA
HETATM   22  C17 UNL     1      19.217   2.707  48.381  1.00  0.00     0.139 A 
HETATM   23  C18 UNL     1      20.095   3.210  47.357  1.00  0.00     0.053 A 
HETATM   24  C19 UNL     1      21.536   3.022  47.083  1.00  0.00     0.089 A 
HETATM   25  N5  UNL     1      21.578   2.280  48.095  1.00  0.00    -0.062 NA
BRANCH  24  26
HETATM   26  C20 UNL     1      21.465   3.870  45.938  1.00  0.00     0.011 A 
HETATM   27  C21 UNL     1      21.079   4.020  44.640  1.00  0.00     0.017 A 
HETATM   28  C22 UNL     1      21.313   5.239  44.052  1.00  0.00     0.020 A 
HETATM   29  C23 UNL     1      21.895   6.332  44.633  1.00  0.00     0.116 A 
HETATM   30  N4  UNL     1      22.303   6.230  45.940  1.00  0.00    -0.272 NA
HETATM   31  C24 UNL     1      22.070   4.999  46.547  1.00  0.00     0.130 A 
ENDBRANCH  24  26
ENDBRANCH  18  20
ENDBRANCH  17  18
TORSDOF 3
ENDMDL
MODEL 7
REMARK VINA RESULT:      -8.4      3.214      7.581
REMARK  3 active torsions:
REMARK  status: ('A' for Active; 'I' for Inactive)
REMARK    1  A    between atoms: C15_17  and  N2_18 
REMARK    2  A    between atoms: N2_18  and  C16_19 
REMARK    3  A    between atoms: C19_23  and  C20_24 
ROOT
HETATM    1  C1  UNL     1      26.710   0.676  51.852  1.00  0.00     0.037 C 
HETATM    2  C2  UNL     1      26.442   1.748  50.868  1.00  0.00    -0.019 C 
HETATM    3  C3  UNL     1      25.551   2.664  51.150  1.00  0.00    -0.031 C 
HETATM    4  C4  UNL     1      24.803   2.624  52.461  1.00  0.00     0.010 C 
HETATM    5  C5  UNL     1      23.898   3.512  52.985  1.00  0.00     0.002 C 
HETATM    6  C6  UNL     1      23.307   4.829  52.612  1.00  0.00     0.221 C 
HETATM    7  O1  UNL     1      23.957   5.506  51.578  1.00  0.00    -0.296 OA
HETATM    8  N1  UNL     1      23.470   5.329  50.371  1.00  0.00    -0.153 NA
HETATM    9  C7  UNL     1      23.833   6.483  49.477  1.00  0.00     0.163 C 
HETATM   10  C8  UNL     1      23.680   7.789  50.180  1.00  0.00     0.042 C 
HETATM   11  C9  UNL     1      25.194   6.224  49.015  1.00  0.00    -0.084 C 
HETATM   12  C10 UNL     1      26.301   6.025  48.661  1.00  0.00    -0.095 C 
HETATM   13  C11 UNL     1      27.633   5.800  48.263  1.00  0.00     0.107 C 
HETATM   14  C12 UNL     1      27.504   4.740  49.016  1.00  0.00    -0.007 C 
HETATM   15  C13 UNL     1      26.666   3.945  49.813  1.00  0.00     0.008 C 
HETATM   16  C14 UNL     1      25.379   3.769  50.168  1.00  0.00    -0.009 C 
HETATM   17  C15 UNL     1      24.057   4.242  49.649  1.00  0.00     0.236 C 
ENDROOT
BRANCH  17  18
HETATM   18  N2  UNL     1      23.071   3.162  49.501  1.00  0.00    -0.199 N 
HETATM   19  H17 UNL     1      23.013   2.248  50.032  1.00  0.00     0.180 HD
BRANCH  18  20
HETATM   20  C16 UNL     1      22.062   3.346  48.544  1.00  0.00     0.724 A 
HETATM   21  N3  UNL     1      20.873   2.723  48.793  1.00  0.00    -0.075 NA
HETATM   22  C17 UNL     1      19.920   2.962  47.819  1.00  0.00     0.139 A 
HETATM   23  C18 UNL     1      20.343   3.809  46.734  1.00  0.00     0.053 A 
HETATM   24  C19 UNL     1      21.615   4.499  46.431  1.00  0.00     0.089 A 
HETATM   25  N5  UNL     1      22.072   4.011  47.494  1.00  0.00    -0.062 NA
BRANCH  24  26
HETATM   26  C20 UNL     1      21.074   5.044  45.228  1.00  0.00     0.011 A 
HETATM   27  C21 UNL     1      20.593   6.139  44.577  1.00  0.00     0.017 A 
HETATM   28  C22 UNL     1      20.207   5.972  43.269  1.00  0.00     0.020 A 
HETATM   29  C23 UNL     1      20.255   4.815  42.540  1.00  0.00     0.116 A 
HETATM   30  N4  UNL     1      20.732   3.684  43.154  1.00  0.00    -0.272 NA
HETATM   31  C24 UNL     1      21.126   3.840  44.480  1.00  0.00     0.130 A 
ENDBRANCH  24  26
ENDBRANCH  18  20
ENDBRANCH  17  18
TORSDOF 3
ENDMDL
MODEL 8
REMARK VINA RESULT:      -8.3      2.911      6.357
REMARK  3 active torsions:
REMARK  status: ('A' for Active; 'I' for Inactive)
REMARK    1  A    between atoms: C15_17  and  N2_18 
REMARK    2  A    between atoms: N2_18  and  C16_19 
REMARK    3  A    between atoms: C19_23  and  C20_24 
ROOT
HETATM    1  C1  UNL     1      17.344  -0.104  51.784  1.00  0.00     0.037 C 
HETATM    2  C2  UNL     1      18.794  -0.316  51.987  1.00  0.00    -0.019 C 
HETATM    3  C3  UNL     1      19.597   0.717  51.981  1.00  0.00    -0.031 C 
HETATM    4  C4  UNL     1      19.050   2.108  51.764  1.00  0.00     0.010 C 
HETATM    5  C5  UNL     1      19.691   3.320  51.796  1.00  0.00     0.002 C 
HETATM    6  C6  UNL     1      21.063   3.831  52.083  1.00  0.00     0.221 C 
HETATM    7  O1  UNL     1      21.924   2.923  52.700  1.00  0.00    -0.296 OA
HETATM    8  N1  UNL     1      22.714   2.238  51.904  1.00  0.00    -0.153 NA
HETATM    9  C7  UNL     1      23.933   1.761  52.646  1.00  0.00     0.163 C 
HETATM   10  C8  UNL     1      24.480   2.824  53.539  1.00  0.00     0.042 C 
HETATM   11  C9  UNL     1      23.525   0.552  53.358  1.00  0.00    -0.084 C 
HETATM   12  C10 UNL     1      23.189  -0.411  53.949  1.00  0.00    -0.095 C 
HETATM   13  C11 UNL     1      22.779  -1.544  54.677  1.00  0.00     0.107 C 
HETATM   14  C12 UNL     1      21.625  -1.273  54.126  1.00  0.00    -0.007 C 
HETATM   15  C13 UNL     1      20.894  -0.475  53.233  1.00  0.00     0.008 C 
HETATM   16  C14 UNL     1      21.033   0.463  52.277  1.00  0.00    -0.009 C 
HETATM   17  C15 UNL     1      22.171   0.991  51.461  1.00  0.00     0.236 C 
ENDROOT
BRANCH  17  18
HETATM   18  N2  UNL     1      21.869   1.070  50.025  1.00  0.00    -0.199 N 
HETATM   19  H17 UNL     1      21.337   0.378  49.426  1.00  0.00     0.180 HD
BRANCH  18  20
HETATM   20  C16 UNL     1      22.330   2.203  49.338  1.00  0.00     0.724 A 
HETATM   21  N3  UNL     1      21.519   2.679  48.348  1.00  0.00    -0.075 NA
HETATM   22  C17 UNL     1      22.027   3.806  47.725  1.00  0.00     0.139 A 
HETATM   23  C18 UNL     1      23.298   4.267  48.221  1.00  0.00     0.053 A 
HETATM   24  C19 UNL     1      24.201   3.781  49.286  1.00  0.00     0.089 A 
HETATM   25  N5  UNL     1      23.371   2.863  49.498  1.00  0.00    -0.062 NA
BRANCH  24  26
HETATM   26  C20 UNL     1      25.130   4.833  49.027  1.00  0.00     0.011 A 
HETATM   27  C21 UNL     1      25.331   6.162  48.812  1.00  0.00     0.017 A 
HETATM   28  C22 UNL     1      26.626   6.580  48.626  1.00  0.00     0.020 A 
HETATM   29  C23 UNL     1      27.749   5.799  48.635  1.00  0.00     0.116 A 
HETATM   30  N4  UNL     1      27.599   4.452  48.847  1.00  0.00    -0.272 NA
HETATM   31  C24 UNL     1      26.290   4.016  49.038  1.00  0.00     0.130 A 
ENDBRANCH  24  26
ENDBRANCH  18  20
ENDBRANCH  17  18
TORSDOF 3
ENDMDL
MODEL 9
REMARK VINA RESULT:      -8.3      2.546      7.244
REMARK  3 active torsions:
REMARK  status: ('A' for Active; 'I' for Inactive)
REMARK    1  A    between atoms: C15_17  and  N2_18 
REMARK    2  A    between atoms: N2_18  and  C16_19 
REMARK    3  A    between atoms: C19_23  and  C20_24 
ROOT
HETATM    1  C1  UNL     1      26.792   0.700  51.989  1.00  0.00     0.037 C 
HETATM    2  C2  UNL     1      26.505   1.730  50.966  1.00  0.00    -0.019 C 
HETATM    3  C3  UNL     1      25.572   2.618  51.198  1.00  0.00    -0.031 C 
HETATM    4  C4  UNL     1      24.794   2.587  52.493  1.00  0.00     0.010 C 
HETATM    5  C5  UNL     1      23.843   3.453  52.968  1.00  0.00     0.002 C 
HETATM    6  C6  UNL     1      23.209   4.734  52.540  1.00  0.00     0.221 C 
HETATM    7  O1  UNL     1      23.857   5.405  51.501  1.00  0.00    -0.296 OA
HETATM    8  N1  UNL     1      23.407   5.172  50.289  1.00  0.00    -0.153 NA
HETATM    9  C7  UNL     1      23.745   6.312  49.368  1.00  0.00     0.163 C 
HETATM   10  C8  UNL     1      23.524   7.632  50.027  1.00  0.00     0.042 C 
HETATM   11  C9  UNL     1      25.127   6.094  48.946  1.00  0.00    -0.084 C 
HETATM   12  C10 UNL     1      26.249   5.929  48.624  1.00  0.00    -0.095 C 
HETATM   13  C11 UNL     1      27.597   5.747  48.264  1.00  0.00     0.107 C 
HETATM   14  C12 UNL     1      27.492   4.705  49.047  1.00  0.00    -0.007 C 
HETATM   15  C13 UNL     1      26.667   3.901  49.848  1.00  0.00     0.008 C 
HETATM   16  C14 UNL     1      25.380   3.685  50.179  1.00  0.00    -0.009 C 
HETATM   17  C15 UNL     1      24.054   4.088  49.615  1.00  0.00     0.236 C 
ENDROOT
BRANCH  17  18
HETATM   18  N2  UNL     1      23.115   2.966  49.478  1.00  0.00    -0.199 N 
HETATM   19  H17 UNL     1      23.278   1.942  49.697  1.00  0.00     0.180 HD
BRANCH  18  20
HETATM   20  C16 UNL     1      21.828   3.264  49.005  1.00  0.00     0.724 A 
HETATM   21  N3  UNL     1      21.696   3.382  47.651  1.00  0.00    -0.075 NA
HETATM   22  C17 UNL     1      20.399   3.659  47.255  1.00  0.00     0.139 A 
HETATM   23  C18 UNL     1      19.438   3.772  48.321  1.00  0.00     0.053 A 
HETATM   24  C19 UNL     1      19.542   3.650  49.790  1.00  0.00     0.089 A 
HETATM   25  N5  UNL     1      20.767   3.425  49.632  1.00  0.00    -0.062 NA
BRANCH  24  26
HETATM   26  C20 UNL     1      18.147   3.908  49.947  1.00  0.00     0.011 A 
HETATM   27  C21 UNL     1      16.961   4.213  49.353  1.00  0.00     0.017 A 
HETATM   28  C22 UNL     1      15.858   4.312  50.165  1.00  0.00     0.020 A 
HETATM   29  C23 UNL     1      15.820   4.133  51.522  1.00  0.00     0.116 A 
HETATM   30  N4  UNL     1      16.991   3.825  52.167  1.00  0.00    -0.272 NA
HETATM   31  C24 UNL     1      18.116   3.722  51.353  1.00  0.00     0.130 A 
ENDBRANCH  24  26
ENDBRANCH  18  20
ENDBRANCH  17  18
TORSDOF 3
ENDMDL
