MODEL 1
REMARK VINA RESULT:      -8.8      0.000      0.000
REMARK  4 active torsions:
REMARK  status: ('A' for Active; 'I' for Inactive)
REMARK    1  A    between atoms: O1_2  and  C2_3 
REMARK    2  A    between atoms: C5_6  and  C6_7 
REMARK    3  A    between atoms: N2_11  and  C9_12 
REMARK    4  A    between atoms: C10_14  and  C11_15 
ROOT
HETATM    1  C6  UNL     1      24.022   3.788  50.070  1.00  0.00     0.139 C 
HETATM    2  C7  UNL     1      22.833   4.684  50.343  1.00  0.00     0.048 C 
HETATM    3  C8  UNL     1      23.222   5.347  51.630  1.00  0.00     0.113 C 
HETATM    4  N1  UNL     1      24.219   4.496  52.280  1.00  0.00    -0.235 NA
HETATM    5  N2  UNL     1      24.341   3.396  51.429  1.00  0.00    -0.281 N 
HETATM    6  H11 UNL     1      25.160   4.993  52.263  1.00  0.00     0.146 HD
ENDROOT
BRANCH   5   7
HETATM    7  C9  UNL     1      24.737   2.129  51.993  1.00  0.00     0.184 A 
HETATM    8  N3  UNL     1      25.708   1.520  52.116  1.00  0.00    -0.222 NA
HETATM    9  C10 UNL     1      25.794   0.324  52.703  1.00  0.00     0.076 A 
HETATM   10  C17 UNL     1      24.479  -0.240  53.237  1.00  0.00     0.085 A 
HETATM   11  S1  UNL     1      23.321   1.129  52.765  1.00  0.00    -0.060 SA
BRANCH   9  12
HETATM   12  C11 UNL     1      26.980  -0.492  52.890  1.00  0.00    -0.007 A 
HETATM   13  C12 UNL     1      27.052  -1.844  52.654  1.00  0.00     0.014 A 
HETATM   14  C13 UNL     1      28.218  -2.554  52.855  1.00  0.00     0.001 A 
HETATM   15  C14 UNL     1      29.367  -1.937  53.305  1.00  0.00     0.000 A 
HETATM   16  C15 UNL     1      29.343  -0.571  53.558  1.00  0.00     0.001 A 
HETATM   17  C16 UNL     1      28.148   0.079  53.336  1.00  0.00     0.014 A 
ENDBRANCH   9  12
ENDBRANCH   5   7
BRANCH   1  18
HETATM   18  C5  UNL     1      25.183   4.514  49.501  1.00  0.00    -0.034 A 
HETATM   19  C4  UNL     1      26.384   3.820  49.422  1.00  0.00     0.012 A 
HETATM   20  C3  UNL     1      27.521   4.409  48.907  1.00  0.00     0.037 A 
HETATM   21  C2  UNL     1      27.499   5.717  48.453  1.00  0.00     0.068 A 
HETATM   22  C19 UNL     1      26.303   6.421  48.528  1.00  0.00     0.037 A 
HETATM   23  C18 UNL     1      25.194   5.797  49.046  1.00  0.00     0.012 A 
BRANCH  21  24
HETATM   24  O1  UNL     1      28.612   6.357  47.928  1.00  0.00    -0.356 OA
HETATM   25  C1  UNL     1      29.932   5.863  48.133  1.00  0.00     0.210 C 
ENDBRANCH  21  24
ENDBRANCH   1  18
TORSDOF 4
ENDMDL
MODEL 2
REMARK VINA RESULT:      -8.6      2.643      6.866
REMARK  4 active torsions:
REMARK  status: ('A' for Active; 'I' for Inactive)
REMARK    1  A    between atoms: O1_2  and  C2_3 
REMARK    2  A    between atoms: C5_6  and  C6_7 
REMARK    3  A    between atoms: N2_11  and  C9_12 
REMARK    4  A    between atoms: C10_14  and  C11_15 
ROOT
HETATM    1  C6  UNL     1      23.701   2.091  52.528  1.00  0.00     0.139 C 
HETATM    2  C7  UNL     1      22.309   1.577  52.825  1.00  0.00     0.048 C 
HETATM    3  C8  UNL     1      21.952   0.868  51.553  1.00  0.00     0.113 C 
HETATM    4  N1  UNL     1      22.793   1.419  50.491  1.00  0.00    -0.235 NA
HETATM    5  N2  UNL     1      23.540   2.415  51.123  1.00  0.00    -0.281 N 
HETATM    6  H11 UNL     1      23.489   0.675  50.181  1.00  0.00     0.146 HD
ENDROOT
BRANCH   5   7
HETATM    7  C9  UNL     1      24.002   3.532  50.338  1.00  0.00     0.184 A 
HETATM    8  N3  UNL     1      25.010   3.948  49.962  1.00  0.00    -0.222 NA
HETATM    9  C10 UNL     1      25.157   5.048  49.220  1.00  0.00     0.076 A 
HETATM   10  C17 UNL     1      23.863   5.779  48.869  1.00  0.00     0.085 A 
HETATM   11  S1  UNL     1      22.628   4.685  49.717  1.00  0.00    -0.060 SA
BRANCH   9  12
HETATM   12  C11 UNL     1      26.390   5.623  48.715  1.00  0.00    -0.007 A 
HETATM   13  C12 UNL     1      26.520   6.896  48.215  1.00  0.00     0.014 A 
HETATM   14  C13 UNL     1      27.730   7.374  47.753  1.00  0.00     0.001 A 
HETATM   15  C14 UNL     1      28.866   6.591  47.770  1.00  0.00     0.000 A 
HETATM   16  C15 UNL     1      28.783   5.296  48.266  1.00  0.00     0.001 A 
HETATM   17  C16 UNL     1      27.547   4.881  48.713  1.00  0.00     0.014 A 
ENDBRANCH   9  12
ENDBRANCH   5   7
BRANCH   1  18
HETATM   18  C5  UNL     1      24.749   1.049  52.656  1.00  0.00    -0.034 A 
HETATM   19  C4  UNL     1      24.584   0.110  53.666  1.00  0.00     0.012 A 
HETATM   20  C3  UNL     1      25.505  -0.899  53.865  1.00  0.00     0.037 A 
HETATM   21  C2  UNL     1      26.626  -1.005  53.060  1.00  0.00     0.068 A 
HETATM   22  C19 UNL     1      26.801  -0.071  52.046  1.00  0.00     0.037 A 
HETATM   23  C18 UNL     1      25.860   0.917  51.881  1.00  0.00     0.012 A 
BRANCH  21  24
HETATM   24  O1  UNL     1      27.581  -1.998  53.217  1.00  0.00    -0.356 OA
HETATM   25  C1  UNL     1      28.974  -1.703  53.262  1.00  0.00     0.210 C 
ENDBRANCH  21  24
ENDBRANCH   1  18
TORSDOF 4
ENDMDL
MODEL 3
REMARK VINA RESULT:      -8.1      1.744      2.816
REMARK  4 active torsions:
REMARK  status: ('A' for Active; 'I' for Inactive)
REMARK    1  A    between atoms: O1_2  and  C2_3 
REMARK    2  A    between atoms: C5_6  and  C6_7 
REMARK    3  A    between atoms: N2_11  and  C9_12 
REMARK    4  A    between atoms: C10_14  and  C11_15 
ROOT
HETATM    1  C6  UNL     1      24.687   6.273  48.962  1.00  0.00     0.139 C 
HETATM    2  C7  UNL     1      24.012   7.624  49.052  1.00  0.00     0.048 C 
HETATM    3  C8  UNL     1      24.502   8.139  50.372  1.00  0.00     0.113 C 
HETATM    4  N1  UNL     1      24.918   6.984  51.168  1.00  0.00    -0.235 NA
HETATM    5  N2  UNL     1      24.629   5.884  50.357  1.00  0.00    -0.281 N 
HETATM    6  H11 UNL     1      25.977   7.004  51.277  1.00  0.00     0.146 HD
ENDROOT
BRANCH   5   7
HETATM    7  C9  UNL     1      24.337   4.621  50.988  1.00  0.00     0.184 A 
HETATM    8  N3  UNL     1      24.907   3.659  51.270  1.00  0.00    -0.222 NA
HETATM    9  C10 UNL     1      24.368   2.597  51.874  1.00  0.00     0.076 A 
HETATM   10  C17 UNL     1      22.880   2.712  52.197  1.00  0.00     0.085 A 
HETATM   11  S1  UNL     1      22.531   4.408  51.534  1.00  0.00    -0.060 SA
BRANCH   9  12
HETATM   12  C11 UNL     1      25.027   1.361  52.255  1.00  0.00    -0.007 A 
HETATM   13  C12 UNL     1      26.252   0.946  51.792  1.00  0.00     0.014 A 
HETATM   14  C13 UNL     1      26.817  -0.245  52.202  1.00  0.00     0.001 A 
HETATM   15  C14 UNL     1      26.173  -1.075  53.096  1.00  0.00     0.000 A 
HETATM   16  C15 UNL     1      24.932  -0.698  53.592  1.00  0.00     0.001 A 
HETATM   17  C16 UNL     1      24.425   0.504  53.144  1.00  0.00     0.014 A 
ENDBRANCH   9  12
ENDBRANCH   5   7
BRANCH   1  18
HETATM   18  C5  UNL     1      26.111   6.357  48.553  1.00  0.00    -0.034 A 
HETATM   19  C4  UNL     1      26.907   5.248  48.807  1.00  0.00     0.012 A 
HETATM   20  C3  UNL     1      28.244   5.229  48.463  1.00  0.00     0.037 A 
HETATM   21  C2  UNL     1      28.834   6.322  47.852  1.00  0.00     0.068 A 
HETATM   22  C19 UNL     1      28.047   7.437  47.593  1.00  0.00     0.037 A 
HETATM   23  C18 UNL     1      26.720   7.415  47.950  1.00  0.00     0.012 A 
BRANCH  21  24
HETATM   24  O1  UNL     1      30.171   6.356  47.487  1.00  0.00    -0.356 OA
HETATM   25  C1  UNL     1      31.079   7.307  48.036  1.00  0.00     0.210 C 
ENDBRANCH  21  24
ENDBRANCH   1  18
TORSDOF 4
ENDMDL
MODEL 4
REMARK VINA RESULT:      -8.1      1.949      3.276
REMARK  4 active torsions:
REMARK  status: ('A' for Active; 'I' for Inactive)
REMARK    1  A    between atoms: O1_2  and  C2_3 
REMARK    2  A    between atoms: C5_6  and  C6_7 
REMARK    3  A    between atoms: N2_11  and  C9_12 
REMARK    4  A    between atoms: C10_14  and  C11_15 
ROOT
HETATM    1  C6  UNL     1      25.607   6.601  48.529  1.00  0.00     0.139 C 
HETATM    2  C7  UNL     1      25.106   8.006  48.784  1.00  0.00     0.048 C 
HETATM    3  C8  UNL     1      25.574   8.263  50.184  1.00  0.00     0.113 C 
HETATM    4  N1  UNL     1      25.789   6.964  50.822  1.00  0.00    -0.235 NA
HETATM    5  N2  UNL     1      25.412   6.035  49.850  1.00  0.00    -0.281 N 
HETATM    6  H11 UNL     1      26.832   6.825  50.979  1.00  0.00     0.146 HD
ENDROOT
BRANCH   5   7
HETATM    7  C9  UNL     1      24.922   4.749  50.278  1.00  0.00     0.184 A 
HETATM    8  N3  UNL     1      25.327   3.830  50.845  1.00  0.00    -0.222 NA
HETATM    9  C10 UNL     1      24.627   2.727  51.117  1.00  0.00     0.076 A 
HETATM   10  C17 UNL     1      23.183   2.727  50.619  1.00  0.00     0.085 A 
HETATM   11  S1  UNL     1      23.114   4.397  49.817  1.00  0.00    -0.060 SA
BRANCH   9  12
HETATM   12  C11 UNL     1      25.075   1.541  51.824  1.00  0.00    -0.007 A 
HETATM   13  C12 UNL     1      24.297   0.785  52.668  1.00  0.00     0.014 A 
HETATM   14  C13 UNL     1      24.794  -0.333  53.306  1.00  0.00     0.001 A 
HETATM   15  C14 UNL     1      26.099  -0.744  53.125  1.00  0.00     0.000 A 
HETATM   16  C15 UNL     1      26.924  -0.012  52.280  1.00  0.00     0.001 A 
HETATM   17  C16 UNL     1      26.366   1.094  51.674  1.00  0.00     0.014 A 
ENDBRANCH   9  12
ENDBRANCH   5   7
BRANCH   1  18
HETATM   18  C5  UNL     1      27.053   6.546  48.199  1.00  0.00    -0.034 A 
HETATM   19  C4  UNL     1      27.734   5.385  48.542  1.00  0.00     0.012 A 
HETATM   20  C3  UNL     1      29.081   5.238  48.276  1.00  0.00     0.037 A 
HETATM   21  C2  UNL     1      29.796   6.250  47.656  1.00  0.00     0.068 A 
HETATM   22  C19 UNL     1      29.124   7.415  47.309  1.00  0.00     0.037 A 
HETATM   23  C18 UNL     1      27.783   7.520  47.591  1.00  0.00     0.012 A 
BRANCH  21  24
HETATM   24  O1  UNL     1      31.149   6.154  47.367  1.00  0.00    -0.356 OA
HETATM   25  C1  UNL     1      31.831   4.904  47.356  1.00  0.00     0.210 C 
ENDBRANCH  21  24
ENDBRANCH   1  18
TORSDOF 4
ENDMDL
MODEL 5
REMARK VINA RESULT:      -8.0      2.337      3.697
REMARK  4 active torsions:
REMARK  status: ('A' for Active; 'I' for Inactive)
REMARK    1  A    between atoms: O1_2  and  C2_3 
REMARK    2  A    between atoms: C5_6  and  C6_7 
REMARK    3  A    between atoms: N2_11  and  C9_12 
REMARK    4  A    between atoms: C10_14  and  C11_15 
ROOT
HETATM    1  C6  UNL     1      24.447   5.071  49.364  1.00  0.00     0.139 C 
HETATM    2  C7  UNL     1      23.521   6.261  49.493  1.00  0.00     0.048 C 
HETATM    3  C8  UNL     1      23.934   6.847  50.809  1.00  0.00     0.113 C 
HETATM    4  N1  UNL     1      24.592   5.788  51.575  1.00  0.00    -0.235 NA
HETATM    5  N2  UNL     1      24.504   4.662  50.754  1.00  0.00    -0.281 N 
HETATM    6  H11 UNL     1      25.628   6.016  51.660  1.00  0.00     0.146 HD
ENDROOT
BRANCH   5   7
HETATM    7  C9  UNL     1      24.483   3.359  51.371  1.00  0.00     0.184 A 
HETATM    8  N3  UNL     1      23.729   2.701  51.943  1.00  0.00    -0.222 NA
HETATM    9  C10 UNL     1      23.984   1.483  52.424  1.00  0.00     0.076 A 
HETATM   10  C17 UNL     1      25.398   0.962  52.174  1.00  0.00     0.085 A 
HETATM   11  S1  UNL     1      26.117   2.400  51.250  1.00  0.00    -0.060 SA
BRANCH   9  12
HETATM   12  C11 UNL     1      23.083   0.605  53.149  1.00  0.00    -0.007 A 
HETATM   13  C12 UNL     1      23.474  -0.459  53.925  1.00  0.00     0.014 A 
HETATM   14  C13 UNL     1      22.556  -1.250  54.586  1.00  0.00     0.001 A 
HETATM   15  C14 UNL     1      21.201  -1.007  54.497  1.00  0.00     0.000 A 
HETATM   16  C15 UNL     1      20.758   0.058  53.723  1.00  0.00     0.001 A 
HETATM   17  C16 UNL     1      21.725   0.809  53.090  1.00  0.00     0.014 A 
ENDBRANCH   9  12
ENDBRANCH   5   7
BRANCH   1  18
HETATM   18  C5  UNL     1      25.815   5.440  48.923  1.00  0.00    -0.034 A 
HETATM   19  C4  UNL     1      25.980   6.704  48.370  1.00  0.00     0.012 A 
HETATM   20  C3  UNL     1      27.214   7.140  47.931  1.00  0.00     0.037 A 
HETATM   21  C2  UNL     1      28.329   6.326  48.030  1.00  0.00     0.068 A 
HETATM   22  C19 UNL     1      28.176   5.060  48.582  1.00  0.00     0.037 A 
HETATM   23  C18 UNL     1      26.930   4.665  49.007  1.00  0.00     0.012 A 
BRANCH  21  24
HETATM   24  O1  UNL     1      29.591   6.714  47.604  1.00  0.00    -0.356 OA
HETATM   25  C1  UNL     1      30.722   5.854  47.715  1.00  0.00     0.210 C 
ENDBRANCH  21  24
ENDBRANCH   1  18
TORSDOF 4
ENDMDL
MODEL 6
REMARK VINA RESULT:      -7.8      2.592      3.600
REMARK  4 active torsions:
REMARK  status: ('A' for Active; 'I' for Inactive)
REMARK    1  A    between atoms: O1_2  and  C2_3 
REMARK    2  A    between atoms: C5_6  and  C6_7 
REMARK    3  A    between atoms: N2_11  and  C9_12 
REMARK    4  A    between atoms: C10_14  and  C11_15 
ROOT
HETATM    1  C6  UNL     1      23.726   4.631  50.630  1.00  0.00     0.139 C 
HETATM    2  C7  UNL     1      24.212   6.061  50.712  1.00  0.00     0.048 C 
HETATM    3  C8  UNL     1      25.555   5.981  50.052  1.00  0.00     0.113 C 
HETATM    4  N1  UNL     1      25.999   4.589  50.125  1.00  0.00    -0.235 NA
HETATM    5  N2  UNL     1      24.985   3.940  50.832  1.00  0.00    -0.281 N 
HETATM    6  H11 UNL     1      25.994   4.173  49.146  1.00  0.00     0.146 HD
ENDROOT
BRANCH   5   7
HETATM    7  C9  UNL     1      25.322   2.767  51.600  1.00  0.00     0.184 A 
HETATM    8  N3  UNL     1      26.264   2.140  51.826  1.00  0.00    -0.222 NA
HETATM    9  C10 UNL     1      26.295   1.056  52.603  1.00  0.00     0.076 A 
HETATM   10  C17 UNL     1      24.957   0.653  53.220  1.00  0.00     0.085 A 
HETATM   11  S1  UNL     1      23.863   1.979  52.524  1.00  0.00    -0.060 SA
BRANCH   9  12
HETATM   12  C11 UNL     1      27.440   0.226  52.927  1.00  0.00    -0.007 A 
HETATM   13  C12 UNL     1      27.465  -1.146  52.856  1.00  0.00     0.014 A 
HETATM   14  C13 UNL     1      28.596  -1.869  53.180  1.00  0.00     0.001 A 
HETATM   15  C14 UNL     1      29.755  -1.244  53.593  1.00  0.00     0.000 A 
HETATM   16  C15 UNL     1      29.777   0.142  53.681  1.00  0.00     0.001 A 
HETATM   17  C16 UNL     1      28.616   0.804  53.342  1.00  0.00     0.014 A 
ENDBRANCH   9  12
ENDBRANCH   5   7
BRANCH   1  18
HETATM   18  C5  UNL     1      23.197   4.268  49.293  1.00  0.00    -0.034 A 
HETATM   19  C4  UNL     1      22.829   5.314  48.456  1.00  0.00     0.012 A 
HETATM   20  C3  UNL     1      22.327   5.079  47.191  1.00  0.00     0.037 A 
HETATM   21  C2  UNL     1      22.174   3.787  46.718  1.00  0.00     0.068 A 
HETATM   22  C19 UNL     1      22.539   2.733  47.547  1.00  0.00     0.037 A 
HETATM   23  C18 UNL     1      23.035   3.011  48.798  1.00  0.00     0.012 A 
BRANCH  21  24
HETATM   24  O1  UNL     1      21.674   3.495  45.458  1.00  0.00    -0.356 OA
HETATM   25  C1  UNL     1      21.189   4.511  44.585  1.00  0.00     0.210 C 
ENDBRANCH  21  24
ENDBRANCH   1  18
TORSDOF 4
ENDMDL
MODEL 7
REMARK VINA RESULT:      -7.8      2.616      3.599
REMARK  4 active torsions:
REMARK  status: ('A' for Active; 'I' for Inactive)
REMARK    1  A    between atoms: O1_2  and  C2_3 
REMARK    2  A    between atoms: C5_6  and  C6_7 
REMARK    3  A    between atoms: N2_11  and  C9_12 
REMARK    4  A    between atoms: C10_14  and  C11_15 
ROOT
HETATM    1  C6  UNL     1      21.815   0.745  50.715  1.00  0.00     0.139 C 
HETATM    2  C7  UNL     1      20.309   0.633  50.816  1.00  0.00     0.048 C 
HETATM    3  C8  UNL     1      19.997   1.550  51.960  1.00  0.00     0.113 C 
HETATM    4  N1  UNL     1      21.216   1.689  52.757  1.00  0.00    -0.235 NA
HETATM    5  N2  UNL     1      22.141   0.857  52.123  1.00  0.00    -0.281 N 
HETATM    6  H11 UNL     1      21.586   2.682  52.652  1.00  0.00     0.146 HD
ENDROOT
BRANCH   5   7
HETATM    7  C9  UNL     1      23.200   0.278  52.911  1.00  0.00     0.184 A 
HETATM    8  N3  UNL     1      24.353   0.246  52.893  1.00  0.00    -0.222 NA
HETATM    9  C10 UNL     1      25.116  -0.392  53.783  1.00  0.00     0.076 A 
HETATM   10  C17 UNL     1      24.360  -1.120  54.892  1.00  0.00     0.085 A 
HETATM   11  S1  UNL     1      22.613  -0.726  54.412  1.00  0.00    -0.060 SA
BRANCH   9  12
HETATM   12  C11 UNL     1      26.565  -0.471  53.818  1.00  0.00    -0.007 A 
HETATM   13  C12 UNL     1      27.329  -1.287  53.019  1.00  0.00     0.014 A 
HETATM   14  C13 UNL     1      28.707  -1.307  53.109  1.00  0.00     0.001 A 
HETATM   15  C14 UNL     1      29.380  -0.507  54.010  1.00  0.00     0.000 A 
HETATM   16  C15 UNL     1      28.649   0.334  54.840  1.00  0.00     0.001 A 
HETATM   17  C16 UNL     1      27.278   0.307  54.698  1.00  0.00     0.014 A 
ENDBRANCH   9  12
ENDBRANCH   5   7
BRANCH   1  18
HETATM   18  C5  UNL     1      22.265   1.979  50.025  1.00  0.00    -0.034 A 
HETATM   19  C4  UNL     1      21.571   2.350  48.881  1.00  0.00     0.012 A 
HETATM   20  C3  UNL     1      21.913   3.483  48.170  1.00  0.00     0.037 A 
HETATM   21  C2  UNL     1      22.965   4.286  48.579  1.00  0.00     0.068 A 
HETATM   22  C19 UNL     1      23.665   3.924  49.723  1.00  0.00     0.037 A 
HETATM   23  C18 UNL     1      23.292   2.789  50.401  1.00  0.00     0.012 A 
BRANCH  21  24
HETATM   24  O1  UNL     1      23.351   5.434  47.902  1.00  0.00    -0.356 OA
HETATM   25  C1  UNL     1      24.391   6.279  48.383  1.00  0.00     0.210 C 
ENDBRANCH  21  24
ENDBRANCH   1  18
TORSDOF 4
ENDMDL
MODEL 8
REMARK VINA RESULT:      -7.7      4.465      7.031
REMARK  4 active torsions:
REMARK  status: ('A' for Active; 'I' for Inactive)
REMARK    1  A    between atoms: O1_2  and  C2_3 
REMARK    2  A    between atoms: C5_6  and  C6_7 
REMARK    3  A    between atoms: N2_11  and  C9_12 
REMARK    4  A    between atoms: C10_14  and  C11_15 
ROOT
HETATM    1  C6  UNL     1      23.790   2.221  50.837  1.00  0.00     0.139 C 
HETATM    2  C7  UNL     1      24.390   3.529  50.369  1.00  0.00     0.048 C 
HETATM    3  C8  UNL     1      24.163   4.426  51.549  1.00  0.00     0.113 C 
HETATM    4  N1  UNL     1      23.065   3.856  52.329  1.00  0.00    -0.235 NA
HETATM    5  N2  UNL     1      22.667   2.734  51.599  1.00  0.00    -0.281 N 
HETATM    6  H11 UNL     1      23.450   3.491  53.252  1.00  0.00     0.146 HD
ENDROOT
BRANCH   5   7
HETATM    7  C9  UNL     1      21.300   2.291  51.707  1.00  0.00     0.184 A 
HETATM    8  N3  UNL     1      20.738   1.331  52.013  1.00  0.00    -0.222 NA
HETATM    9  C10 UNL     1      19.412   1.188  52.020  1.00  0.00     0.076 A 
HETATM   10  C17 UNL     1      18.617   2.416  51.582  1.00  0.00     0.085 A 
HETATM   11  S1  UNL     1      20.005   3.593  51.226  1.00  0.00    -0.060 SA
BRANCH   9  12
HETATM   12  C11 UNL     1      18.645   0.013  52.394  1.00  0.00    -0.007 A 
HETATM   13  C12 UNL     1      17.382  -0.281  51.941  1.00  0.00     0.014 A 
HETATM   14  C13 UNL     1      16.715  -1.421  52.341  1.00  0.00     0.001 A 
HETATM   15  C14 UNL     1      17.288  -2.319  53.218  1.00  0.00     0.000 A 
HETATM   16  C15 UNL     1      18.565  -2.064  53.704  1.00  0.00     0.001 A 
HETATM   17  C16 UNL     1      19.176  -0.909  53.264  1.00  0.00     0.014 A 
ENDBRANCH   9  12
ENDBRANCH   5   7
BRANCH   1  18
HETATM   18  C5  UNL     1      24.678   1.465  51.754  1.00  0.00    -0.034 A 
HETATM   19  C4  UNL     1      26.045   1.570  51.536  1.00  0.00     0.012 A 
HETATM   20  C3  UNL     1      26.953   0.905  52.336  1.00  0.00     0.037 A 
HETATM   21  C2  UNL     1      26.524   0.109  53.384  1.00  0.00     0.068 A 
HETATM   22  C19 UNL     1      25.158  -0.003  53.611  1.00  0.00     0.037 A 
HETATM   23  C18 UNL     1      24.288   0.676  52.792  1.00  0.00     0.012 A 
BRANCH  21  24
HETATM   24  O1  UNL     1      27.392  -0.581  54.217  1.00  0.00    -0.356 OA
HETATM   25  C1  UNL     1      28.537   0.040  54.794  1.00  0.00     0.210 C 
ENDBRANCH  21  24
ENDBRANCH   1  18
TORSDOF 4
ENDMDL
MODEL 9
REMARK VINA RESULT:      -7.7      3.603      4.385
REMARK  4 active torsions:
REMARK  status: ('A' for Active; 'I' for Inactive)
REMARK    1  A    between atoms: O1_2  and  C2_3 
REMARK    2  A    between atoms: C5_6  and  C6_7 
REMARK    3  A    between atoms: N2_11  and  C9_12 
REMARK    4  A    between atoms: C10_14  and  C11_15 
ROOT
HETATM    1  C6  UNL     1      21.692   0.551  51.023  1.00  0.00     0.139 C 
HETATM    2  C7  UNL     1      20.397   0.346  51.779  1.00  0.00     0.048 C 
HETATM    3  C8  UNL     1      20.253   1.639  52.524  1.00  0.00     0.113 C 
HETATM    4  N1  UNL     1      21.584   2.238  52.625  1.00  0.00    -0.235 NA
HETATM    5  N2  UNL     1      22.429   1.308  52.016  1.00  0.00    -0.281 N 
HETATM    6  H11 UNL     1      21.616   3.112  52.018  1.00  0.00     0.146 HD
ENDROOT
BRANCH   5   7
HETATM    7  C9  UNL     1      23.806   1.248  52.439  1.00  0.00     0.184 A 
HETATM    8  N3  UNL     1      24.646   0.460  52.490  1.00  0.00    -0.222 NA
HETATM    9  C10 UNL     1      25.881   0.683  52.946  1.00  0.00     0.076 A 
HETATM   10  C17 UNL     1      26.154   2.106  53.426  1.00  0.00     0.085 A 
HETATM   11  S1  UNL     1      24.500   2.881  53.113  1.00  0.00    -0.060 SA
BRANCH   9  12
HETATM   12  C11 UNL     1      26.980  -0.261  53.036  1.00  0.00    -0.007 A 
HETATM   13  C12 UNL     1      28.246   0.043  53.477  1.00  0.00     0.014 A 
HETATM   14  C13 UNL     1      29.241  -0.911  53.535  1.00  0.00     0.001 A 
HETATM   15  C14 UNL     1      29.011  -2.216  53.151  1.00  0.00     0.000 A 
HETATM   16  C15 UNL     1      27.746  -2.571  52.698  1.00  0.00     0.001 A 
HETATM   17  C16 UNL     1      26.797  -1.571  52.665  1.00  0.00     0.014 A 
ENDBRANCH   9  12
ENDBRANCH   5   7
BRANCH   1  18
HETATM   18  C5  UNL     1      21.535   1.389  49.809  1.00  0.00    -0.034 A 
HETATM   19  C4  UNL     1      22.682   1.985  49.302  1.00  0.00     0.012 A 
HETATM   20  C3  UNL     1      22.639   2.782  48.175  1.00  0.00     0.037 A 
HETATM   21  C2  UNL     1      21.443   3.013  47.515  1.00  0.00     0.068 A 
HETATM   22  C19 UNL     1      20.289   2.421  48.015  1.00  0.00     0.037 A 
HETATM   23  C18 UNL     1      20.377   1.634  49.138  1.00  0.00     0.012 A 
BRANCH  21  24
HETATM   24  O1  UNL     1      21.344   3.806  46.382  1.00  0.00    -0.356 OA
HETATM   25  C1  UNL     1      21.968   5.083  46.298  1.00  0.00     0.210 C 
ENDBRANCH  21  24
ENDBRANCH   1  18
TORSDOF 4
ENDMDL
