MODEL 1
REMARK VINA RESULT:      -7.5      0.000      0.000
REMARK  9 active torsions:
REMARK  status: ('A' for Active; 'I' for Inactive)
REMARK    1  A    between atoms: C3_3  and  N1_4 
REMARK    2  A    between atoms: N1_4  and  C4_5 
REMARK    3  A    between atoms: C12_15  and  C13_16 
REMARK    4  A    between atoms: C13_16  and  C14_17 
REMARK    5  A    between atoms: C15_18  and  N3_19 
REMARK       I    between atoms: N3_19  and  C16_20 
REMARK    6  A    between atoms: C16_20  and  C17_22 
REMARK    7  A    between atoms: C17_22  and  C18_23 
REMARK    8  A    between atoms: C18_23  and  C19_24 
REMARK    9  A    between atoms: C19_24  and  N4_25 
ROOT
HETATM    1  C1  UNL     1      24.106   1.738  51.809  1.00  0.00     0.048 C 
HETATM    2  C2  UNL     1      23.451   2.082  50.744  1.00  0.00    -0.002 A 
HETATM    3  C3  UNL     1      23.961   3.060  49.931  1.00  0.00     0.042 A 
HETATM    4  C10 UNL     1      23.227   3.389  48.819  1.00  0.00     0.049 A 
HETATM    5  C11 UNL     1      22.046   2.726  48.591  1.00  0.00     0.119 A 
HETATM    6  N2  UNL     1      21.592   1.776  49.419  1.00  0.00    -0.261 NA
HETATM    7  C12 UNL     1      22.274   1.412  50.532  1.00  0.00     0.065 A 
ENDROOT
BRANCH   7   8
HETATM    8  C13 UNL     1      21.749   0.467  51.284  1.00  0.00     0.033 C 
BRANCH   8   9
HETATM    9  C14 UNL     1      20.552   0.593  52.095  1.00  0.00     0.019 C 
HETATM   10  C15 UNL     1      20.659   0.469  53.405  1.00  0.00     0.091 C 
BRANCH  10  11
HETATM   11  N3  UNL     1      21.971   0.219  53.894  1.00  0.00    -0.337 N 
HETATM   12  C16 UNL     1      22.334  -0.863  54.706  1.00  0.00     0.221 C 
HETATM   13  O1  UNL     1      21.631  -1.808  55.165  1.00  0.00    -0.273 OA
HETATM   14  H13 UNL     1      22.817   0.824  53.695  1.00  0.00     0.168 HD
BRANCH  12  15
HETATM   15  C17 UNL     1      23.656  -1.215  55.265  1.00  0.00     0.105 C 
BRANCH  15  16
HETATM   16  C18 UNL     1      24.728  -0.763  54.314  1.00  0.00     0.039 C 
BRANCH  16  17
HETATM   17  C19 UNL     1      25.889  -0.176  55.087  1.00  0.00     0.271 C 
BRANCH  17  18
HETATM   18  N4  UNL     1      26.964   0.149  54.167  1.00  0.00     0.080 N 
HETATM   19  C20 UNL     1      28.246   0.046  54.824  1.00  0.00     0.309 C 
HETATM   20  C21 UNL     1      26.976  -0.746  53.025  1.00  0.00     0.309 C 
ENDBRANCH  17  18
ENDBRANCH  16  17
ENDBRANCH  15  16
ENDBRANCH  12  15
ENDBRANCH  10  11
ENDBRANCH   8   9
ENDBRANCH   7   8
BRANCH   3  21
HETATM   21  N1  UNL     1      25.199   3.641  50.287  1.00  0.00    -0.356 N 
HETATM   22  H3  UNL     1      25.738   3.263  51.084  1.00  0.00     0.166 HD
BRANCH  21  23
HETATM   23  C4  UNL     1      25.923   4.719  49.740  1.00  0.00     0.033 A 
HETATM   24  C5  UNL     1      27.071   4.545  48.968  1.00  0.00     0.029 A 
HETATM   25  C6  UNL     1      27.815   5.543  48.389  1.00  0.00     0.004 A 
HETATM   26  C7  UNL     1      27.387   6.837  48.592  1.00  0.00     0.019 A 
HETATM   27  C8  UNL     1      26.274   7.114  49.332  1.00  0.00     0.013 A 
HETATM   28 BR1  UNL     1      25.726   8.921  49.580  1.00  0.00    -0.051 Br
HETATM   29  C9  UNL     1      25.586   6.049  49.876  1.00  0.00     0.048 A 
ENDBRANCH  21  23
ENDBRANCH   3  21
TORSDOF 9
ENDMDL
MODEL 2
REMARK VINA RESULT:      -7.4      3.483      6.447
REMARK  9 active torsions:
REMARK  status: ('A' for Active; 'I' for Inactive)
REMARK    1  A    between atoms: C3_3  and  N1_4 
REMARK    2  A    between atoms: N1_4  and  C4_5 
REMARK    3  A    between atoms: C12_15  and  C13_16 
REMARK    4  A    between atoms: C13_16  and  C14_17 
REMARK    5  A    between atoms: C15_18  and  N3_19 
REMARK       I    between atoms: N3_19  and  C16_20 
REMARK    6  A    between atoms: C16_20  and  C17_22 
REMARK    7  A    between atoms: C17_22  and  C18_23 
REMARK    8  A    between atoms: C18_23  and  C19_24 
REMARK    9  A    between atoms: C19_24  and  N4_25 
ROOT
HETATM    1  C1  UNL     1      22.869   3.502  52.015  1.00  0.00     0.048 C 
HETATM    2  C2  UNL     1      22.654   2.981  50.847  1.00  0.00    -0.002 A 
HETATM    3  C3  UNL     1      21.630   2.082  50.693  1.00  0.00     0.042 A 
HETATM    4  C10 UNL     1      21.448   1.558  49.438  1.00  0.00     0.049 A 
HETATM    5  C11 UNL     1      22.287   1.962  48.429  1.00  0.00     0.119 A 
HETATM    6  N2  UNL     1      23.274   2.844  48.633  1.00  0.00    -0.261 NA
HETATM    7  C12 UNL     1      23.501   3.393  49.851  1.00  0.00     0.065 A 
ENDROOT
BRANCH   7   8
HETATM    8  C13 UNL     1      24.492   4.253  49.955  1.00  0.00     0.033 C 
BRANCH   8   9
HETATM    9  C14 UNL     1      25.849   4.047  49.481  1.00  0.00     0.019 C 
HETATM   10  C15 UNL     1      26.703   3.411  50.263  1.00  0.00     0.091 C 
BRANCH  10  11
HETATM   11  N3  UNL     1      26.186   2.986  51.519  1.00  0.00    -0.337 N 
HETATM   12  C16 UNL     1      26.187   1.664  51.981  1.00  0.00     0.221 C 
HETATM   13  O1  UNL     1      26.616   0.609  51.433  1.00  0.00    -0.273 OA
HETATM   14  H13 UNL     1      25.747   3.623  52.240  1.00  0.00     0.168 HD
BRANCH  12  15
HETATM   15  C17 UNL     1      25.682   1.117  53.258  1.00  0.00     0.105 C 
BRANCH  15  16
HETATM   16  C18 UNL     1      26.504  -0.083  53.638  1.00  0.00     0.039 C 
BRANCH  16  17
HETATM   17  C19 UNL     1      27.256   0.194  54.921  1.00  0.00     0.271 C 
BRANCH  17  18
HETATM   18  N4  UNL     1      28.683   0.095  54.672  1.00  0.00     0.080 N 
HETATM   19  C20 UNL     1      28.957  -0.894  53.657  1.00  0.00     0.309 C 
HETATM   20  C21 UNL     1      29.234   1.360  54.222  1.00  0.00     0.309 C 
ENDBRANCH  17  18
ENDBRANCH  16  17
ENDBRANCH  15  16
ENDBRANCH  12  15
ENDBRANCH  10  11
ENDBRANCH   8   9
ENDBRANCH   7   8
BRANCH   3  21
HETATM   21  N1  UNL     1      20.840   1.777  51.823  1.00  0.00    -0.356 N 
HETATM   22  H3  UNL     1      20.163   2.470  52.185  1.00  0.00     0.166 HD
BRANCH  21  23
HETATM   23  C4  UNL     1      20.765   0.628  52.635  1.00  0.00     0.033 A 
HETATM   24  C5  UNL     1      21.830   0.184  53.419  1.00  0.00     0.029 A 
HETATM   25  C6  UNL     1      21.824  -0.912  54.246  1.00  0.00     0.004 A 
HETATM   26  C7  UNL     1      20.657  -1.641  54.306  1.00  0.00     0.019 A 
HETATM   27  C8  UNL     1      19.556  -1.289  53.579  1.00  0.00     0.013 A 
HETATM   28 BR1  UNL     1      17.967  -2.333  53.700  1.00  0.00    -0.051 Br
HETATM   29  C9  UNL     1      19.651  -0.173  52.774  1.00  0.00     0.048 A 
ENDBRANCH  21  23
ENDBRANCH   3  21
TORSDOF 9
ENDMDL
MODEL 3
REMARK VINA RESULT:      -7.3      4.629      8.486
REMARK  9 active torsions:
REMARK  status: ('A' for Active; 'I' for Inactive)
REMARK    1  A    between atoms: C3_3  and  N1_4 
REMARK    2  A    between atoms: N1_4  and  C4_5 
REMARK    3  A    between atoms: C12_15  and  C13_16 
REMARK    4  A    between atoms: C13_16  and  C14_17 
REMARK    5  A    between atoms: C15_18  and  N3_19 
REMARK       I    between atoms: N3_19  and  C16_20 
REMARK    6  A    between atoms: C16_20  and  C17_22 
REMARK    7  A    between atoms: C17_22  and  C18_23 
REMARK    8  A    between atoms: C18_23  and  C19_24 
REMARK    9  A    between atoms: C19_24  and  N4_25 
ROOT
HETATM    1  C1  UNL     1      26.298   3.458  49.650  1.00  0.00     0.048 C 
HETATM    2  C2  UNL     1      25.400   3.786  50.526  1.00  0.00    -0.002 A 
HETATM    3  C3  UNL     1      25.111   2.918  51.547  1.00  0.00     0.042 A 
HETATM    4  C10 UNL     1      24.151   3.312  52.444  1.00  0.00     0.049 A 
HETATM    5  C11 UNL     1      23.548   4.534  52.268  1.00  0.00     0.119 A 
HETATM    6  N2  UNL     1      23.868   5.345  51.251  1.00  0.00    -0.261 NA
HETATM    7  C12 UNL     1      24.807   5.007  50.335  1.00  0.00     0.065 A 
ENDROOT
BRANCH   7   8
HETATM    8  C13 UNL     1      25.055   5.871  49.372  1.00  0.00     0.033 C 
BRANCH   8   9
HETATM    9  C14 UNL     1      25.208   7.305  49.536  1.00  0.00     0.019 C 
HETATM   10  C15 UNL     1      26.427   7.812  49.569  1.00  0.00     0.091 C 
BRANCH  10  11
HETATM   11  N3  UNL     1      27.487   6.872  49.437  1.00  0.00    -0.337 N 
HETATM   12  C16 UNL     1      28.257   6.685  48.283  1.00  0.00     0.221 C 
HETATM   13  O1  UNL     1      28.197   7.266  47.162  1.00  0.00    -0.273 OA
HETATM   14  H13 UNL     1      27.810   6.212  50.200  1.00  0.00     0.168 HD
BRANCH  12  15
HETATM   15  C17 UNL     1      29.372   5.746  48.040  1.00  0.00     0.105 C 
BRANCH  15  16
HETATM   16  C18 UNL     1      30.619   6.530  47.745  1.00  0.00     0.039 C 
BRANCH  16  17
HETATM   17  C19 UNL     1      31.126   7.187  49.010  1.00  0.00     0.271 C 
BRANCH  17  18
HETATM   18  N4  UNL     1      31.427   8.582  48.740  1.00  0.00     0.080 N 
HETATM   19  C20 UNL     1      31.427   8.838  47.319  1.00  0.00     0.309 C 
HETATM   20  C21 UNL     1      30.451   9.464  49.351  1.00  0.00     0.309 C 
ENDBRANCH  17  18
ENDBRANCH  16  17
ENDBRANCH  15  16
ENDBRANCH  12  15
ENDBRANCH  10  11
ENDBRANCH   8   9
ENDBRANCH   7   8
BRANCH   3  21
HETATM   21  N1  UNL     1      25.828   1.702  51.606  1.00  0.00    -0.356 N 
HETATM   22  H3  UNL     1      25.535   0.898  51.025  1.00  0.00     0.166 HD
BRANCH  21  23
HETATM   23  C4  UNL     1      26.959   1.313  52.351  1.00  0.00     0.033 A 
HETATM   24  C5  UNL     1      27.732   2.215  53.079  1.00  0.00     0.029 A 
HETATM   25  C6  UNL     1      28.833   1.907  53.840  1.00  0.00     0.004 A 
HETATM   26  C7  UNL     1      29.208   0.583  53.887  1.00  0.00     0.019 A 
HETATM   27  C8  UNL     1      28.516  -0.380  53.210  1.00  0.00     0.013 A 
HETATM   28 BR1  UNL     1      29.077  -2.197  53.309  1.00  0.00    -0.051 Br
HETATM   29  C9  UNL     1      27.422   0.019  52.470  1.00  0.00     0.048 A 
ENDBRANCH  21  23
ENDBRANCH   3  21
TORSDOF 9
ENDMDL
MODEL 4
REMARK VINA RESULT:      -7.3      4.975      8.812
REMARK  9 active torsions:
REMARK  status: ('A' for Active; 'I' for Inactive)
REMARK    1  A    between atoms: C3_3  and  N1_4 
REMARK    2  A    between atoms: N1_4  and  C4_5 
REMARK    3  A    between atoms: C12_15  and  C13_16 
REMARK    4  A    between atoms: C13_16  and  C14_17 
REMARK    5  A    between atoms: C15_18  and  N3_19 
REMARK       I    between atoms: N3_19  and  C16_20 
REMARK    6  A    between atoms: C16_20  and  C17_22 
REMARK    7  A    between atoms: C17_22  and  C18_23 
REMARK    8  A    between atoms: C18_23  and  C19_24 
REMARK    9  A    between atoms: C19_24  and  N4_25 
ROOT
HETATM    1  C1  UNL     1      26.558   3.184  49.526  1.00  0.00     0.048 C 
HETATM    2  C2  UNL     1      25.797   4.144  49.949  1.00  0.00    -0.002 A 
HETATM    3  C3  UNL     1      24.786   3.859  50.831  1.00  0.00     0.042 A 
HETATM    4  C10 UNL     1      24.008   4.911  51.245  1.00  0.00     0.049 A 
HETATM    5  C11 UNL     1      24.287   6.165  50.761  1.00  0.00     0.119 A 
HETATM    6  N2  UNL     1      25.288   6.390  49.900  1.00  0.00    -0.261 NA
HETATM    7  C12 UNL     1      26.087   5.390  49.456  1.00  0.00     0.065 A 
ENDROOT
BRANCH   7   8
HETATM    8  C13 UNL     1      27.046   5.708  48.612  1.00  0.00     0.033 C 
BRANCH   8   9
HETATM    9  C14 UNL     1      27.349   7.045  48.135  1.00  0.00     0.019 C 
HETATM   10  C15 UNL     1      28.580   7.503  48.273  1.00  0.00     0.091 C 
BRANCH  10  11
HETATM   11  N3  UNL     1      29.502   6.612  48.891  1.00  0.00    -0.337 N 
HETATM   12  C16 UNL     1      30.890   6.787  48.922  1.00  0.00     0.221 C 
HETATM   13  O1  UNL     1      31.606   7.712  48.443  1.00  0.00    -0.273 OA
HETATM   14  H13 UNL     1      29.236   5.720  49.397  1.00  0.00     0.168 HD
BRANCH  12  15
HETATM   15  C17 UNL     1      31.930   5.931  49.531  1.00  0.00     0.105 C 
BRANCH  15  16
HETATM   16  C18 UNL     1      32.839   5.418  48.450  1.00  0.00     0.039 C 
BRANCH  16  17
HETATM   17  C19 UNL     1      32.189   4.250  47.742  1.00  0.00     0.271 C 
BRANCH  17  18
HETATM   18  N4  UNL     1      33.211   3.459  47.080  1.00  0.00     0.080 N 
HETATM   19  C20 UNL     1      34.473   3.574  47.771  1.00  0.00     0.309 C 
HETATM   20  C21 UNL     1      32.852   2.053  47.039  1.00  0.00     0.309 C 
ENDBRANCH  17  18
ENDBRANCH  16  17
ENDBRANCH  15  16
ENDBRANCH  12  15
ENDBRANCH  10  11
ENDBRANCH   8   9
ENDBRANCH   7   8
BRANCH   3  21
HETATM   21  N1  UNL     1      24.633   2.519  51.252  1.00  0.00    -0.356 N 
HETATM   22  H3  UNL     1      25.463   1.956  51.502  1.00  0.00     0.166 HD
BRANCH  21  23
HETATM   23  C4  UNL     1      23.489   1.714  51.424  1.00  0.00     0.033 A 
HETATM   24  C5  UNL     1      22.524   1.547  50.432  1.00  0.00     0.029 A 
HETATM   25  C6  UNL     1      21.399   0.767  50.521  1.00  0.00     0.004 A 
HETATM   26  C7  UNL     1      21.205   0.084  51.702  1.00  0.00     0.019 A 
HETATM   27  C8  UNL     1      22.093   0.178  52.735  1.00  0.00     0.013 A 
HETATM   28 BR1  UNL     1      21.778  -0.787  54.347  1.00  0.00    -0.051 Br
HETATM   29  C9  UNL     1      23.198   0.986  52.559  1.00  0.00     0.048 A 
ENDBRANCH  21  23
ENDBRANCH   3  21
TORSDOF 9
ENDMDL
MODEL 5
REMARK VINA RESULT:      -7.2      4.868      8.725
REMARK  9 active torsions:
REMARK  status: ('A' for Active; 'I' for Inactive)
REMARK    1  A    between atoms: C3_3  and  N1_4 
REMARK    2  A    between atoms: N1_4  and  C4_5 
REMARK    3  A    between atoms: C12_15  and  C13_16 
REMARK    4  A    between atoms: C13_16  and  C14_17 
REMARK    5  A    between atoms: C15_18  and  N3_19 
REMARK       I    between atoms: N3_19  and  C16_20 
REMARK    6  A    between atoms: C16_20  and  C17_22 
REMARK    7  A    between atoms: C17_22  and  C18_23 
REMARK    8  A    between atoms: C18_23  and  C19_24 
REMARK    9  A    between atoms: C19_24  and  N4_25 
ROOT
HETATM    1  C1  UNL     1      26.402   2.951  49.397  1.00  0.00     0.048 C 
HETATM    2  C2  UNL     1      25.679   3.873  49.952  1.00  0.00    -0.002 A 
HETATM    3  C3  UNL     1      24.669   3.510  50.806  1.00  0.00     0.042 A 
HETATM    4  C10 UNL     1      23.932   4.524  51.363  1.00  0.00     0.049 A 
HETATM    5  C11 UNL     1      24.247   5.821  51.039  1.00  0.00     0.119 A 
HETATM    6  N2  UNL     1      25.245   6.122  50.198  1.00  0.00    -0.261 NA
HETATM    7  C12 UNL     1      26.005   5.162  49.617  1.00  0.00     0.065 A 
ENDROOT
BRANCH   7   8
HETATM    8  C13 UNL     1      26.965   5.555  48.805  1.00  0.00     0.033 C 
BRANCH   8   9
HETATM    9  C14 UNL     1      27.213   6.920  48.381  1.00  0.00     0.019 C 
HETATM   10  C15 UNL     1      28.454   7.372  48.394  1.00  0.00     0.091 C 
BRANCH  10  11
HETATM   11  N3  UNL     1      29.440   6.446  48.834  1.00  0.00    -0.337 N 
HETATM   12  C16 UNL     1      30.821   6.671  48.810  1.00  0.00     0.221 C 
HETATM   13  O1  UNL     1      31.475   7.679  48.418  1.00  0.00    -0.273 OA
HETATM   14  H13 UNL     1      29.235   5.485  49.231  1.00  0.00     0.168 HD
BRANCH  12  15
HETATM   15  C17 UNL     1      31.924   5.786  49.239  1.00  0.00     0.105 C 
BRANCH  15  16
HETATM   16  C18 UNL     1      32.925   5.671  48.123  1.00  0.00     0.039 C 
BRANCH  16  17
HETATM   17  C19 UNL     1      32.580   4.491  47.241  1.00  0.00     0.271 C 
BRANCH  17  18
HETATM   18  N4  UNL     1      33.172   3.287  47.794  1.00  0.00     0.080 N 
HETATM   19  C20 UNL     1      32.797   2.130  47.016  1.00  0.00     0.309 C 
HETATM   20  C21 UNL     1      34.621   3.364  47.807  1.00  0.00     0.309 C 
ENDBRANCH  17  18
ENDBRANCH  16  17
ENDBRANCH  15  16
ENDBRANCH  12  15
ENDBRANCH  10  11
ENDBRANCH   8   9
ENDBRANCH   7   8
BRANCH   3  21
HETATM   21  N1  UNL     1      24.476   2.133  51.056  1.00  0.00    -0.356 N 
HETATM   22  H3  UNL     1      24.010   1.538  50.349  1.00  0.00     0.166 HD
BRANCH  21  23
HETATM   23  C4  UNL     1      24.813   1.322  52.157  1.00  0.00     0.033 A 
HETATM   24  C5  UNL     1      23.893   0.490  52.795  1.00  0.00     0.029 A 
HETATM   25  C6  UNL     1      24.153  -0.338  53.858  1.00  0.00     0.004 A 
HETATM   26  C7  UNL     1      25.443  -0.349  54.340  1.00  0.00     0.019 A 
HETATM   27  C8  UNL     1      26.419   0.427  53.784  1.00  0.00     0.013 A 
HETATM   28 BR1  UNL     1      28.188   0.374  54.488  1.00  0.00    -0.051 Br
HETATM   29  C9  UNL     1      26.069   1.230  52.718  1.00  0.00     0.048 A 
ENDBRANCH  21  23
ENDBRANCH   3  21
TORSDOF 9
ENDMDL
MODEL 6
REMARK VINA RESULT:      -7.2      3.631      6.383
REMARK  9 active torsions:
REMARK  status: ('A' for Active; 'I' for Inactive)
REMARK    1  A    between atoms: C3_3  and  N1_4 
REMARK    2  A    between atoms: N1_4  and  C4_5 
REMARK    3  A    between atoms: C12_15  and  C13_16 
REMARK    4  A    between atoms: C13_16  and  C14_17 
REMARK    5  A    between atoms: C15_18  and  N3_19 
REMARK       I    between atoms: N3_19  and  C16_20 
REMARK    6  A    between atoms: C16_20  and  C17_22 
REMARK    7  A    between atoms: C17_22  and  C18_23 
REMARK    8  A    between atoms: C18_23  and  C19_24 
REMARK    9  A    between atoms: C19_24  and  N4_25 
ROOT
HETATM    1  C1  UNL     1      22.365   1.036  52.279  1.00  0.00     0.048 C 
HETATM    2  C2  UNL     1      22.587   0.257  53.291  1.00  0.00    -0.002 A 
HETATM    3  C3  UNL     1      23.874  -0.115  53.580  1.00  0.00     0.042 A 
HETATM    4  C10 UNL     1      24.054  -0.944  54.659  1.00  0.00     0.049 A 
HETATM    5  C11 UNL     1      22.950  -1.341  55.373  1.00  0.00     0.119 A 
HETATM    6  N2  UNL     1      21.712  -0.948  55.048  1.00  0.00    -0.261 NA
HETATM    7  C12 UNL     1      21.475  -0.132  53.992  1.00  0.00     0.065 A 
ENDROOT
BRANCH   7   8
HETATM    8  C13 UNL     1      20.225   0.202  53.751  1.00  0.00     0.033 C 
BRANCH   8   9
HETATM    9  C14 UNL     1      19.234  -0.630  53.094  1.00  0.00     0.019 C 
HETATM   10  C15 UNL     1      18.461  -0.086  52.172  1.00  0.00     0.091 C 
BRANCH  10  11
HETATM   11  N3  UNL     1      18.688   1.296  51.917  1.00  0.00    -0.337 N 
HETATM   12  C16 UNL     1      19.117   1.827  50.696  1.00  0.00     0.221 C 
HETATM   13  O1  UNL     1      19.386   1.247  49.605  1.00  0.00    -0.273 OA
HETATM   14  H13 UNL     1      18.555   2.072  52.625  1.00  0.00     0.168 HD
BRANCH  12  15
HETATM   15  C17 UNL     1      19.382   3.233  50.325  1.00  0.00     0.105 C 
BRANCH  15  16
HETATM   16  C18 UNL     1      20.064   3.924  51.472  1.00  0.00     0.039 C 
BRANCH  16  17
HETATM   17  C19 UNL     1      21.071   4.923  50.947  1.00  0.00     0.271 C 
BRANCH  17  18
HETATM   18  N4  UNL     1      22.414   4.422  51.180  1.00  0.00     0.080 N 
HETATM   19  C20 UNL     1      23.002   3.947  49.950  1.00  0.00     0.309 C 
HETATM   20  C21 UNL     1      23.281   5.453  51.718  1.00  0.00     0.309 C 
ENDBRANCH  17  18
ENDBRANCH  16  17
ENDBRANCH  15  16
ENDBRANCH  12  15
ENDBRANCH  10  11
ENDBRANCH   8   9
ENDBRANCH   7   8
BRANCH   3  21
HETATM   21  N1  UNL     1      24.910   0.389  52.761  1.00  0.00    -0.356 N 
HETATM   22  H3  UNL     1      24.724   0.613  51.769  1.00  0.00     0.166 HD
BRANCH  21  23
HETATM   23  C4  UNL     1      26.262   0.682  53.030  1.00  0.00     0.033 A 
HETATM   24  C5  UNL     1      26.729   1.978  53.240  1.00  0.00     0.029 A 
HETATM   25  C6  UNL     1      28.023   2.336  53.524  1.00  0.00     0.004 A 
HETATM   26  C7  UNL     1      28.947   1.318  53.609  1.00  0.00     0.019 A 
HETATM   27  C8  UNL     1      28.591   0.013  53.423  1.00  0.00     0.013 A 
HETATM   28 BR1  UNL     1      29.908  -1.357  53.553  1.00  0.00    -0.051 Br
HETATM   29  C9  UNL     1      27.267  -0.256  53.141  1.00  0.00     0.048 A 
ENDBRANCH  21  23
ENDBRANCH   3  21
TORSDOF 9
ENDMDL
MODEL 7
REMARK VINA RESULT:      -7.0      3.696      8.206
REMARK  9 active torsions:
REMARK  status: ('A' for Active; 'I' for Inactive)
REMARK    1  A    between atoms: C3_3  and  N1_4 
REMARK    2  A    between atoms: N1_4  and  C4_5 
REMARK    3  A    between atoms: C12_15  and  C13_16 
REMARK    4  A    between atoms: C13_16  and  C14_17 
REMARK    5  A    between atoms: C15_18  and  N3_19 
REMARK       I    between atoms: N3_19  and  C16_20 
REMARK    6  A    between atoms: C16_20  and  C17_22 
REMARK    7  A    between atoms: C17_22  and  C18_23 
REMARK    8  A    between atoms: C18_23  and  C19_24 
REMARK    9  A    between atoms: C19_24  and  N4_25 
ROOT
HETATM    1  C1  UNL     1      22.692   1.217  52.121  1.00  0.00     0.048 C 
HETATM    2  C2  UNL     1      22.991   0.412  53.092  1.00  0.00    -0.002 A 
HETATM    3  C3  UNL     1      22.001  -0.012  53.940  1.00  0.00     0.042 A 
HETATM    4  C10 UNL     1      22.372  -0.860  54.953  1.00  0.00     0.049 A 
HETATM    5  C11 UNL     1      23.691  -1.228  55.052  1.00  0.00     0.119 A 
HETATM    6  N2  UNL     1      24.620  -0.784  54.196  1.00  0.00    -0.261 NA
HETATM    7  C12 UNL     1      24.312   0.056  53.178  1.00  0.00     0.065 A 
ENDROOT
BRANCH   7   8
HETATM    8  C13 UNL     1      25.292   0.437  52.386  1.00  0.00     0.033 C 
BRANCH   8   9
HETATM    9  C14 UNL     1      26.562   0.995  52.814  1.00  0.00     0.019 C 
HETATM   10  C15 UNL     1      26.879   2.217  52.427  1.00  0.00     0.091 C 
BRANCH  10  11
HETATM   11  N3  UNL     1      25.915   2.872  51.610  1.00  0.00    -0.337 N 
HETATM   12  C16 UNL     1      26.189   3.492  50.385  1.00  0.00     0.221 C 
HETATM   13  O1  UNL     1      27.281   3.609  49.757  1.00  0.00    -0.273 OA
HETATM   14  H13 UNL     1      24.885   2.960  51.839  1.00  0.00     0.168 HD
BRANCH  12  15
HETATM   15  C17 UNL     1      25.273   4.195  49.463  1.00  0.00     0.105 C 
BRANCH  15  16
HETATM   16  C18 UNL     1      23.911   3.565  49.549  1.00  0.00     0.039 C 
BRANCH  16  17
HETATM   17  C19 UNL     1      22.854   4.639  49.689  1.00  0.00     0.271 C 
BRANCH  17  18
HETATM   18  N4  UNL     1      22.090   4.406  50.901  1.00  0.00     0.080 N 
HETATM   19  C20 UNL     1      22.751   4.994  52.042  1.00  0.00     0.309 C 
HETATM   20  C21 UNL     1      20.761   4.983  50.811  1.00  0.00     0.309 C 
ENDBRANCH  17  18
ENDBRANCH  16  17
ENDBRANCH  15  16
ENDBRANCH  12  15
ENDBRANCH  10  11
ENDBRANCH   8   9
ENDBRANCH   7   8
BRANCH   3  21
HETATM   21  N1  UNL     1      20.684   0.441  53.700  1.00  0.00    -0.356 N 
HETATM   22  H3  UNL     1      20.426   1.420  53.910  1.00  0.00     0.166 HD
BRANCH  21  23
HETATM   23  C4  UNL     1      19.545  -0.212  53.189  1.00  0.00     0.033 A 
HETATM   24  C5  UNL     1      18.957  -1.311  53.814  1.00  0.00     0.029 A 
HETATM   25  C6  UNL     1      17.840  -1.984  53.386  1.00  0.00     0.004 A 
HETATM   26  C7  UNL     1      17.244  -1.530  52.230  1.00  0.00     0.019 A 
HETATM   27  C8  UNL     1      17.741  -0.460  51.543  1.00  0.00     0.013 A 
HETATM   28 BR1  UNL     1      16.877   0.127  49.949  1.00  0.00    -0.051 Br
HETATM   29  C9  UNL     1      18.868   0.157  52.046  1.00  0.00     0.048 A 
ENDBRANCH  21  23
ENDBRANCH   3  21
TORSDOF 9
ENDMDL
MODEL 8
REMARK VINA RESULT:      -7.0      5.013      8.818
REMARK  9 active torsions:
REMARK  status: ('A' for Active; 'I' for Inactive)
REMARK    1  A    between atoms: C3_3  and  N1_4 
REMARK    2  A    between atoms: N1_4  and  C4_5 
REMARK    3  A    between atoms: C12_15  and  C13_16 
REMARK    4  A    between atoms: C13_16  and  C14_17 
REMARK    5  A    between atoms: C15_18  and  N3_19 
REMARK       I    between atoms: N3_19  and  C16_20 
REMARK    6  A    between atoms: C16_20  and  C17_22 
REMARK    7  A    between atoms: C17_22  and  C18_23 
REMARK    8  A    between atoms: C18_23  and  C19_24 
REMARK    9  A    between atoms: C19_24  and  N4_25 
ROOT
HETATM    1  C1  UNL     1      26.289   2.968  49.348  1.00  0.00     0.048 C 
HETATM    2  C2  UNL     1      25.568   3.883  49.917  1.00  0.00    -0.002 A 
HETATM    3  C3  UNL     1      24.502   3.510  50.693  1.00  0.00     0.042 A 
HETATM    4  C10 UNL     1      23.771   4.518  51.270  1.00  0.00     0.049 A 
HETATM    5  C11 UNL     1      24.147   5.818  51.039  1.00  0.00     0.119 A 
HETATM    6  N2  UNL     1      25.200   6.129  50.271  1.00  0.00    -0.261 NA
HETATM    7  C12 UNL     1      25.957   5.175  49.676  1.00  0.00     0.065 A 
ENDROOT
BRANCH   7   8
HETATM    8  C13 UNL     1      26.973   5.577  48.941  1.00  0.00     0.033 C 
BRANCH   8   9
HETATM    9  C14 UNL     1      27.058   6.837  48.225  1.00  0.00     0.019 C 
HETATM   10  C15 UNL     1      28.233   7.429  48.123  1.00  0.00     0.091 C 
BRANCH  10  11
HETATM   11  N3  UNL     1      29.319   6.751  48.744  1.00  0.00    -0.337 N 
HETATM   12  C16 UNL     1      30.611   7.270  48.893  1.00  0.00     0.221 C 
HETATM   13  O1  UNL     1      31.086   8.386  48.538  1.00  0.00    -0.273 OA
HETATM   14  H13 UNL     1      29.267   5.779  49.161  1.00  0.00     0.168 HD
BRANCH  12  15
HETATM   15  C17 UNL     1      31.803   6.656  49.516  1.00  0.00     0.105 C 
BRANCH  15  16
HETATM   16  C18 UNL     1      32.114   5.364  48.813  1.00  0.00     0.039 C 
BRANCH  16  17
HETATM   17  C19 UNL     1      33.478   5.446  48.165  1.00  0.00     0.271 C 
BRANCH  17  18
HETATM   18  N4  UNL     1      33.666   4.301  47.292  1.00  0.00     0.080 N 
HETATM   19  C20 UNL     1      34.671   3.412  47.825  1.00  0.00     0.309 C 
HETATM   20  C21 UNL     1      32.438   3.543  47.138  1.00  0.00     0.309 C 
ENDBRANCH  17  18
ENDBRANCH  16  17
ENDBRANCH  15  16
ENDBRANCH  12  15
ENDBRANCH  10  11
ENDBRANCH   8   9
ENDBRANCH   7   8
BRANCH   3  21
HETATM   21  N1  UNL     1      24.247   2.129  50.851  1.00  0.00    -0.356 N 
HETATM   22  H3  UNL     1      23.832   1.586  50.075  1.00  0.00     0.166 HD
BRANCH  21  23
HETATM   23  C4  UNL     1      24.459   1.252  51.934  1.00  0.00     0.033 A 
HETATM   24  C5  UNL     1      25.728   0.933  52.413  1.00  0.00     0.029 A 
HETATM   25  C6  UNL     1      26.009   0.105  53.471  1.00  0.00     0.004 A 
HETATM   26  C7  UNL     1      24.936  -0.464  54.119  1.00  0.00     0.019 A 
HETATM   27  C8  UNL     1      23.652  -0.214  53.729  1.00  0.00     0.013 A 
HETATM   28 BR1  UNL     1      22.202  -1.026  54.662  1.00  0.00    -0.051 Br
HETATM   29  C9  UNL     1      23.461   0.632  52.656  1.00  0.00     0.048 A 
ENDBRANCH  21  23
ENDBRANCH   3  21
TORSDOF 9
ENDMDL
MODEL 9
REMARK VINA RESULT:      -7.0      3.292      6.516
REMARK  9 active torsions:
REMARK  status: ('A' for Active; 'I' for Inactive)
REMARK    1  A    between atoms: C3_3  and  N1_4 
REMARK    2  A    between atoms: N1_4  and  C4_5 
REMARK    3  A    between atoms: C12_15  and  C13_16 
REMARK    4  A    between atoms: C13_16  and  C14_17 
REMARK    5  A    between atoms: C15_18  and  N3_19 
REMARK       I    between atoms: N3_19  and  C16_20 
REMARK    6  A    between atoms: C16_20  and  C17_22 
REMARK    7  A    between atoms: C17_22  and  C18_23 
REMARK    8  A    between atoms: C18_23  and  C19_24 
REMARK    9  A    between atoms: C19_24  and  N4_25 
ROOT
HETATM    1  C1  UNL     1      22.424   1.792  49.281  1.00  0.00     0.048 C 
HETATM    2  C2  UNL     1      22.283   2.862  50.000  1.00  0.00    -0.002 A 
HETATM    3  C3  UNL     1      21.135   3.033  50.728  1.00  0.00     0.042 A 
HETATM    4  C10 UNL     1      21.036   4.184  51.469  1.00  0.00     0.049 A 
HETATM    5  C11 UNL     1      22.078   5.078  51.438  1.00  0.00     0.119 A 
HETATM    6  N2  UNL     1      23.180   4.862  50.709  1.00  0.00    -0.261 NA
HETATM    7  C12 UNL     1      23.331   3.744  49.957  1.00  0.00     0.065 A 
ENDROOT
BRANCH   7   8
HETATM    8  C13 UNL     1      24.451   3.619  49.275  1.00  0.00     0.033 C 
BRANCH   8   9
HETATM    9  C14 UNL     1      25.680   4.353  49.516  1.00  0.00     0.019 C 
HETATM   10  C15 UNL     1      26.679   3.734  50.118  1.00  0.00     0.091 C 
BRANCH  10  11
HETATM   11  N3  UNL     1      26.436   2.379  50.476  1.00  0.00    -0.337 N 
HETATM   12  C16 UNL     1      25.973   1.948  51.725  1.00  0.00     0.221 C 
HETATM   13  O1  UNL     1      25.682   2.614  52.760  1.00  0.00    -0.273 OA
HETATM   14  H13 UNL     1      26.577   1.548  49.835  1.00  0.00     0.168 HD
BRANCH  12  15
HETATM   15  C17 UNL     1      25.690   0.577  52.200  1.00  0.00     0.105 C 
BRANCH  15  16
HETATM   16  C18 UNL     1      26.988  -0.121  52.489  1.00  0.00     0.039 C 
BRANCH  16  17
HETATM   17  C19 UNL     1      27.201  -0.214  53.984  1.00  0.00     0.271 C 
BRANCH  17  18
HETATM   18  N4  UNL     1      28.605   0.002  54.285  1.00  0.00     0.080 N 
HETATM   19  C20 UNL     1      29.439  -0.846  53.467  1.00  0.00     0.309 C 
HETATM   20  C21 UNL     1      28.995   1.378  54.042  1.00  0.00     0.309 C 
ENDBRANCH  17  18
ENDBRANCH  16  17
ENDBRANCH  15  16
ENDBRANCH  12  15
ENDBRANCH  10  11
ENDBRANCH   8   9
ENDBRANCH   7   8
BRANCH   3  21
HETATM   21  N1  UNL     1      20.156   2.016  50.673  1.00  0.00    -0.356 N 
HETATM   22  H3  UNL     1      19.535   1.938  49.850  1.00  0.00     0.166 HD
BRANCH  21  23
HETATM   23  C4  UNL     1      19.815   0.990  51.576  1.00  0.00     0.033 A 
HETATM   24  C5  UNL     1      18.566   0.370  51.581  1.00  0.00     0.029 A 
HETATM   25  C6  UNL     1      18.171  -0.645  52.417  1.00  0.00     0.004 A 
HETATM   26  C7  UNL     1      19.094  -1.091  53.337  1.00  0.00     0.019 A 
HETATM   27  C8  UNL     1      20.345  -0.551  53.412  1.00  0.00     0.013 A 
HETATM   28 BR1  UNL     1      21.584  -1.206  54.703  1.00  0.00    -0.051 Br
HETATM   29  C9  UNL     1      20.658   0.466  52.533  1.00  0.00     0.048 A 
ENDBRANCH  21  23
ENDBRANCH   3  21
TORSDOF 9
ENDMDL
