MODEL 1
REMARK VINA RESULT:      -9.9      0.000      0.000
REMARK  3 active torsions:
REMARK  status: ('A' for Active; 'I' for Inactive)
REMARK    1  A    between atoms: C12_13  and  N1_14 
REMARK    2  A    between atoms: C14_16  and  C15_17 
REMARK    3  A    between atoms: C17_20  and  C18_21 
ROOT
HETATM    1  C1  UNL     1      17.896  -1.392  53.368  1.00  0.00     0.045 C 
HETATM    2  C2  UNL     1      18.571  -0.466  52.440  1.00  0.00    -0.065 C 
HETATM    3  C3  UNL     1      17.784   0.053  51.491  1.00  0.00     0.070 C 
HETATM    4  C4  UNL     1      18.250   0.948  50.535  1.00  0.00    -0.048 C 
HETATM    5  C5  UNL     1      18.654   1.681  49.751  1.00  0.00     0.059 C 
HETATM    6  O1  UNL     1      19.145   2.524  48.848  1.00  0.00    -0.303 OA
HETATM    7  C6  UNL     1      20.221   3.407  49.317  1.00  0.00     0.188 C 
HETATM    8  C7  UNL     1      21.248   2.403  49.805  1.00  0.00     0.028 C 
HETATM    9  C8  UNL     1      22.469   2.959  50.415  1.00  0.00     0.006 C 
HETATM   10  C9  UNL     1      23.424   1.881  50.897  1.00  0.00     0.028 C 
HETATM   11  C10 UNL     1      22.939   0.982  51.909  1.00  0.00    -0.009 C 
HETATM   12  C11 UNL     1      22.350   0.175  52.765  1.00  0.00     0.032 A 
HETATM   13  C12 UNL     1      23.445  -0.123  53.534  1.00  0.00     0.141 A 
HETATM   14  N2  UNL     1      23.426  -0.928  54.608  1.00  0.00    -0.224 NA
HETATM   15  C19 UNL     1      22.276  -1.479  54.965  1.00  0.00     0.235 A 
HETATM   16  N3  UNL     1      21.215  -1.181  54.210  1.00  0.00    -0.245 NA
HETATM   17  C20 UNL     1      21.185  -0.397  53.143  1.00  0.00     0.059 A 
HETATM   18  C21 UNL     1      19.905  -0.520  52.919  1.00  0.00     0.082 C 
ENDROOT
BRANCH  13  19
HETATM   19  N1  UNL     1      24.611   0.535  53.034  1.00  0.00    -0.343 N 
HETATM   20  C13 UNL     1      25.629  -0.281  52.848  1.00  0.00     0.028 A 
HETATM   21  C14 UNL     1      26.673  -0.179  53.443  1.00  0.00    -0.018 A 
HETATM   22  C18 UNL     1      26.817  -1.208  52.649  1.00  0.00     0.083 A 
HETATM   23  H14 UNL     1      24.825   1.517  52.777  1.00  0.00     0.167 HD
BRANCH  21  24
HETATM   24  C15 UNL     1      27.616  -0.107  53.965  1.00  0.00    -0.018 A 
HETATM   25  C16 UNL     1      28.625  -0.047  54.503  1.00  0.00     0.177 A 
HETATM   26  F1  UNL     1      29.821  -0.628  54.385  1.00  0.00    -0.233 F 
HETATM   27  C17 UNL     1      28.275  -0.993  53.244  1.00  0.00     0.081 A 
ENDBRANCH  21  24
ENDBRANCH  13  19
TORSDOF 3
ENDMDL
MODEL 2
REMARK VINA RESULT:      -9.8      3.821      5.829
REMARK  3 active torsions:
REMARK  status: ('A' for Active; 'I' for Inactive)
REMARK    1  A    between atoms: C12_13  and  N1_14 
REMARK    2  A    between atoms: C14_16  and  C15_17 
REMARK    3  A    between atoms: C17_20  and  C18_21 
ROOT
HETATM    1  C1  UNL     1      24.919  -1.050  55.450  1.00  0.00     0.045 C 
HETATM    2  C2  UNL     1      23.886  -0.595  54.501  1.00  0.00    -0.065 C 
HETATM    3  C3  UNL     1      22.667  -1.103  54.711  1.00  0.00     0.070 C 
HETATM    4  C4  UNL     1      21.571  -0.781  53.919  1.00  0.00    -0.048 C 
HETATM    5  C5  UNL     1      20.680  -0.507  53.250  1.00  0.00     0.059 C 
HETATM    6  O1  UNL     1      19.663  -0.181  52.459  1.00  0.00    -0.303 OA
HETATM    7  C6  UNL     1      19.684   1.186  51.922  1.00  0.00     0.188 C 
HETATM    8  C7  UNL     1      21.021   1.211  51.204  1.00  0.00     0.028 C 
HETATM    9  C8  UNL     1      21.406   2.491  50.583  1.00  0.00     0.006 C 
HETATM   10  C9  UNL     1      22.768   2.427  49.912  1.00  0.00     0.028 C 
HETATM   11  C10 UNL     1      23.896   2.124  50.751  1.00  0.00    -0.009 C 
HETATM   12  C11 UNL     1      24.827   1.753  51.603  1.00  0.00     0.032 A 
HETATM   13  C12 UNL     1      25.873   2.459  51.067  1.00  0.00     0.141 A 
HETATM   14  N2  UNL     1      27.120   2.468  51.562  1.00  0.00    -0.224 NA
HETATM   15  C19 UNL     1      27.376   1.750  52.645  1.00  0.00     0.235 A 
HETATM   16  N3  UNL     1      26.350   1.067  53.160  1.00  0.00    -0.245 NA
HETATM   17  C20 UNL     1      25.106   1.026  52.708  1.00  0.00     0.059 A 
HETATM   18  C21 UNL     1      24.648   0.235  53.640  1.00  0.00     0.082 C 
ENDROOT
BRANCH  13  19
HETATM   19  N1  UNL     1      25.455   3.181  49.907  1.00  0.00    -0.343 N 
HETATM   20  C13 UNL     1      26.424   3.882  49.353  1.00  0.00     0.028 A 
HETATM   21  C14 UNL     1      26.400   5.083  49.260  1.00  0.00    -0.018 A 
HETATM   22  C18 UNL     1      27.530   4.710  48.718  1.00  0.00     0.083 A 
HETATM   23  H14 UNL     1      24.553   3.265  49.400  1.00  0.00     0.167 HD
BRANCH  21  24
HETATM   24  C15 UNL     1      26.399   6.160  49.167  1.00  0.00    -0.018 A 
HETATM   25  C16 UNL     1      26.416   7.300  49.054  1.00  0.00     0.177 A 
HETATM   26  F1  UNL     1      27.171   8.196  48.415  1.00  0.00    -0.233 F 
HETATM   27  C17 UNL     1      27.449   6.261  48.376  1.00  0.00     0.081 A 
ENDBRANCH  21  24
ENDBRANCH  13  19
TORSDOF 3
ENDMDL
MODEL 3
REMARK VINA RESULT:      -9.6      1.860      3.879
REMARK  3 active torsions:
REMARK  status: ('A' for Active; 'I' for Inactive)
REMARK    1  A    between atoms: C12_13  and  N1_14 
REMARK    2  A    between atoms: C14_16  and  C15_17 
REMARK    3  A    between atoms: C17_20  and  C18_21 
ROOT
HETATM    1  C1  UNL     1      19.102   2.484  48.830  1.00  0.00     0.045 C 
HETATM    2  C2  UNL     1      19.132   1.603  50.013  1.00  0.00    -0.065 C 
HETATM    3  C3  UNL     1      17.947   1.092  50.363  1.00  0.00     0.070 C 
HETATM    4  C4  UNL     1      17.788   0.239  51.449  1.00  0.00    -0.048 C 
HETATM    5  C5  UNL     1      17.675  -0.460  52.352  1.00  0.00     0.059 C 
HETATM    6  O1  UNL     1      17.567  -1.263  53.405  1.00  0.00    -0.303 OA
HETATM    7  C6  UNL     1      18.722  -2.131  53.669  1.00  0.00     0.188 C 
HETATM    8  C7  UNL     1      19.839  -1.115  53.814  1.00  0.00     0.028 C 
HETATM    9  C8  UNL     1      21.193  -1.657  54.032  1.00  0.00     0.006 C 
HETATM   10  C9  UNL     1      22.247  -0.568  54.139  1.00  0.00     0.028 C 
HETATM   11  C10 UNL     1      22.422   0.287  52.996  1.00  0.00    -0.009 C 
HETATM   12  C11 UNL     1      22.423   1.052  51.926  1.00  0.00     0.032 A 
HETATM   13  C12 UNL     1      23.760   1.357  51.907  1.00  0.00     0.141 A 
HETATM   14  N2  UNL     1      24.354   2.128  50.983  1.00  0.00    -0.224 NA
HETATM   15  C19 UNL     1      23.610   2.639  50.013  1.00  0.00     0.235 A 
HETATM   16  N3  UNL     1      22.310   2.335  50.040  1.00  0.00    -0.245 NA
HETATM   17  C20 UNL     1      21.680   1.582  50.929  1.00  0.00     0.059 A 
HETATM   18  C21 UNL     1      20.500   1.678  50.379  1.00  0.00     0.082 C 
ENDROOT
BRANCH  13  19
HETATM   19  N1  UNL     1      24.435   0.744  53.008  1.00  0.00    -0.343 N 
HETATM   20  C13 UNL     1      25.732   0.614  52.815  1.00  0.00     0.028 A 
HETATM   21  C14 UNL     1      26.289  -0.455  52.775  1.00  0.00    -0.018 A 
HETATM   22  C18 UNL     1      27.226   0.438  52.594  1.00  0.00     0.083 A 
HETATM   23  H14 UNL     1      24.125   0.388  53.932  1.00  0.00     0.167 HD
BRANCH  21  24
HETATM   24  C15 UNL     1      26.807  -1.402  52.734  1.00  0.00    -0.018 A 
HETATM   25  C16 UNL     1      27.377  -2.395  52.699  1.00  0.00     0.177 A 
HETATM   26  F1  UNL     1      28.626  -2.803  52.935  1.00  0.00    -0.233 F 
HETATM   27  C17 UNL     1      27.992  -0.961  53.107  1.00  0.00     0.081 A 
ENDBRANCH  21  24
ENDBRANCH  13  19
TORSDOF 3
ENDMDL
MODEL 4
REMARK VINA RESULT:      -9.5      2.006      4.399
REMARK  3 active torsions:
REMARK  status: ('A' for Active; 'I' for Inactive)
REMARK    1  A    between atoms: C12_13  and  N1_14 
REMARK    2  A    between atoms: C14_16  and  C15_17 
REMARK    3  A    between atoms: C17_20  and  C18_21 
ROOT
HETATM    1  C1  UNL     1      22.474   4.488  47.868  1.00  0.00     0.045 C 
HETATM    2  C2  UNL     1      21.992   3.608  48.949  1.00  0.00    -0.065 C 
HETATM    3  C3  UNL     1      20.664   3.458  49.001  1.00  0.00     0.070 C 
HETATM    4  C4  UNL     1      20.034   2.662  49.950  1.00  0.00    -0.048 C 
HETATM    5  C5  UNL     1      19.531   2.004  50.745  1.00  0.00     0.059 C 
HETATM    6  O1  UNL     1      18.970   1.243  51.678  1.00  0.00    -0.303 OA
HETATM    7  C6  UNL     1      19.747   0.068  52.096  1.00  0.00     0.188 C 
HETATM    8  C7  UNL     1      21.043   0.709  52.559  1.00  0.00     0.028 C 
HETATM    9  C8  UNL     1      22.106  -0.212  53.001  1.00  0.00     0.006 C 
HETATM   10  C9  UNL     1      23.371   0.518  53.419  1.00  0.00     0.028 C 
HETATM   11  C10 UNL     1      24.030   1.312  52.417  1.00  0.00    -0.009 C 
HETATM   12  C11 UNL     1      24.484   2.070  51.443  1.00  0.00     0.032 A 
HETATM   13  C12 UNL     1      25.821   1.970  51.728  1.00  0.00     0.141 A 
HETATM   14  N2  UNL     1      26.798   2.557  51.018  1.00  0.00    -0.224 NA
HETATM   15  C19 UNL     1      26.463   3.287  49.964  1.00  0.00     0.235 A 
HETATM   16  N3  UNL     1      25.157   3.377  49.696  1.00  0.00    -0.245 NA
HETATM   17  C20 UNL     1      24.160   2.819  50.365  1.00  0.00     0.059 A 
HETATM   18  C21 UNL     1      23.208   3.270  49.594  1.00  0.00     0.082 C 
ENDROOT
BRANCH  13  19
HETATM   19  N1  UNL     1      26.034   1.160  52.885  1.00  0.00    -0.343 N 
HETATM   20  C13 UNL     1      27.270   1.219  53.341  1.00  0.00     0.028 A 
HETATM   21  C14 UNL     1      28.002   0.262  53.388  1.00  0.00    -0.018 A 
HETATM   22  C18 UNL     1      28.697   1.262  53.862  1.00  0.00     0.083 A 
HETATM   23  H14 UNL     1      25.422   0.542  53.451  1.00  0.00     0.167 HD
BRANCH  21  24
HETATM   24  C15 UNL     1      28.674  -0.582  53.438  1.00  0.00    -0.018 A 
HETATM   25  C16 UNL     1      29.405  -1.463  53.499  1.00  0.00     0.177 A 
HETATM   26  F1  UNL     1      30.694  -1.630  53.802  1.00  0.00    -0.233 F 
HETATM   27  C17 UNL     1      29.751   0.083  53.807  1.00  0.00     0.081 A 
ENDBRANCH  21  24
ENDBRANCH  13  19
TORSDOF 3
ENDMDL
MODEL 5
REMARK VINA RESULT:      -9.4      3.709      5.605
REMARK  3 active torsions:
REMARK  status: ('A' for Active; 'I' for Inactive)
REMARK    1  A    between atoms: C12_13  and  N1_14 
REMARK    2  A    between atoms: C14_16  and  C15_17 
REMARK    3  A    between atoms: C17_20  and  C18_21 
ROOT
HETATM    1  C1  UNL     1      17.951   0.631  50.041  1.00  0.00     0.045 C 
HETATM    2  C2  UNL     1      18.991   0.346  51.048  1.00  0.00    -0.065 C 
HETATM    3  C3  UNL     1      18.593  -0.430  52.062  1.00  0.00     0.070 C 
HETATM    4  C4  UNL     1      19.440  -0.805  53.098  1.00  0.00    -0.048 C 
HETATM    5  C5  UNL     1      20.153  -1.100  53.947  1.00  0.00     0.059 C 
HETATM    6  O1  UNL     1      20.994  -1.424  54.925  1.00  0.00    -0.303 OA
HETATM    7  C6  UNL     1      22.399  -1.585  54.530  1.00  0.00     0.188 C 
HETATM    8  C7  UNL     1      22.701  -0.230  53.918  1.00  0.00     0.028 C 
HETATM    9  C8  UNL     1      24.049  -0.057  53.346  1.00  0.00     0.006 C 
HETATM   10  C9  UNL     1      24.249   1.319  52.733  1.00  0.00     0.028 C 
HETATM   11  C10 UNL     1      23.386   1.681  51.641  1.00  0.00    -0.009 C 
HETATM   12  C11 UNL     1      22.483   1.924  50.716  1.00  0.00     0.032 A 
HETATM   13  C12 UNL     1      23.251   2.712  49.898  1.00  0.00     0.141 A 
HETATM   14  N2  UNL     1      22.828   3.254  48.745  1.00  0.00    -0.224 NA
HETATM   15  C19 UNL     1      21.584   3.020  48.355  1.00  0.00     0.235 A 
HETATM   16  N3  UNL     1      20.845   2.251  49.160  1.00  0.00    -0.245 NA
HETATM   17  C20 UNL     1      21.216   1.697  50.303  1.00  0.00     0.059 A 
HETATM   18  C21 UNL     1      20.081   1.097  50.539  1.00  0.00     0.082 C 
ENDROOT
BRANCH  13  19
HETATM   19  N1  UNL     1      24.562   2.881  50.442  1.00  0.00    -0.343 N 
HETATM   20  C13 UNL     1      25.039   4.099  50.280  1.00  0.00     0.028 A 
HETATM   21  C14 UNL     1      26.027   4.340  49.634  1.00  0.00    -0.018 A 
HETATM   22  C18 UNL     1      25.608   5.495  50.080  1.00  0.00     0.083 A 
HETATM   23  H14 UNL     1      25.216   2.253  50.945  1.00  0.00     0.167 HD
BRANCH  21  24
HETATM   24  C15 UNL     1      26.911   4.579  49.059  1.00  0.00    -0.018 A 
HETATM   25  C16 UNL     1      27.840   4.854  48.448  1.00  0.00     0.177 A 
HETATM   26  F1  UNL     1      28.314   5.948  47.849  1.00  0.00    -0.233 F 
HETATM   27  C17 UNL     1      26.630   5.847  48.838  1.00  0.00     0.081 A 
ENDBRANCH  21  24
ENDBRANCH  13  19
TORSDOF 3
ENDMDL
MODEL 6
REMARK VINA RESULT:      -9.3      3.284      6.838
REMARK  3 active torsions:
REMARK  status: ('A' for Active; 'I' for Inactive)
REMARK    1  A    between atoms: C12_13  and  N1_14 
REMARK    2  A    between atoms: C14_16  and  C15_17 
REMARK    3  A    between atoms: C17_20  and  C18_21 
ROOT
HETATM    1  C1  UNL     1      27.214  -0.596  53.398  1.00  0.00     0.045 C 
HETATM    2  C2  UNL     1      26.395   0.388  52.667  1.00  0.00    -0.065 C 
HETATM    3  C3  UNL     1      27.077   1.176  51.829  1.00  0.00     0.070 C 
HETATM    4  C4  UNL     1      26.468   2.157  51.055  1.00  0.00    -0.048 C 
HETATM    5  C5  UNL     1      25.948   2.964  50.427  1.00  0.00     0.059 C 
HETATM    6  O1  UNL     1      25.326   3.898  49.715  1.00  0.00    -0.303 OA
HETATM    7  C6  UNL     1      23.959   3.570  49.288  1.00  0.00     0.188 C 
HETATM    8  C7  UNL     1      23.282   3.295  50.617  1.00  0.00     0.028 C 
HETATM    9  C8  UNL     1      21.873   2.865  50.557  1.00  0.00     0.006 C 
HETATM   10  C9  UNL     1      21.289   2.587  51.932  1.00  0.00     0.028 C 
HETATM   11  C10 UNL     1      21.910   1.548  52.709  1.00  0.00    -0.009 C 
HETATM   12  C11 UNL     1      22.618   0.644  53.350  1.00  0.00     0.032 A 
HETATM   13  C12 UNL     1      21.598   0.073  54.067  1.00  0.00     0.141 A 
HETATM   14  N2  UNL     1      21.745  -0.957  54.915  1.00  0.00    -0.224 NA
HETATM   15  C19 UNL     1      22.955  -1.469  55.084  1.00  0.00     0.235 A 
HETATM   16  N3  UNL     1      23.941  -0.905  54.382  1.00  0.00    -0.245 NA
HETATM   17  C20 UNL     1      23.845   0.109  53.536  1.00  0.00     0.059 A 
HETATM   18  C21 UNL     1      25.108   0.131  53.205  1.00  0.00     0.082 C 
ENDROOT
BRANCH  13  19
HETATM   19  N1  UNL     1      20.357   0.724  53.789  1.00  0.00    -0.343 N 
HETATM   20  C13 UNL     1      19.394  -0.112  53.454  1.00  0.00     0.028 A 
HETATM   21  C14 UNL     1      18.850  -0.093  52.378  1.00  0.00    -0.018 A 
HETATM   22  C18 UNL     1      18.282  -1.064  53.045  1.00  0.00     0.083 A 
HETATM   23  H14 UNL     1      20.047   1.714  53.804  1.00  0.00     0.167 HD
BRANCH  21  24
HETATM   24  C15 UNL     1      18.349  -0.095  51.421  1.00  0.00    -0.018 A 
HETATM   25  C16 UNL     1      17.801  -0.110  50.415  1.00  0.00     0.177 A 
HETATM   26  F1  UNL     1      16.669  -0.632  49.938  1.00  0.00    -0.233 F 
HETATM   27  C17 UNL     1      17.307  -0.819  51.777  1.00  0.00     0.081 A 
ENDBRANCH  21  24
ENDBRANCH  13  19
TORSDOF 3
ENDMDL
MODEL 7
REMARK VINA RESULT:      -9.3      3.777      6.037
REMARK  3 active torsions:
REMARK  status: ('A' for Active; 'I' for Inactive)
REMARK    1  A    between atoms: C12_13  and  N1_14 
REMARK    2  A    between atoms: C14_16  and  C15_17 
REMARK    3  A    between atoms: C17_20  and  C18_21 
ROOT
HETATM    1  C1  UNL     1      19.597  -0.453  53.250  1.00  0.00     0.045 C 
HETATM    2  C2  UNL     1      21.000  -0.293  53.677  1.00  0.00    -0.065 C 
HETATM    3  C3  UNL     1      21.455  -1.257  54.483  1.00  0.00     0.070 C 
HETATM    4  C4  UNL     1      22.754  -1.271  54.979  1.00  0.00    -0.048 C 
HETATM    5  C5  UNL     1      23.828  -1.263  55.382  1.00  0.00     0.059 C 
HETATM    6  O1  UNL     1      25.074  -1.230  55.843  1.00  0.00    -0.303 OA
HETATM    7  C6  UNL     1      26.075  -0.650  54.937  1.00  0.00     0.188 C 
HETATM    8  C7  UNL     1      25.500   0.733  54.693  1.00  0.00     0.028 C 
HETATM    9  C8  UNL     1      26.240   1.592  53.752  1.00  0.00     0.006 C 
HETATM   10  C9  UNL     1      25.577   2.944  53.551  1.00  0.00     0.028 C 
HETATM   11  C10 UNL     1      24.245   2.944  53.008  1.00  0.00    -0.009 C 
HETATM   12  C11 UNL     1      23.004   2.805  52.592  1.00  0.00     0.032 A 
HETATM   13  C12 UNL     1      22.929   3.941  51.827  1.00  0.00     0.141 A 
HETATM   14  N2  UNL     1      21.849   4.317  51.125  1.00  0.00    -0.224 NA
HETATM   15  C19 UNL     1      20.771   3.547  51.162  1.00  0.00     0.235 A 
HETATM   16  N3  UNL     1      20.856   2.443  51.909  1.00  0.00    -0.245 NA
HETATM   17  C20 UNL     1      21.896   2.033  52.618  1.00  0.00     0.059 A 
HETATM   18  C21 UNL     1      21.338   0.937  53.058  1.00  0.00     0.082 C 
ENDROOT
BRANCH  13  19
HETATM   19  N1  UNL     1      24.156   4.672  51.882  1.00  0.00    -0.343 N 
HETATM   20  C13 UNL     1      24.350   5.442  50.830  1.00  0.00     0.028 A 
HETATM   21  C14 UNL     1      25.274   5.298  50.069  1.00  0.00    -0.018 A 
HETATM   22  C18 UNL     1      24.595   6.317  49.611  1.00  0.00     0.083 A 
HETATM   23  H14 UNL     1      24.923   4.734  52.578  1.00  0.00     0.167 HD
BRANCH  21  24
HETATM   24  C15 UNL     1      26.093   5.186  49.374  1.00  0.00    -0.018 A 
HETATM   25  C16 UNL     1      26.968   5.047  48.647  1.00  0.00     0.177 A 
HETATM   26  F1  UNL     1      27.910   4.127  48.433  1.00  0.00    -0.233 F 
HETATM   27  C17 UNL     1      26.532   4.024  49.815  1.00  0.00     0.081 A 
ENDBRANCH  21  24
ENDBRANCH  13  19
TORSDOF 3
ENDMDL
MODEL 8
REMARK VINA RESULT:      -9.1      3.975      6.956
REMARK  3 active torsions:
REMARK  status: ('A' for Active; 'I' for Inactive)
REMARK    1  A    between atoms: C12_13  and  N1_14 
REMARK    2  A    between atoms: C14_16  and  C15_17 
REMARK    3  A    between atoms: C17_20  and  C18_21 
ROOT
HETATM    1  C1  UNL     1      27.921   4.756  48.563  1.00  0.00     0.045 C 
HETATM    2  C2  UNL     1      26.593   5.217  49.009  1.00  0.00    -0.065 C 
HETATM    3  C3  UNL     1      26.202   6.388  48.493  1.00  0.00     0.070 C 
HETATM    4  C4  UNL     1      24.978   6.972  48.797  1.00  0.00    -0.048 C 
HETATM    5  C5  UNL     1      23.966   7.442  49.064  1.00  0.00     0.059 C 
HETATM    6  O1  UNL     1      22.792   7.970  49.393  1.00  0.00    -0.303 OA
HETATM    7  C6  UNL     1      21.710   7.011  49.652  1.00  0.00     0.188 C 
HETATM    8  C7  UNL     1      22.309   6.169  50.763  1.00  0.00     0.028 C 
HETATM    9  C8  UNL     1      21.492   5.038  51.239  1.00  0.00     0.006 C 
HETATM   10  C9  UNL     1      22.183   4.239  52.331  1.00  0.00     0.028 C 
HETATM   11  C10 UNL     1      23.433   3.613  51.992  1.00  0.00    -0.009 C 
HETATM   12  C11 UNL     1      24.603   3.169  51.586  1.00  0.00     0.032 A 
HETATM   13  C12 UNL     1      24.629   2.005  52.309  1.00  0.00     0.141 A 
HETATM   14  N2  UNL     1      25.626   1.107  52.273  1.00  0.00    -0.224 NA
HETATM   15  C19 UNL     1      26.665   1.347  51.487  1.00  0.00     0.235 A 
HETATM   16  N3  UNL     1      26.628   2.483  50.786  1.00  0.00    -0.245 NA
HETATM   17  C20 UNL     1      25.671   3.398  50.790  1.00  0.00     0.059 A 
HETATM   18  C21 UNL     1      26.232   4.188  49.915  1.00  0.00     0.082 C 
ENDROOT
BRANCH  13  19
HETATM   19  N1  UNL     1      23.453   1.879  53.111  1.00  0.00    -0.343 N 
HETATM   20  C13 UNL     1      22.907   0.681  53.049  1.00  0.00     0.028 A 
HETATM   21  C14 UNL     1      21.798   0.483  52.620  1.00  0.00    -0.018 A 
HETATM   22  C18 UNL     1      22.256  -0.691  52.967  1.00  0.00     0.083 A 
HETATM   23  H14 UNL     1      22.941   2.526  53.740  1.00  0.00     0.167 HD
BRANCH  21  24
HETATM   24  C15 UNL     1      20.807   0.283  52.239  1.00  0.00    -0.018 A 
HETATM   25  C16 UNL     1      19.763   0.078  51.814  1.00  0.00     0.177 A 
HETATM   26  F1  UNL     1      19.150   0.234  50.638  1.00  0.00    -0.233 F 
HETATM   27  C17 UNL     1      21.009   0.711  51.009  1.00  0.00     0.081 A 
ENDBRANCH  21  24
ENDBRANCH  13  19
TORSDOF 3
ENDMDL
MODEL 9
REMARK VINA RESULT:      -9.1      1.890      2.160
REMARK  3 active torsions:
REMARK  status: ('A' for Active; 'I' for Inactive)
REMARK    1  A    between atoms: C12_13  and  N1_14 
REMARK    2  A    between atoms: C14_16  and  C15_17 
REMARK    3  A    between atoms: C17_20  and  C18_21 
ROOT
HETATM    1  C1  UNL     1      17.829  -2.639  53.818  1.00  0.00     0.045 C 
HETATM    2  C2  UNL     1      17.949  -1.322  53.164  1.00  0.00    -0.065 C 
HETATM    3  C3  UNL     1      16.827  -0.877  52.588  1.00  0.00     0.070 C 
HETATM    4  C4  UNL     1      16.754   0.346  51.930  1.00  0.00    -0.048 C 
HETATM    5  C5  UNL     1      16.715   1.356  51.387  1.00  0.00     0.059 C 
HETATM    6  O1  UNL     1      16.694   2.526  50.758  1.00  0.00    -0.303 OA
HETATM    7  C6  UNL     1      17.563   3.569  51.319  1.00  0.00     0.188 C 
HETATM    8  C7  UNL     1      18.921   2.895  51.265  1.00  0.00     0.028 C 
HETATM    9  C8  UNL     1      20.053   3.658  51.823  1.00  0.00     0.006 C 
HETATM   10  C9  UNL     1      21.364   2.894  51.749  1.00  0.00     0.028 C 
HETATM   11  C10 UNL     1      21.435   1.646  52.461  1.00  0.00    -0.009 C 
HETATM   12  C11 UNL     1      21.342   0.486  53.075  1.00  0.00     0.032 A 
HETATM   13  C12 UNL     1      22.640   0.394  53.510  1.00  0.00     0.141 A 
HETATM   14  N2  UNL     1      23.130  -0.623  54.235  1.00  0.00    -0.224 NA
HETATM   15  C19 UNL     1      22.317  -1.616  54.564  1.00  0.00     0.235 A 
HETATM   16  N3  UNL     1      21.056  -1.515  54.135  1.00  0.00    -0.245 NA
HETATM   17  C20 UNL     1      20.527  -0.536  53.419  1.00  0.00     0.059 A 
HETATM   18  C21 UNL     1      19.321  -1.033  53.375  1.00  0.00     0.082 C 
ENDROOT
BRANCH  13  19
HETATM   19  N1  UNL     1      23.399   1.527  53.083  1.00  0.00    -0.343 N 
HETATM   20  C13 UNL     1      24.566   1.203  52.561  1.00  0.00     0.028 A 
HETATM   21  C14 UNL     1      25.619   1.547  53.036  1.00  0.00    -0.018 A 
HETATM   22  C18 UNL     1      25.922   0.844  51.976  1.00  0.00     0.083 A 
HETATM   23  H14 UNL     1      23.226   2.550  53.086  1.00  0.00     0.167 HD
BRANCH  21  24
HETATM   24  C15 UNL     1      26.574   1.843  53.445  1.00  0.00    -0.018 A 
HETATM   25  C16 UNL     1      27.593   2.165  53.858  1.00  0.00     0.177 A 
HETATM   26  F1  UNL     1      28.700   2.728  53.370  1.00  0.00    -0.233 F 
HETATM   27  C17 UNL     1      27.097   2.311  52.330  1.00  0.00     0.081 A 
ENDBRANCH  21  24
ENDBRANCH  13  19
TORSDOF 3
ENDMDL
