MODEL 1
REMARK VINA RESULT:      -6.5      0.000      0.000
REMARK  8 active torsions:
REMARK  status: ('A' for Active; 'I' for Inactive)
REMARK       I    between atoms: C2_2  and  N1_4 
REMARK    1  A    between atoms: N1_4  and  C3_5 
REMARK    2  A    between atoms: C3_5  and  C4_6 
REMARK    3  A    between atoms: C4_6  and  C5_7 
REMARK    4  A    between atoms: C5_7  and  C6_8 
REMARK    5  A    between atoms: C6_8  and  C7_9 
REMARK    6  A    between atoms: C7_9  and  C8_10 
REMARK    7  A    between atoms: N2_17  and  C14_18 
REMARK    8  A    between atoms: C14_18  and  C15_19 
ROOT
HETATM    1  C6  UNL     1      24.506   0.603  52.848  1.00  0.00     0.033 C 
HETATM    2  N2  UNL     1      24.091  -0.409  53.460  1.00  0.00    -0.291 NA
ENDROOT
BRANCH   1   3
HETATM    3  C5  UNL     1      23.867   1.889  52.868  1.00  0.00     0.024 C 
BRANCH   3   4
HETATM    4  C4  UNL     1      23.472   3.080  52.540  1.00  0.00    -0.005 C 
BRANCH   4   5
HETATM    5  C3  UNL     1      23.643   4.306  51.677  1.00  0.00     0.149 C 
BRANCH   5   6
HETATM    6  N1  UNL     1      25.033   4.381  51.272  1.00  0.00    -0.358 N 
HETATM    7  C2  UNL     1      25.349   3.793  49.990  1.00  0.00     0.213 C 
HETATM    8  C1  UNL     1      26.751   3.777  49.435  1.00  0.00     0.117 C 
HETATM    9  O1  UNL     1      24.419   3.285  49.339  1.00  0.00    -0.274 OA
HETATM   10  H4  UNL     1      25.915   4.776  51.722  1.00  0.00     0.162 HD
ENDBRANCH   5   6
ENDBRANCH   4   5
ENDBRANCH   3   4
ENDBRANCH   1   3
BRANCH   1  11
HETATM   11  C7  UNL     1      25.731   0.591  52.053  1.00  0.00     0.099 C 
BRANCH  11  12
HETATM   12  C8  UNL     1      26.971   0.917  52.702  1.00  0.00    -0.031 A 
HETATM   13  C9  UNL     1      27.548   2.115  53.049  1.00  0.00     0.009 A 
HETATM   14  C10 UNL     1      28.750   2.286  53.692  1.00  0.00     0.001 A 
HETATM   15  C11 UNL     1      29.403   1.112  53.997  1.00  0.00     0.002 A 
HETATM   16  C12 UNL     1      28.932  -0.149  53.705  1.00  0.00     0.024 A 
HETATM   17  C13 UNL     1      27.718  -0.217  53.060  1.00  0.00     0.040 A 
HETATM   18 CL1  UNL     1      27.178  -1.870  52.715  1.00  0.00    -0.084 Cl
ENDBRANCH  11  12
ENDBRANCH   1  11
BRANCH   2  19
HETATM   19  C14 UNL     1      22.967  -0.586  54.289  1.00  0.00     0.180 C 
BRANCH  19  20
HETATM   20  C15 UNL     1      21.816  -1.309  53.609  1.00  0.00     0.244 C 
HETATM   21  F1  UNL     1      21.493  -0.577  52.486  1.00  0.00    -0.254 F 
ENDBRANCH  19  20
ENDBRANCH   2  19
TORSDOF 8
ENDMDL
MODEL 2
REMARK VINA RESULT:      -6.5      1.280      1.796
REMARK  8 active torsions:
REMARK  status: ('A' for Active; 'I' for Inactive)
REMARK       I    between atoms: C2_2  and  N1_4 
REMARK    1  A    between atoms: N1_4  and  C3_5 
REMARK    2  A    between atoms: C3_5  and  C4_6 
REMARK    3  A    between atoms: C4_6  and  C5_7 
REMARK    4  A    between atoms: C5_7  and  C6_8 
REMARK    5  A    between atoms: C6_8  and  C7_9 
REMARK    6  A    between atoms: C7_9  and  C8_10 
REMARK    7  A    between atoms: N2_17  and  C14_18 
REMARK    8  A    between atoms: C14_18  and  C15_19 
ROOT
HETATM    1  C6  UNL     1      24.897   0.390  53.006  1.00  0.00     0.033 C 
HETATM    2  N2  UNL     1      24.541  -0.651  53.605  1.00  0.00    -0.291 NA
ENDROOT
BRANCH   1   3
HETATM    3  C5  UNL     1      24.191   1.640  53.048  1.00  0.00     0.024 C 
BRANCH   3   4
HETATM    4  C4  UNL     1      23.830   2.866  52.826  1.00  0.00    -0.005 C 
BRANCH   4   5
HETATM    5  C3  UNL     1      23.823   4.065  51.911  1.00  0.00     0.149 C 
BRANCH   5   6
HETATM    6  N1  UNL     1      25.163   4.236  51.383  1.00  0.00    -0.358 N 
HETATM    7  C2  UNL     1      25.389   3.717  50.053  1.00  0.00     0.213 C 
HETATM    8  C1  UNL     1      26.731   3.804  49.372  1.00  0.00     0.117 C 
HETATM    9  O1  UNL     1      24.430   3.181  49.469  1.00  0.00    -0.274 OA
HETATM   10  H4  UNL     1      26.061   4.664  51.767  1.00  0.00     0.162 HD
ENDBRANCH   5   6
ENDBRANCH   4   5
ENDBRANCH   3   4
ENDBRANCH   1   3
BRANCH   1  11
HETATM   11  C7  UNL     1      26.115   0.454  52.203  1.00  0.00     0.099 C 
BRANCH  11  12
HETATM   12  C8  UNL     1      27.287  -0.226  52.682  1.00  0.00    -0.031 A 
HETATM   13  C9  UNL     1      27.634  -1.556  52.726  1.00  0.00     0.009 A 
HETATM   14  C10 UNL     1      28.812  -2.076  53.203  1.00  0.00     0.001 A 
HETATM   15  C11 UNL     1      29.701  -1.133  53.671  1.00  0.00     0.002 A 
HETATM   16  C12 UNL     1      29.475   0.226  53.681  1.00  0.00     0.024 A 
HETATM   17  C13 UNL     1      28.264   0.650  53.183  1.00  0.00     0.040 A 
HETATM   18 CL1  UNL     1      28.042   2.408  53.230  1.00  0.00    -0.084 Cl
ENDBRANCH  11  12
ENDBRANCH   1  11
BRANCH   2  19
HETATM   19  C14 UNL     1      23.434  -0.899  54.438  1.00  0.00     0.180 C 
BRANCH  19  20
HETATM   20  C15 UNL     1      22.149  -1.181  53.678  1.00  0.00     0.244 C 
HETATM   21  F1  UNL     1      21.295  -0.128  53.933  1.00  0.00    -0.254 F 
ENDBRANCH  19  20
ENDBRANCH   2  19
TORSDOF 8
ENDMDL
MODEL 3
REMARK VINA RESULT:      -6.5      3.101      5.135
REMARK  8 active torsions:
REMARK  status: ('A' for Active; 'I' for Inactive)
REMARK       I    between atoms: C2_2  and  N1_4 
REMARK    1  A    between atoms: N1_4  and  C3_5 
REMARK    2  A    between atoms: C3_5  and  C4_6 
REMARK    3  A    between atoms: C4_6  and  C5_7 
REMARK    4  A    between atoms: C5_7  and  C6_8 
REMARK    5  A    between atoms: C6_8  and  C7_9 
REMARK    6  A    between atoms: C7_9  and  C8_10 
REMARK    7  A    between atoms: N2_17  and  C14_18 
REMARK    8  A    between atoms: C14_18  and  C15_19 
ROOT
HETATM    1  C6  UNL     1      25.946   2.195  51.635  1.00  0.00     0.033 C 
HETATM    2  N2  UNL     1      26.711   2.763  50.821  1.00  0.00    -0.291 NA
ENDROOT
BRANCH   1   3
HETATM    3  C5  UNL     1      24.571   1.872  51.375  1.00  0.00     0.024 C 
BRANCH   3   4
HETATM    4  C4  UNL     1      23.321   1.562  51.532  1.00  0.00    -0.005 C 
BRANCH   4   5
HETATM    5  C3  UNL     1      22.284   0.633  52.113  1.00  0.00     0.149 C 
BRANCH   5   6
HETATM    6  N1  UNL     1      22.956  -0.291  53.005  1.00  0.00    -0.358 N 
HETATM    7  C2  UNL     1      22.345  -0.473  54.303  1.00  0.00     0.213 C 
HETATM    8  C1  UNL     1      22.931  -1.389  55.347  1.00  0.00     0.117 C 
HETATM    9  O1  UNL     1      21.302   0.158  54.546  1.00  0.00    -0.274 OA
HETATM   10  H4  UNL     1      23.839  -0.885  52.929  1.00  0.00     0.162 HD
ENDBRANCH   5   6
ENDBRANCH   4   5
ENDBRANCH   3   4
ENDBRANCH   1   3
BRANCH   1  11
HETATM   11  C7  UNL     1      26.390   1.762  52.957  1.00  0.00     0.099 C 
BRANCH  11  12
HETATM   12  C8  UNL     1      27.209   0.585  53.052  1.00  0.00    -0.031 A 
HETATM   13  C9  UNL     1      26.963  -0.740  52.786  1.00  0.00     0.009 A 
HETATM   14  C10 UNL     1      27.857  -1.776  52.905  1.00  0.00     0.001 A 
HETATM   15  C11 UNL     1      29.108  -1.400  53.339  1.00  0.00     0.002 A 
HETATM   16  C12 UNL     1      29.482  -0.108  53.638  1.00  0.00     0.024 A 
HETATM   17  C13 UNL     1      28.516   0.861  53.487  1.00  0.00     0.040 A 
HETATM   18 CL1  UNL     1      29.068   2.496  53.894  1.00  0.00    -0.084 Cl
ENDBRANCH  11  12
ENDBRANCH   1  11
BRANCH   2  19
HETATM   19  C14 UNL     1      26.483   3.222  49.510  1.00  0.00     0.180 C 
BRANCH  19  20
HETATM   20  C15 UNL     1      26.923   4.658  49.281  1.00  0.00     0.244 C 
HETATM   21  F1  UNL     1      27.853   4.633  48.264  1.00  0.00    -0.254 F 
ENDBRANCH  19  20
ENDBRANCH   2  19
TORSDOF 8
ENDMDL
MODEL 4
REMARK VINA RESULT:      -6.3      2.603      4.810
REMARK  8 active torsions:
REMARK  status: ('A' for Active; 'I' for Inactive)
REMARK       I    between atoms: C2_2  and  N1_4 
REMARK    1  A    between atoms: N1_4  and  C3_5 
REMARK    2  A    between atoms: C3_5  and  C4_6 
REMARK    3  A    between atoms: C4_6  and  C5_7 
REMARK    4  A    between atoms: C5_7  and  C6_8 
REMARK    5  A    between atoms: C6_8  and  C7_9 
REMARK    6  A    between atoms: C7_9  and  C8_10 
REMARK    7  A    between atoms: N2_17  and  C14_18 
REMARK    8  A    between atoms: C14_18  and  C15_19 
ROOT
HETATM    1  C6  UNL     1      25.907  -0.049  53.579  1.00  0.00     0.033 C 
HETATM    2  N2  UNL     1      26.754  -0.393  54.437  1.00  0.00    -0.291 NA
ENDROOT
BRANCH   1   3
HETATM    3  C5  UNL     1      25.976   1.156  52.801  1.00  0.00     0.024 C 
BRANCH   3   4
HETATM    4  C4  UNL     1      26.144   1.988  51.820  1.00  0.00    -0.005 C 
BRANCH   4   5
HETATM    5  C3  UNL     1      25.636   3.166  51.025  1.00  0.00     0.149 C 
BRANCH   5   6
HETATM    6  N1  UNL     1      26.774   3.812  50.402  1.00  0.00    -0.358 N 
HETATM    7  C2  UNL     1      26.472   4.696  49.298  1.00  0.00     0.213 C 
HETATM    8  C1  UNL     1      27.547   5.431  48.537  1.00  0.00     0.117 C 
HETATM    9  O1  UNL     1      25.278   4.839  48.979  1.00  0.00    -0.274 OA
HETATM   10  H4  UNL     1      27.827   3.780  50.567  1.00  0.00     0.162 HD
ENDBRANCH   5   6
ENDBRANCH   4   5
ENDBRANCH   3   4
ENDBRANCH   1   3
BRANCH   1  11
HETATM   11  C7  UNL     1      24.747  -0.872  53.249  1.00  0.00     0.099 C 
BRANCH  11  12
HETATM   12  C8  UNL     1      23.445  -0.265  53.288  1.00  0.00    -0.031 A 
HETATM   13  C9  UNL     1      22.769   0.538  52.401  1.00  0.00     0.009 A 
HETATM   14  C10 UNL     1      21.501   1.042  52.559  1.00  0.00     0.001 A 
HETATM   15  C11 UNL     1      20.889   0.680  53.739  1.00  0.00     0.002 A 
HETATM   16  C12 UNL     1      21.456  -0.119  54.707  1.00  0.00     0.024 A 
HETATM   17  C13 UNL     1      22.731  -0.575  54.458  1.00  0.00     0.040 A 
HETATM   18 CL1  UNL     1      23.396  -1.593  55.747  1.00  0.00    -0.084 Cl
ENDBRANCH  11  12
ENDBRANCH   1  11
BRANCH   2  19
HETATM   19  C14 UNL     1      27.936   0.238  54.867  1.00  0.00     0.180 C 
BRANCH  19  20
HETATM   20  C15 UNL     1      29.180  -0.225  54.127  1.00  0.00     0.244 C 
HETATM   21  F1  UNL     1      28.892  -1.468  53.604  1.00  0.00    -0.254 F 
ENDBRANCH  19  20
ENDBRANCH   2  19
TORSDOF 8
ENDMDL
MODEL 5
REMARK VINA RESULT:      -6.2      3.253      6.202
REMARK  8 active torsions:
REMARK  status: ('A' for Active; 'I' for Inactive)
REMARK       I    between atoms: C2_2  and  N1_4 
REMARK    1  A    between atoms: N1_4  and  C3_5 
REMARK    2  A    between atoms: C3_5  and  C4_6 
REMARK    3  A    between atoms: C4_6  and  C5_7 
REMARK    4  A    between atoms: C5_7  and  C6_8 
REMARK    5  A    between atoms: C6_8  and  C7_9 
REMARK    6  A    between atoms: C7_9  and  C8_10 
REMARK    7  A    between atoms: N2_17  and  C14_18 
REMARK    8  A    between atoms: C14_18  and  C15_19 
ROOT
HETATM    1  C6  UNL     1      23.841   1.934  51.402  1.00  0.00     0.033 C 
HETATM    2  N2  UNL     1      24.010   2.961  50.703  1.00  0.00    -0.291 NA
ENDROOT
BRANCH   1   3
HETATM    3  C5  UNL     1      24.734   1.493  52.436  1.00  0.00     0.024 C 
BRANCH   3   4
HETATM    4  C4  UNL     1      25.731   0.947  53.061  1.00  0.00    -0.005 C 
BRANCH   4   5
HETATM    5  C3  UNL     1      26.236   0.141  54.232  1.00  0.00     0.149 C 
BRANCH   5   6
HETATM    6  N1  UNL     1      27.367  -0.647  53.783  1.00  0.00    -0.358 N 
HETATM    7  C2  UNL     1      28.667  -0.195  54.224  1.00  0.00     0.213 C 
HETATM    8  C1  UNL     1      29.941  -0.898  53.830  1.00  0.00     0.117 C 
HETATM    9  O1  UNL     1      28.714   0.813  54.952  1.00  0.00    -0.274 OA
HETATM   10  H4  UNL     1      27.469  -1.513  53.168  1.00  0.00     0.162 HD
ENDBRANCH   5   6
ENDBRANCH   4   5
ENDBRANCH   3   4
ENDBRANCH   1   3
BRANCH   1  11
HETATM   11  C7  UNL     1      22.672   1.070  51.256  1.00  0.00     0.099 C 
BRANCH  11  12
HETATM   12  C8  UNL     1      22.221   0.331  52.402  1.00  0.00    -0.031 A 
HETATM   13  C9  UNL     1      22.566  -0.901  52.905  1.00  0.00     0.009 A 
HETATM   14  C10 UNL     1      22.060  -1.491  54.038  1.00  0.00     0.001 A 
HETATM   15  C11 UNL     1      21.118  -0.734  54.700  1.00  0.00     0.002 A 
HETATM   16  C12 UNL     1      20.688   0.512  54.302  1.00  0.00     0.024 A 
HETATM   17  C13 UNL     1      21.254   1.019  53.153  1.00  0.00     0.040 A 
HETATM   18 CL1  UNL     1      20.650   2.623  52.701  1.00  0.00    -0.084 Cl
ENDBRANCH  11  12
ENDBRANCH   1  11
BRANCH   2  19
HETATM   19  C14 UNL     1      25.039   3.921  50.713  1.00  0.00     0.180 C 
BRANCH  19  20
HETATM   20  C15 UNL     1      26.024   3.773  49.566  1.00  0.00     0.244 C 
HETATM   21  F1  UNL     1      26.655   2.559  49.736  1.00  0.00    -0.254 F 
ENDBRANCH  19  20
ENDBRANCH   2  19
TORSDOF 8
ENDMDL
MODEL 6
REMARK VINA RESULT:      -6.2      3.261      5.778
REMARK  8 active torsions:
REMARK  status: ('A' for Active; 'I' for Inactive)
REMARK       I    between atoms: C2_2  and  N1_4 
REMARK    1  A    between atoms: N1_4  and  C3_5 
REMARK    2  A    between atoms: C3_5  and  C4_6 
REMARK    3  A    between atoms: C4_6  and  C5_7 
REMARK    4  A    between atoms: C5_7  and  C6_8 
REMARK    5  A    between atoms: C6_8  and  C7_9 
REMARK    6  A    between atoms: C7_9  and  C8_10 
REMARK    7  A    between atoms: N2_17  and  C14_18 
REMARK    8  A    between atoms: C14_18  and  C15_19 
ROOT
HETATM    1  C6  UNL     1      22.973   0.833  52.629  1.00  0.00     0.033 C 
HETATM    2  N2  UNL     1      22.159  -0.087  52.880  1.00  0.00    -0.291 NA
ENDROOT
BRANCH   1   3
HETATM    3  C5  UNL     1      24.373   0.793  52.949  1.00  0.00     0.024 C 
BRANCH   3   4
HETATM    4  C4  UNL     1      25.494   0.648  53.585  1.00  0.00    -0.005 C 
BRANCH   4   5
HETATM    5  C3  UNL     1      26.279  -0.033  54.679  1.00  0.00     0.149 C 
BRANCH   5   6
HETATM    6  N1  UNL     1      27.403  -0.715  54.069  1.00  0.00    -0.358 N 
HETATM    7  C2  UNL     1      28.707  -0.151  54.340  1.00  0.00     0.213 C 
HETATM    8  C1  UNL     1      29.972  -0.736  53.767  1.00  0.00     0.117 C 
HETATM    9  O1  UNL     1      28.763   0.853  55.071  1.00  0.00    -0.274 OA
HETATM   10  H4  UNL     1      27.497  -1.565  53.432  1.00  0.00     0.162 HD
ENDBRANCH   5   6
ENDBRANCH   4   5
ENDBRANCH   3   4
ENDBRANCH   1   3
BRANCH   1  11
HETATM   11  C7  UNL     1      22.582   2.060  51.943  1.00  0.00     0.099 C 
BRANCH  11  12
HETATM   12  C8  UNL     1      22.440   2.029  50.513  1.00  0.00    -0.031 A 
HETATM   13  C9  UNL     1      21.624   1.304  49.678  1.00  0.00     0.009 A 
HETATM   14  C10 UNL     1      21.579   1.387  48.308  1.00  0.00     0.001 A 
HETATM   15  C11 UNL     1      22.457   2.298  47.764  1.00  0.00     0.002 A 
HETATM   16  C12 UNL     1      23.324   3.085  48.490  1.00  0.00     0.024 A 
HETATM   17  C13 UNL     1      23.296   2.930  49.857  1.00  0.00     0.040 A 
HETATM   18 CL1  UNL     1      24.439   3.971  50.723  1.00  0.00    -0.084 Cl
ENDBRANCH  11  12
ENDBRANCH   1  11
BRANCH   2  19
HETATM   19  C14 UNL     1      22.345  -1.338  53.497  1.00  0.00     0.180 C 
BRANCH  19  20
HETATM   20  C15 UNL     1      21.539  -1.516  54.772  1.00  0.00     0.244 C 
HETATM   21  F1  UNL     1      21.467  -0.278  55.375  1.00  0.00    -0.254 F 
ENDBRANCH  19  20
ENDBRANCH   2  19
TORSDOF 8
ENDMDL
MODEL 7
REMARK VINA RESULT:      -6.1      3.012      5.082
REMARK  8 active torsions:
REMARK  status: ('A' for Active; 'I' for Inactive)
REMARK       I    between atoms: C2_2  and  N1_4 
REMARK    1  A    between atoms: N1_4  and  C3_5 
REMARK    2  A    between atoms: C3_5  and  C4_6 
REMARK    3  A    between atoms: C4_6  and  C5_7 
REMARK    4  A    between atoms: C5_7  and  C6_8 
REMARK    5  A    between atoms: C6_8  and  C7_9 
REMARK    6  A    between atoms: C7_9  and  C8_10 
REMARK    7  A    between atoms: N2_17  and  C14_18 
REMARK    8  A    between atoms: C14_18  and  C15_19 
ROOT
HETATM    1  C6  UNL     1      26.400   2.181  53.031  1.00  0.00     0.033 C 
HETATM    2  N2  UNL     1      27.278   1.789  53.836  1.00  0.00    -0.291 NA
ENDROOT
BRANCH   1   3
HETATM    3  C5  UNL     1      26.618   2.402  51.629  1.00  0.00     0.024 C 
BRANCH   3   4
HETATM    4  C4  UNL     1      26.550   2.883  50.427  1.00  0.00    -0.005 C 
BRANCH   4   5
HETATM    5  C3  UNL     1      26.213   4.037  49.515  1.00  0.00     0.149 C 
BRANCH   5   6
HETATM    6  N1  UNL     1      27.456   4.623  49.053  1.00  0.00    -0.358 N 
HETATM    7  C2  UNL     1      27.350   5.931  48.444  1.00  0.00     0.213 C 
HETATM    8  C1  UNL     1      28.549   6.666  47.901  1.00  0.00     0.117 C 
HETATM    9  O1  UNL     1      26.221   6.447  48.374  1.00  0.00    -0.274 OA
HETATM   10  H4  UNL     1      28.472   4.298  49.047  1.00  0.00     0.162 HD
ENDBRANCH   5   6
ENDBRANCH   4   5
ENDBRANCH   3   4
ENDBRANCH   1   3
BRANCH   1  11
HETATM   11  C7  UNL     1      25.021   2.433  53.438  1.00  0.00     0.099 C 
BRANCH  11  12
HETATM   12  C8  UNL     1      24.022   1.453  53.114  1.00  0.00    -0.031 A 
HETATM   13  C9  UNL     1      23.861   0.138  53.480  1.00  0.00     0.009 A 
HETATM   14  C10 UNL     1      22.833  -0.693  53.106  1.00  0.00     0.001 A 
HETATM   15  C11 UNL     1      21.899  -0.105  52.282  1.00  0.00     0.002 A 
HETATM   16  C12 UNL     1      21.944   1.200  51.846  1.00  0.00     0.024 A 
HETATM   17  C13 UNL     1      23.013   1.954  52.275  1.00  0.00     0.040 A 
HETATM   18 CL1  UNL     1      23.007   3.620  51.671  1.00  0.00    -0.084 Cl
ENDBRANCH  11  12
ENDBRANCH   1  11
BRANCH   2  19
HETATM   19  C14 UNL     1      28.633   1.467  53.634  1.00  0.00     0.180 C 
BRANCH  19  20
HETATM   20  C15 UNL     1      29.067   0.188  54.331  1.00  0.00     0.244 C 
HETATM   21  F1  UNL     1      28.065  -0.143  55.218  1.00  0.00    -0.254 F 
ENDBRANCH  19  20
ENDBRANCH   2  19
TORSDOF 8
ENDMDL
MODEL 8
REMARK VINA RESULT:      -6.1      2.118      2.861
REMARK  8 active torsions:
REMARK  status: ('A' for Active; 'I' for Inactive)
REMARK       I    between atoms: C2_2  and  N1_4 
REMARK    1  A    between atoms: N1_4  and  C3_5 
REMARK    2  A    between atoms: C3_5  and  C4_6 
REMARK    3  A    between atoms: C4_6  and  C5_7 
REMARK    4  A    between atoms: C5_7  and  C6_8 
REMARK    5  A    between atoms: C6_8  and  C7_9 
REMARK    6  A    between atoms: C7_9  and  C8_10 
REMARK    7  A    between atoms: N2_17  and  C14_18 
REMARK    8  A    between atoms: C14_18  and  C15_19 
ROOT
HETATM    1  C6  UNL     1      25.532   1.576  52.886  1.00  0.00     0.033 C 
HETATM    2  N2  UNL     1      24.345   1.381  53.237  1.00  0.00    -0.291 NA
ENDROOT
BRANCH   1   3
HETATM    3  C5  UNL     1      25.931   2.081  51.602  1.00  0.00     0.024 C 
BRANCH   3   4
HETATM    4  C4  UNL     1      26.390   2.848  50.662  1.00  0.00    -0.005 C 
BRANCH   4   5
HETATM    5  C3  UNL     1      26.118   3.763  49.494  1.00  0.00     0.149 C 
BRANCH   5   6
HETATM    6  N1  UNL     1      27.369   4.383  49.106  1.00  0.00    -0.358 N 
HETATM    7  C2  UNL     1      27.271   5.722  48.569  1.00  0.00     0.213 C 
HETATM    8  C1  UNL     1      28.481   6.495  48.107  1.00  0.00     0.117 C 
HETATM    9  O1  UNL     1      26.141   6.234  48.491  1.00  0.00    -0.274 OA
HETATM   10  H4  UNL     1      28.388   4.066  49.115  1.00  0.00     0.162 HD
ENDBRANCH   5   6
ENDBRANCH   4   5
ENDBRANCH   3   4
ENDBRANCH   1   3
BRANCH   1  11
HETATM   11  C7  UNL     1      26.663   1.331  53.776  1.00  0.00     0.099 C 
BRANCH  11  12
HETATM   12  C8  UNL     1      27.469   0.163  53.552  1.00  0.00    -0.031 A 
HETATM   13  C9  UNL     1      27.170  -1.095  53.084  1.00  0.00     0.009 A 
HETATM   14  C10 UNL     1      28.055  -2.129  52.900  1.00  0.00     0.001 A 
HETATM   15  C11 UNL     1      29.358  -1.827  53.232  1.00  0.00     0.002 A 
HETATM   16  C12 UNL     1      29.787  -0.608  53.708  1.00  0.00     0.024 A 
HETATM   17  C13 UNL     1      28.825   0.365  53.859  1.00  0.00     0.040 A 
HETATM   18 CL1  UNL     1      29.450   1.904  54.479  1.00  0.00    -0.084 Cl
ENDBRANCH  11  12
ENDBRANCH   1  11
BRANCH   2  19
HETATM   19  C14 UNL     1      23.136   1.582  52.545  1.00  0.00     0.180 C 
BRANCH  19  20
HETATM   20  C15 UNL     1      22.076   0.536  52.851  1.00  0.00     0.244 C 
HETATM   21  F1  UNL     1      22.680  -0.695  52.714  1.00  0.00    -0.254 F 
ENDBRANCH  19  20
ENDBRANCH   2  19
TORSDOF 8
ENDMDL
MODEL 9
REMARK VINA RESULT:      -6.0      3.115      5.784
REMARK  8 active torsions:
REMARK  status: ('A' for Active; 'I' for Inactive)
REMARK       I    between atoms: C2_2  and  N1_4 
REMARK    1  A    between atoms: N1_4  and  C3_5 
REMARK    2  A    between atoms: C3_5  and  C4_6 
REMARK    3  A    between atoms: C4_6  and  C5_7 
REMARK    4  A    between atoms: C5_7  and  C6_8 
REMARK    5  A    between atoms: C6_8  and  C7_9 
REMARK    6  A    between atoms: C7_9  and  C8_10 
REMARK    7  A    between atoms: N2_17  and  C14_18 
REMARK    8  A    between atoms: C14_18  and  C15_19 
ROOT
HETATM    1  C6  UNL     1      24.049   2.149  52.217  1.00  0.00     0.033 C 
HETATM    2  N2  UNL     1      23.284   3.128  52.053  1.00  0.00    -0.291 NA
ENDROOT
BRANCH   1   3
HETATM    3  C5  UNL     1      25.385   2.234  52.737  1.00  0.00     0.024 C 
BRANCH   3   4
HETATM    4  C4  UNL     1      26.669   2.112  52.878  1.00  0.00    -0.005 C 
BRANCH   4   5
HETATM    5  C3  UNL     1      27.881   2.173  53.774  1.00  0.00     0.149 C 
BRANCH   5   6
HETATM    6  N1  UNL     1      28.847   1.207  53.290  1.00  0.00    -0.358 N 
HETATM    7  C2  UNL     1      28.937  -0.026  54.040  1.00  0.00     0.213 C 
HETATM    8  C1  UNL     1      29.903  -1.124  53.672  1.00  0.00     0.117 C 
HETATM    9  O1  UNL     1      28.183  -0.165  55.020  1.00  0.00    -0.274 OA
HETATM   10  H4  UNL     1      29.544   1.196  52.483  1.00  0.00     0.162 HD
ENDBRANCH   5   6
ENDBRANCH   4   5
ENDBRANCH   3   4
ENDBRANCH   1   3
BRANCH   1  11
HETATM   11  C7  UNL     1      23.644   0.778  51.915  1.00  0.00     0.099 C 
BRANCH  11  12
HETATM   12  C8  UNL     1      22.978   0.022  52.939  1.00  0.00    -0.031 A 
HETATM   13  C9  UNL     1      23.430  -0.583  54.088  1.00  0.00     0.009 A 
HETATM   14  C10 UNL     1      22.669  -1.271  55.001  1.00  0.00     0.001 A 
HETATM   15  C11 UNL     1      21.329  -1.334  54.691  1.00  0.00     0.002 A 
HETATM   16  C12 UNL     1      20.751  -0.771  53.575  1.00  0.00     0.024 A 
HETATM   17  C13 UNL     1      21.596  -0.102  52.718  1.00  0.00     0.040 A 
HETATM   18 CL1  UNL     1      20.784   0.592  51.304  1.00  0.00    -0.084 Cl
ENDBRANCH  11  12
ENDBRANCH   1  11
BRANCH   2  19
HETATM   19  C14 UNL     1      23.476   4.499  52.309  1.00  0.00     0.180 C 
BRANCH  19  20
HETATM   20  C15 UNL     1      22.282   5.362  51.938  1.00  0.00     0.244 C 
HETATM   21  F1  UNL     1      21.207   4.513  51.789  1.00  0.00    -0.254 F 
ENDBRANCH  19  20
ENDBRANCH   2  19
TORSDOF 8
ENDMDL
