MODEL 1
REMARK VINA RESULT:      -6.7      0.000      0.000
REMARK  2 active torsions:
REMARK  status: ('A' for Active; 'I' for Inactive)
REMARK    1  A    between atoms: O1_2  and  C2_3 
REMARK    2  A    between atoms: C7_8  and  O2_9 
ROOT
HETATM    1  C2  UNL     1      20.902   0.889  53.127  1.00  0.00     0.102 A 
HETATM    2  C3  UNL     1      20.823   2.187  52.706  1.00  0.00     0.049 A 
HETATM    3  C4  UNL     1      21.850   2.969  52.179  1.00  0.00    -0.026 A 
HETATM    4  C5  UNL     1      23.104   2.356  52.067  1.00  0.00     0.067 A 
HETATM    5  C6  UNL     1      23.191   1.048  52.491  1.00  0.00     0.071 A 
HETATM    6  C7  UNL     1      22.152   0.269  53.020  1.00  0.00     0.103 A 
HETATM    7  N1  UNL     1      24.359   2.741  51.603  1.00  0.00    -0.243 N 
HETATM    8  C9  UNL     1      25.528   2.444  51.955  1.00  0.00     0.232 A 
HETATM    9  N2  UNL     1      25.510   3.335  50.885  1.00  0.00    -0.257 N 
HETATM   10  C10 UNL     1      26.418   3.631  50.033  1.00  0.00     0.094 C 
HETATM   11  C11 UNL     1      25.531   4.608  49.329  1.00  0.00     0.074 C 
HETATM   12  C12 UNL     1      25.202   5.745  50.221  1.00  0.00    -0.021 C 
HETATM   13  C13 UNL     1      23.937   5.769  50.557  1.00  0.00     0.005 C 
HETATM   14  C14 UNL     1      23.023   4.755  50.060  1.00  0.00    -0.036 A 
HETATM   15  C15 UNL     1      22.346   3.773  49.516  1.00  0.00     0.209 A 
HETATM   16  I1  UNL     1      22.212   2.108  48.282  1.00  0.00    -0.183 I 
HETATM   17  O3  UNL     1      21.642   4.496  50.379  1.00  0.00     0.000 OA
HETATM   18  C16 UNL     1      21.439   4.353  51.827  1.00  0.00     0.045 C 
ENDROOT
BRANCH   1  19
HETATM   19  O1  UNL     1      19.826   0.183  53.642  1.00  0.00    -0.353 OA
HETATM   20  C1  UNL     1      18.919  -0.396  52.728  1.00  0.00     0.210 C 
ENDBRANCH   1  19
BRANCH   6  21
HETATM   21  O2  UNL     1      22.245  -1.048  53.444  1.00  0.00    -0.353 OA
HETATM   22  C8  UNL     1      22.627  -1.352  54.773  1.00  0.00     0.210 C 
ENDBRANCH   6  21
TORSDOF 2
ENDMDL
MODEL 2
REMARK VINA RESULT:      -6.7      2.691      4.436
REMARK  2 active torsions:
REMARK  status: ('A' for Active; 'I' for Inactive)
REMARK    1  A    between atoms: O1_2  and  C2_3 
REMARK    2  A    between atoms: C7_8  and  O2_9 
ROOT
HETATM    1  C2  UNL     1      25.998   0.176  53.906  1.00  0.00     0.102 A 
HETATM    2  C3  UNL     1      26.329   0.966  52.841  1.00  0.00     0.049 A 
HETATM    3  C4  UNL     1      25.481   1.436  51.840  1.00  0.00    -0.026 A 
HETATM    4  C5  UNL     1      24.136   1.057  51.936  1.00  0.00     0.067 A 
HETATM    5  C6  UNL     1      23.795   0.260  53.007  1.00  0.00     0.071 A 
HETATM    6  C7  UNL     1      24.656  -0.208  54.010  1.00  0.00     0.103 A 
HETATM    7  N1  UNL     1      22.982   1.296  51.195  1.00  0.00    -0.243 N 
HETATM    8  C9  UNL     1      21.964   0.602  50.951  1.00  0.00     0.232 A 
HETATM    9  N2  UNL     1      21.901   1.858  50.352  1.00  0.00    -0.257 N 
HETATM   10  C10 UNL     1      20.902   2.515  49.897  1.00  0.00     0.094 C 
HETATM   11  C11 UNL     1      21.762   3.666  49.484  1.00  0.00     0.074 C 
HETATM   12  C12 UNL     1      22.700   3.254  48.414  1.00  0.00    -0.021 C 
HETATM   13  C13 UNL     1      23.947   3.255  48.813  1.00  0.00     0.005 C 
HETATM   14  C14 UNL     1      24.285   3.637  50.173  1.00  0.00    -0.036 A 
HETATM   15  C15 UNL     1      24.407   4.015  51.422  1.00  0.00     0.209 A 
HETATM   16  I1  UNL     1      23.605   4.700  53.212  1.00  0.00    -0.183 I 
HETATM   17  O3  UNL     1      25.543   3.599  50.876  1.00  0.00     0.000 OA
HETATM   18  C16 UNL     1      26.158   2.267  50.811  1.00  0.00     0.045 C 
ENDROOT
BRANCH   1  19
HETATM   19  O1  UNL     1      26.910  -0.249  54.861  1.00  0.00    -0.353 OA
HETATM   20  C1  UNL     1      28.264   0.107  54.682  1.00  0.00     0.210 C 
ENDBRANCH   1  19
BRANCH   6  21
HETATM   21  O2  UNL     1      24.307  -1.010  55.086  1.00  0.00    -0.353 OA
HETATM   22  C8  UNL     1      22.956  -1.364  55.313  1.00  0.00     0.210 C 
ENDBRANCH   6  21
TORSDOF 2
ENDMDL
MODEL 3
REMARK VINA RESULT:      -6.6      2.674      5.612
REMARK  2 active torsions:
REMARK  status: ('A' for Active; 'I' for Inactive)
REMARK    1  A    between atoms: O1_2  and  C2_3 
REMARK    2  A    between atoms: C7_8  and  O2_9 
ROOT
HETATM    1  C2  UNL     1      26.260   3.231  49.895  1.00  0.00     0.102 A 
HETATM    2  C3  UNL     1      25.055   3.127  49.260  1.00  0.00     0.049 A 
HETATM    3  C4  UNL     1      23.903   2.499  49.729  1.00  0.00    -0.026 A 
HETATM    4  C5  UNL     1      23.989   1.908  50.995  1.00  0.00     0.067 A 
HETATM    5  C6  UNL     1      25.202   2.008  51.642  1.00  0.00     0.071 A 
HETATM    6  C7  UNL     1      26.356   2.643  51.160  1.00  0.00     0.103 A 
HETATM    7  N1  UNL     1      23.116   1.212  51.828  1.00  0.00    -0.243 N 
HETATM    8  C9  UNL     1      23.283   0.277  52.650  1.00  0.00     0.232 A 
HETATM    9  N2  UNL     1      21.952   0.683  52.576  1.00  0.00    -0.257 N 
HETATM   10  C10 UNL     1      20.981   0.507  53.390  1.00  0.00     0.094 C 
HETATM   11  C11 UNL     1      20.024   1.248  52.513  1.00  0.00     0.074 C 
HETATM   12  C12 UNL     1      19.826   0.526  51.234  1.00  0.00    -0.021 C 
HETATM   13  C13 UNL     1      20.319   1.175  50.210  1.00  0.00     0.005 C 
HETATM   14  C14 UNL     1      20.969   2.461  50.396  1.00  0.00    -0.036 A 
HETATM   15  C15 UNL     1      21.509   3.604  50.745  1.00  0.00     0.209 A 
HETATM   16  I1  UNL     1      21.989   5.041  52.166  1.00  0.00    -0.183 I 
HETATM   17  O3  UNL     1      21.687   3.295  49.466  1.00  0.00     0.000 OA
HETATM   18  C16 UNL     1      22.755   2.551  48.786  1.00  0.00     0.045 C 
ENDROOT
BRANCH   1  19
HETATM   19  O1  UNL     1      27.361   3.876  49.352  1.00  0.00    -0.353 OA
HETATM   20  C1  UNL     1      27.157   5.140  48.757  1.00  0.00     0.210 C 
ENDBRANCH   1  19
BRANCH   6  21
HETATM   21  O2  UNL     1      27.574   2.741  51.815  1.00  0.00    -0.353 OA
HETATM   22  C8  UNL     1      27.785   2.080  53.049  1.00  0.00     0.210 C 
ENDBRANCH   6  21
TORSDOF 2
ENDMDL
MODEL 4
REMARK VINA RESULT:      -6.5      2.568      6.357
REMARK  2 active torsions:
REMARK  status: ('A' for Active; 'I' for Inactive)
REMARK    1  A    between atoms: O1_2  and  C2_3 
REMARK    2  A    between atoms: C7_8  and  O2_9 
ROOT
HETATM    1  C2  UNL     1      23.406   5.806  51.400  1.00  0.00     0.102 A 
HETATM    2  C3  UNL     1      23.544   4.496  51.767  1.00  0.00     0.049 A 
HETATM    3  C4  UNL     1      22.547   3.525  51.829  1.00  0.00    -0.026 A 
HETATM    4  C5  UNL     1      21.256   3.936  51.476  1.00  0.00     0.067 A 
HETATM    5  C6  UNL     1      21.108   5.255  51.106  1.00  0.00     0.071 A 
HETATM    6  C7  UNL     1      22.119   6.225  51.046  1.00  0.00     0.103 A 
HETATM    7  N1  UNL     1      20.009   3.323  51.385  1.00  0.00    -0.243 N 
HETATM    8  C9  UNL     1      18.839   3.733  51.586  1.00  0.00     0.232 A 
HETATM    9  N2  UNL     1      18.868   2.397  51.193  1.00  0.00    -0.257 N 
HETATM   10  C10 UNL     1      17.949   1.651  50.709  1.00  0.00     0.094 C 
HETATM   11  C11 UNL     1      18.864   0.473  50.612  1.00  0.00     0.074 C 
HETATM   12  C12 UNL     1      19.292   0.036  51.962  1.00  0.00    -0.021 C 
HETATM   13  C13 UNL     1      20.568   0.239  52.172  1.00  0.00     0.005 C 
HETATM   14  C14 UNL     1      21.402   0.829  51.139  1.00  0.00    -0.036 A 
HETATM   15  C15 UNL     1      22.000   1.359  50.100  1.00  0.00     0.209 A 
HETATM   16  I1  UNL     1      21.989   2.056  48.143  1.00  0.00    -0.183 I 
HETATM   17  O3  UNL     1      22.776   1.261  51.172  1.00  0.00     0.000 OA
HETATM   18  C16 UNL     1      23.024   2.192  52.281  1.00  0.00     0.045 C 
ENDROOT
BRANCH   1  19
HETATM   19  O1  UNL     1      24.457   6.709  51.366  1.00  0.00    -0.353 OA
HETATM   20  C1  UNL     1      25.354   6.636  50.279  1.00  0.00     0.210 C 
ENDBRANCH   1  19
BRANCH   6  21
HETATM   21  O2  UNL     1      21.964   7.552  50.673  1.00  0.00    -0.353 OA
HETATM   22  C8  UNL     1      20.759   7.999  50.081  1.00  0.00     0.210 C 
ENDBRANCH   6  21
TORSDOF 2
ENDMDL
MODEL 5
REMARK VINA RESULT:      -6.4      1.619      2.455
REMARK  2 active torsions:
REMARK  status: ('A' for Active; 'I' for Inactive)
REMARK    1  A    between atoms: O1_2  and  C2_3 
REMARK    2  A    between atoms: C7_8  and  O2_9 
ROOT
HETATM    1  C2  UNL     1      23.209   0.358  53.208  1.00  0.00     0.102 A 
HETATM    2  C3  UNL     1      22.232   1.302  53.063  1.00  0.00     0.049 A 
HETATM    3  C4  UNL     1      22.303   2.489  52.335  1.00  0.00    -0.026 A 
HETATM    4  C5  UNL     1      23.513   2.742  51.676  1.00  0.00     0.067 A 
HETATM    5  C6  UNL     1      24.503   1.794  51.817  1.00  0.00     0.071 A 
HETATM    6  C7  UNL     1      24.421   0.603  52.553  1.00  0.00     0.103 A 
HETATM    7  N1  UNL     1      24.004   3.756  50.857  1.00  0.00    -0.243 N 
HETATM    8  C9  UNL     1      25.147   4.253  50.706  1.00  0.00     0.232 A 
HETATM    9  N2  UNL     1      24.200   4.850  49.877  1.00  0.00    -0.257 N 
HETATM   10  C10 UNL     1      24.344   5.547  48.814  1.00  0.00     0.094 C 
HETATM   11  C11 UNL     1      22.868   5.726  48.652  1.00  0.00     0.074 C 
HETATM   12  C12 UNL     1      22.315   6.518  49.776  1.00  0.00    -0.021 C 
HETATM   13  C13 UNL     1      21.529   5.811  50.548  1.00  0.00     0.005 C 
HETATM   14  C14 UNL     1      21.277   4.410  50.258  1.00  0.00    -0.036 A 
HETATM   15  C15 UNL     1      21.156   3.172  49.845  1.00  0.00     0.209 A 
HETATM   16  I1  UNL     1      21.555   1.650  48.488  1.00  0.00    -0.183 I 
HETATM   17  O3  UNL     1      20.567   3.407  51.011  1.00  0.00     0.000 OA
HETATM   18  C16 UNL     1      21.066   3.310  52.389  1.00  0.00     0.045 C 
ENDROOT
BRANCH   1  19
HETATM   19  O1  UNL     1      23.054  -0.799  53.955  1.00  0.00    -0.353 OA
HETATM   20  C1  UNL     1      21.815  -1.007  54.599  1.00  0.00     0.210 C 
ENDBRANCH   1  19
BRANCH   6  21
HETATM   21  O2  UNL     1      25.422  -0.347  52.692  1.00  0.00    -0.353 OA
HETATM   22  C8  UNL     1      26.693  -0.147  52.105  1.00  0.00     0.210 C 
ENDBRANCH   6  21
TORSDOF 2
ENDMDL
MODEL 6
REMARK VINA RESULT:      -6.3      2.919      6.286
REMARK  2 active torsions:
REMARK  status: ('A' for Active; 'I' for Inactive)
REMARK    1  A    between atoms: O1_2  and  C2_3 
REMARK    2  A    between atoms: C7_8  and  O2_9 
ROOT
HETATM    1  C2  UNL     1      25.220   6.655  50.188  1.00  0.00     0.102 A 
HETATM    2  C3  UNL     1      24.055   6.487  50.884  1.00  0.00     0.049 A 
HETATM    3  C4  UNL     1      23.101   5.487  50.706  1.00  0.00    -0.026 A 
HETATM    4  C5  UNL     1      23.363   4.548  49.702  1.00  0.00     0.067 A 
HETATM    5  C6  UNL     1      24.535   4.711  48.995  1.00  0.00     0.071 A 
HETATM    6  C7  UNL     1      25.490   5.721  49.182  1.00  0.00     0.103 A 
HETATM    7  N1  UNL     1      22.718   3.418  49.206  1.00  0.00    -0.243 N 
HETATM    8  C9  UNL     1      22.643   2.911  48.059  1.00  0.00     0.232 A 
HETATM    9  N2  UNL     1      21.933   2.178  49.006  1.00  0.00    -0.257 N 
HETATM   10  C10 UNL     1      21.516   0.968  48.981  1.00  0.00     0.094 C 
HETATM   11  C11 UNL     1      20.910   1.079  50.344  1.00  0.00     0.074 C 
HETATM   12  C12 UNL     1      19.799   2.060  50.339  1.00  0.00    -0.021 C 
HETATM   13  C13 UNL     1      20.074   3.131  51.041  1.00  0.00     0.005 C 
HETATM   14  C14 UNL     1      21.351   3.259  51.721  1.00  0.00    -0.036 A 
HETATM   15  C15 UNL     1      22.539   3.203  52.271  1.00  0.00     0.209 A 
HETATM   16  I1  UNL     1      24.323   2.217  52.673  1.00  0.00    -0.183 I 
HETATM   17  O3  UNL     1      21.928   4.370  52.435  1.00  0.00     0.000 OA
HETATM   18  C16 UNL     1      21.934   5.592  51.621  1.00  0.00     0.045 C 
ENDROOT
BRANCH   1  19
HETATM   19  O1  UNL     1      26.118   7.683  50.431  1.00  0.00    -0.353 OA
HETATM   20  C1  UNL     1      25.800   8.966  49.934  1.00  0.00     0.210 C 
ENDBRANCH   1  19
BRANCH   6  21
HETATM   21  O2  UNL     1      26.669   5.880  48.468  1.00  0.00    -0.353 OA
HETATM   22  C8  UNL     1      27.737   4.966  48.626  1.00  0.00     0.210 C 
ENDBRANCH   6  21
TORSDOF 2
ENDMDL
MODEL 7
REMARK VINA RESULT:      -6.3      2.384      3.553
REMARK  2 active torsions:
REMARK  status: ('A' for Active; 'I' for Inactive)
REMARK    1  A    between atoms: O1_2  and  C2_3 
REMARK    2  A    between atoms: C7_8  and  O2_9 
ROOT
HETATM    1  C2  UNL     1      17.639   1.467  51.556  1.00  0.00     0.102 A 
HETATM    2  C3  UNL     1      18.441   2.571  51.627  1.00  0.00     0.049 A 
HETATM    3  C4  UNL     1      19.794   2.614  51.958  1.00  0.00    -0.026 A 
HETATM    4  C5  UNL     1      20.403   1.387  52.249  1.00  0.00     0.067 A 
HETATM    5  C6  UNL     1      19.600   0.269  52.180  1.00  0.00     0.071 A 
HETATM    6  C7  UNL     1      18.239   0.236  51.847  1.00  0.00     0.103 A 
HETATM    7  N1  UNL     1      21.685   0.974  52.602  1.00  0.00    -0.243 N 
HETATM    8  C9  UNL     1      22.112   0.050  53.338  1.00  0.00     0.232 A 
HETATM    9  N2  UNL     1      23.145   0.793  52.772  1.00  0.00    -0.257 N 
HETATM   10  C10 UNL     1      24.384   0.513  52.614  1.00  0.00     0.094 C 
HETATM   11  C11 UNL     1      24.667   1.828  51.963  1.00  0.00     0.074 C 
HETATM   12  C12 UNL     1      24.458   2.938  52.923  1.00  0.00    -0.021 C 
HETATM   13  C13 UNL     1      23.435   3.690  52.603  1.00  0.00     0.005 C 
HETATM   14  C14 UNL     1      22.648   3.400  51.417  1.00  0.00    -0.036 A 
HETATM   15  C15 UNL     1      22.061   3.000  50.316  1.00  0.00     0.209 A 
HETATM   16  I1  UNL     1      21.919   1.732  48.676  1.00  0.00    -0.183 I 
HETATM   17  O3  UNL     1      21.427   3.990  50.931  1.00  0.00     0.000 OA
HETATM   18  C16 UNL     1      20.376   3.982  51.958  1.00  0.00     0.045 C 
ENDROOT
BRANCH   1  19
HETATM   19  O1  UNL     1      16.295   1.514  51.219  1.00  0.00    -0.353 OA
HETATM   20  C1  UNL     1      15.458   2.370  51.966  1.00  0.00     0.210 C 
ENDBRANCH   1  19
BRANCH   6  21
HETATM   21  O2  UNL     1      17.436  -0.893  51.779  1.00  0.00    -0.353 OA
HETATM   22  C8  UNL     1      17.087  -1.601  52.953  1.00  0.00     0.210 C 
ENDBRANCH   6  21
TORSDOF 2
ENDMDL
MODEL 8
REMARK VINA RESULT:      -6.2      8.870     10.558
REMARK  2 active torsions:
REMARK  status: ('A' for Active; 'I' for Inactive)
REMARK    1  A    between atoms: O1_2  and  C2_3 
REMARK    2  A    between atoms: C7_8  and  O2_9 
ROOT
HETATM    1  C2  UNL     1      31.652   5.178  48.230  1.00  0.00     0.102 A 
HETATM    2  C3  UNL     1      30.327   5.450  48.031  1.00  0.00     0.049 A 
HETATM    3  C4  UNL     1      29.678   6.670  48.208  1.00  0.00    -0.026 A 
HETATM    4  C5  UNL     1      30.471   7.740  48.639  1.00  0.00     0.067 A 
HETATM    5  C6  UNL     1      31.808   7.474  48.842  1.00  0.00     0.071 A 
HETATM    6  C7  UNL     1      32.453   6.242  48.660  1.00  0.00     0.103 A 
HETATM    7  N1  UNL     1      30.255   9.086  48.922  1.00  0.00    -0.243 N 
HETATM    8  C9  UNL     1      30.763   9.876  49.756  1.00  0.00     0.232 A 
HETATM    9  N2  UNL     1      29.793  10.493  48.970  1.00  0.00    -0.257 N 
HETATM   10  C10 UNL     1      29.575  11.732  48.735  1.00  0.00     0.094 C 
HETATM   11  C11 UNL     1      28.412  11.427  47.846  1.00  0.00     0.074 C 
HETATM   12  C12 UNL     1      27.317  10.798  48.621  1.00  0.00    -0.021 C 
HETATM   13  C13 UNL     1      27.120   9.548  48.286  1.00  0.00     0.005 C 
HETATM   14  C14 UNL     1      27.929   8.925  47.252  1.00  0.00    -0.036 A 
HETATM   15  C15 UNL     1      28.740   8.531  46.301  1.00  0.00     0.209 A 
HETATM   16  I1  UNL     1      30.252   8.890  44.922  1.00  0.00    -0.183 I 
HETATM   17  O3  UNL     1      27.990   7.557  46.802  1.00  0.00     0.000 OA
HETATM   18  C16 UNL     1      28.220   6.630  47.918  1.00  0.00     0.045 C 
ENDROOT
BRANCH   1  19
HETATM   19  O1  UNL     1      32.218   3.929  48.029  1.00  0.00    -0.353 OA
HETATM   20  C1  UNL     1      32.102   3.351  46.746  1.00  0.00     0.210 C 
ENDBRANCH   1  19
BRANCH   6  21
HETATM   21  O2  UNL     1      33.799   5.980  48.866  1.00  0.00    -0.353 OA
HETATM   22  C8  UNL     1      34.788   6.880  48.404  1.00  0.00     0.210 C 
ENDBRANCH   6  21
TORSDOF 2
ENDMDL
MODEL 9
REMARK VINA RESULT:      -6.0      6.615      9.414
REMARK  2 active torsions:
REMARK  status: ('A' for Active; 'I' for Inactive)
REMARK    1  A    between atoms: O1_2  and  C2_3 
REMARK    2  A    between atoms: C7_8  and  O2_9 
ROOT
HETATM    1  C2  UNL     1      28.175   5.580  48.452  1.00  0.00     0.102 A 
HETATM    2  C3  UNL     1      27.381   6.671  48.667  1.00  0.00     0.049 A 
HETATM    3  C4  UNL     1      27.740   8.013  48.558  1.00  0.00    -0.026 A 
HETATM    4  C5  UNL     1      29.064   8.275  48.183  1.00  0.00     0.067 A 
HETATM    5  C6  UNL     1      29.871   7.179  47.964  1.00  0.00     0.071 A 
HETATM    6  C7  UNL     1      29.500   5.831  48.078  1.00  0.00     0.103 A 
HETATM    7  N1  UNL     1      29.822   9.418  47.949  1.00  0.00    -0.243 N 
HETATM    8  C9  UNL     1      31.035   9.691  48.131  1.00  0.00     0.232 A 
HETATM    9  N2  UNL     1      30.330  10.761  47.585  1.00  0.00    -0.257 N 
HETATM   10  C10 UNL     1      30.744  11.801  46.963  1.00  0.00     0.094 C 
HETATM   11  C11 UNL     1      29.356  12.325  46.780  1.00  0.00     0.074 C 
HETATM   12  C12 UNL     1      28.748  12.655  48.090  1.00  0.00    -0.021 C 
HETATM   13  C13 UNL     1      27.753  11.860  48.395  1.00  0.00     0.005 C 
HETATM   14  C14 UNL     1      27.352  10.799  47.488  1.00  0.00    -0.036 A 
HETATM   15  C15 UNL     1      27.122   9.908  46.555  1.00  0.00     0.209 A 
HETATM   16  I1  UNL     1      27.512   9.064  44.697  1.00  0.00    -0.183 I 
HETATM   17  O3  UNL     1      26.392   9.737  47.650  1.00  0.00     0.000 OA
HETATM   18  C16 UNL     1      26.642   8.964  48.874  1.00  0.00     0.045 C 
ENDROOT
BRANCH   1  19
HETATM   19  O1  UNL     1      27.735   4.272  48.585  1.00  0.00    -0.353 OA
HETATM   20  C1  UNL     1      26.631   4.031  49.430  1.00  0.00     0.210 C 
ENDBRANCH   1  19
BRANCH   6  21
HETATM   21  O2  UNL     1      30.316   4.732  47.856  1.00  0.00    -0.353 OA
HETATM   22  C8  UNL     1      31.713   4.893  47.692  1.00  0.00     0.210 C 
ENDBRANCH   6  21
TORSDOF 2
ENDMDL
