MODEL 1
REMARK VINA RESULT:      -8.2      0.000      0.000
REMARK  2 active torsions:
REMARK  status: ('A' for Active; 'I' for Inactive)
REMARK    1  A    between atoms: C4_6  and  O1_7 
REMARK    2  A    between atoms: O1_7  and  C5_8 
ROOT
HETATM    1  F1  UNL     1      18.849  -0.017  52.661  1.00  0.00    -0.209 F 
HETATM    2  C1  UNL     1      20.163   0.295  52.886  1.00  0.00     0.116 C 
HETATM    3  C2  UNL     1      20.889   0.622  51.812  1.00  0.00     0.049 C 
HETATM    4 CL1  UNL     1      19.937   0.566  50.313  1.00  0.00    -0.086 Cl
HETATM    5  C3  UNL     1      22.232   1.019  51.434  1.00  0.00     0.090 C 
HETATM    6  C4  UNL     1      23.270   1.064  52.511  1.00  0.00     0.158 C 
HETATM    7  C13 UNL     1      23.190  -0.091  53.444  1.00  0.00     0.025 C 
HETATM    8  C14 UNL     1      22.097  -0.398  54.172  1.00  0.00     0.017 C 
HETATM    9 CL2  UNL     1      22.316  -1.836  55.191  1.00  0.00    -0.089 Cl
HETATM   10  C15 UNL     1      20.780   0.284  54.233  1.00  0.00     0.122 C 
ENDROOT
BRANCH   6  11
HETATM   11  O1  UNL     1      24.520   0.985  51.852  1.00  0.00    -0.342 OA
BRANCH  11  12
HETATM   12  C5  UNL     1      25.749   1.100  52.433  1.00  0.00     0.070 A 
HETATM   13  C6  UNL     1      26.398   2.178  52.997  1.00  0.00     0.039 A 
HETATM   14  C7  UNL     1      27.662   2.049  53.534  1.00  0.00     0.035 A 
HETATM   15  C8  UNL     1      28.299   0.826  53.511  1.00  0.00     0.062 A 
HETATM   16  C9  UNL     1      27.694  -0.285  52.959  1.00  0.00    -0.022 A 
HETATM   17  N1  UNL     1      29.589   0.487  54.006  1.00  0.00    -0.264 NA
HETATM   18  C10 UNL     1      26.417  -0.130  52.423  1.00  0.00     0.046 A 
HETATM   19  C11 UNL     1      28.656  -1.399  53.110  1.00  0.00     0.088 A 
HETATM   20  C12 UNL     1      29.810  -0.760  53.791  1.00  0.00     0.095 A 
ENDBRANCH  11  12
ENDBRANCH   6  11
TORSDOF 2
ENDMDL
MODEL 2
REMARK VINA RESULT:      -8.0      4.316      5.657
REMARK  2 active torsions:
REMARK  status: ('A' for Active; 'I' for Inactive)
REMARK    1  A    between atoms: C4_6  and  O1_7 
REMARK    2  A    between atoms: O1_7  and  C5_8 
ROOT
HETATM    1  F1  UNL     1      24.640  -1.417  55.589  1.00  0.00    -0.209 F 
HETATM    2  C1  UNL     1      25.120  -0.494  54.699  1.00  0.00     0.116 C 
HETATM    3  C2  UNL     1      24.294  -0.132  53.713  1.00  0.00     0.049 C 
HETATM    4 CL1  UNL     1      22.728  -0.968  53.805  1.00  0.00    -0.086 Cl
HETATM    5  C3  UNL     1      24.231   0.736  52.552  1.00  0.00     0.090 C 
HETATM    6  C4  UNL     1      25.466   1.503  52.193  1.00  0.00     0.158 C 
HETATM    7  C13 UNL     1      26.707   0.695  52.313  1.00  0.00     0.025 C 
HETATM    8  C14 UNL     1      27.113   0.100  53.454  1.00  0.00     0.017 C 
HETATM    9 CL2  UNL     1      28.637  -0.793  53.275  1.00  0.00    -0.089 Cl
HETATM   10  C15 UNL     1      26.477   0.095  54.795  1.00  0.00     0.122 C 
ENDROOT
BRANCH   6  11
HETATM   11  O1  UNL     1      25.324   1.854  50.829  1.00  0.00    -0.342 OA
BRANCH  11  12
HETATM   12  C5  UNL     1      25.369   3.115  50.311  1.00  0.00     0.070 A 
HETATM   13  C6  UNL     1      24.426   4.120  50.263  1.00  0.00     0.039 A 
HETATM   14  C7  UNL     1      24.707   5.336  49.676  1.00  0.00     0.035 A 
HETATM   15  C8  UNL     1      25.950   5.563  49.123  1.00  0.00     0.062 A 
HETATM   16  C9  UNL     1      26.929   4.591  49.144  1.00  0.00    -0.022 A 
HETATM   17  N1  UNL     1      26.433   6.734  48.477  1.00  0.00    -0.264 NA
HETATM   18  C10 UNL     1      26.621   3.371  49.742  1.00  0.00     0.046 A 
HETATM   19  C11 UNL     1      28.110   5.177  48.471  1.00  0.00     0.088 A 
HETATM   20  C12 UNL     1      27.647   6.540  48.102  1.00  0.00     0.095 A 
ENDBRANCH  11  12
ENDBRANCH   6  11
TORSDOF 2
ENDMDL
MODEL 3
REMARK VINA RESULT:      -7.8      4.269      7.353
REMARK  2 active torsions:
REMARK  status: ('A' for Active; 'I' for Inactive)
REMARK    1  A    between atoms: C4_6  and  O1_7 
REMARK    2  A    between atoms: O1_7  and  C5_8 
ROOT
HETATM    1  F1  UNL     1      30.043   1.208  53.465  1.00  0.00    -0.209 F 
HETATM    2  C1  UNL     1      28.676   1.141  53.427  1.00  0.00     0.116 C 
HETATM    3  C2  UNL     1      28.137  -0.076  53.546  1.00  0.00     0.049 C 
HETATM    4 CL1  UNL     1      29.368  -1.344  53.729  1.00  0.00    -0.086 Cl
HETATM    5  C3  UNL     1      26.848  -0.744  53.578  1.00  0.00     0.090 C 
HETATM    6  C4  UNL     1      25.629   0.096  53.358  1.00  0.00     0.158 C 
HETATM    7  C13 UNL     1      25.797   1.094  52.271  1.00  0.00     0.025 C 
HETATM    8  C14 UNL     1      26.752   2.047  52.263  1.00  0.00     0.017 C 
HETATM    9 CL2  UNL     1      26.692   3.087  50.826  1.00  0.00    -0.089 Cl
HETATM   10  C15 UNL     1      27.810   2.333  53.265  1.00  0.00     0.122 C 
ENDROOT
BRANCH   6  11
HETATM   11  O1  UNL     1      24.609  -0.799  52.952  1.00  0.00    -0.342 OA
BRANCH  11  12
HETATM   12  C5  UNL     1      23.293  -0.739  53.309  1.00  0.00     0.070 A 
HETATM   13  C6  UNL     1      22.651  -1.034  54.493  1.00  0.00     0.039 A 
HETATM   14  C7  UNL     1      21.284  -0.892  54.618  1.00  0.00     0.035 A 
HETATM   15  C8  UNL     1      20.537  -0.449  53.548  1.00  0.00     0.062 A 
HETATM   16  C9  UNL     1      21.130  -0.140  52.341  1.00  0.00    -0.022 A 
HETATM   17  N1  UNL     1      19.132  -0.239  53.473  1.00  0.00    -0.264 NA
HETATM   18  C10 UNL     1      22.511  -0.291  52.238  1.00  0.00     0.046 A 
HETATM   19  C11 UNL     1      20.038   0.294  51.441  1.00  0.00     0.088 A 
HETATM   20  C12 UNL     1      18.830   0.180  52.296  1.00  0.00     0.095 A 
ENDBRANCH  11  12
ENDBRANCH   6  11
TORSDOF 2
ENDMDL
MODEL 4
REMARK VINA RESULT:      -7.5      4.975      6.388
REMARK  2 active torsions:
REMARK  status: ('A' for Active; 'I' for Inactive)
REMARK    1  A    between atoms: C4_6  and  O1_7 
REMARK    2  A    between atoms: O1_7  and  C5_8 
ROOT
HETATM    1  F1  UNL     1      27.233   7.287  47.793  1.00  0.00    -0.209 F 
HETATM    2  C1  UNL     1      26.502   6.417  48.558  1.00  0.00     0.116 C 
HETATM    3  C2  UNL     1      27.089   5.256  48.863  1.00  0.00     0.049 C 
HETATM    4 CL1  UNL     1      28.723   5.125  48.176  1.00  0.00    -0.086 Cl
HETATM    5  C3  UNL     1      26.845   4.021  49.585  1.00  0.00     0.090 C 
HETATM    6  C4  UNL     1      25.493   3.834  50.198  1.00  0.00     0.158 C 
HETATM    7  C13 UNL     1      24.385   4.278  49.312  1.00  0.00     0.025 C 
HETATM    8  C14 UNL     1      24.262   5.532  48.830  1.00  0.00     0.017 C 
HETATM    9 CL2  UNL     1      22.833   5.750  47.800  1.00  0.00    -0.089 Cl
HETATM   10  C15 UNL     1      25.134   6.716  49.041  1.00  0.00     0.122 C 
ENDROOT
BRANCH   6  11
HETATM   11  O1  UNL     1      25.342   2.439  50.390  1.00  0.00    -0.342 OA
BRANCH  11  12
HETATM   12  C5  UNL     1      25.581   1.753  51.545  1.00  0.00     0.070 A 
HETATM   13  C6  UNL     1      24.733   1.105  52.418  1.00  0.00     0.039 A 
HETATM   14  C7  UNL     1      25.216   0.467  53.542  1.00  0.00     0.035 A 
HETATM   15  C8  UNL     1      26.569   0.471  53.808  1.00  0.00     0.062 A 
HETATM   16  C9  UNL     1      27.461   1.105  52.968  1.00  0.00    -0.022 A 
HETATM   17  N1  UNL     1      27.259  -0.121  54.901  1.00  0.00    -0.264 NA
HETATM   18  C10 UNL     1      26.949   1.742  51.839  1.00  0.00     0.046 A 
HETATM   19  C11 UNL     1      28.802   0.905  53.560  1.00  0.00     0.088 A 
HETATM   20  C12 UNL     1      28.518   0.110  54.782  1.00  0.00     0.095 A 
ENDBRANCH  11  12
ENDBRANCH   6  11
TORSDOF 2
ENDMDL
MODEL 5
REMARK VINA RESULT:      -7.5      4.790      5.846
REMARK  2 active torsions:
REMARK  status: ('A' for Active; 'I' for Inactive)
REMARK    1  A    between atoms: C4_6  and  O1_7 
REMARK    2  A    between atoms: O1_7  and  C5_8 
ROOT
HETATM    1  F1  UNL     1      22.642  -0.249  53.258  1.00  0.00    -0.209 F 
HETATM    2  C1  UNL     1      23.689   0.528  52.839  1.00  0.00     0.116 C 
HETATM    3  C2  UNL     1      23.484   1.261  51.741  1.00  0.00     0.049 C 
HETATM    4 CL1  UNL     1      21.850   1.037  51.077  1.00  0.00    -0.086 Cl
HETATM    5  C3  UNL     1      24.156   2.210  50.872  1.00  0.00     0.090 C 
HETATM    6  C4  UNL     1      25.592   2.516  51.163  1.00  0.00     0.158 C 
HETATM    7  C13 UNL     1      26.384   1.309  51.516  1.00  0.00     0.025 C 
HETATM    8  C14 UNL     1      26.096   0.494  52.551  1.00  0.00     0.017 C 
HETATM    9 CL2  UNL     1      27.230  -0.863  52.713  1.00  0.00    -0.089 Cl
HETATM   10  C15 UNL     1      24.993   0.578  53.542  1.00  0.00     0.122 C 
ENDROOT
BRANCH   6  11
HETATM   11  O1  UNL     1      26.131   3.033  49.960  1.00  0.00    -0.342 OA
BRANCH  11  12
HETATM   12  C5  UNL     1      26.269   4.353  49.640  1.00  0.00     0.070 A 
HETATM   13  C6  UNL     1      25.478   5.449  49.912  1.00  0.00     0.039 A 
HETATM   14  C7  UNL     1      25.830   6.709  49.475  1.00  0.00     0.035 A 
HETATM   15  C8  UNL     1      26.991   6.889  48.752  1.00  0.00     0.062 A 
HETATM   16  C9  UNL     1      27.817   5.825  48.453  1.00  0.00    -0.022 A 
HETATM   17  N1  UNL     1      27.525   8.092  48.217  1.00  0.00    -0.264 NA
HETATM   18  C10 UNL     1      27.441   4.562  48.904  1.00  0.00     0.046 A 
HETATM   19  C11 UNL     1      28.948   6.384  47.679  1.00  0.00     0.088 A 
HETATM   20  C12 UNL     1      28.627   7.832  47.609  1.00  0.00     0.095 A 
ENDBRANCH  11  12
ENDBRANCH   6  11
TORSDOF 2
ENDMDL
MODEL 6
REMARK VINA RESULT:      -7.3      3.629      4.813
REMARK  2 active torsions:
REMARK  status: ('A' for Active; 'I' for Inactive)
REMARK    1  A    between atoms: C4_6  and  O1_7 
REMARK    2  A    between atoms: O1_7  and  C5_8 
ROOT
HETATM    1  F1  UNL     1      22.666   4.592  47.095  1.00  0.00    -0.209 F 
HETATM    2  C1  UNL     1      23.048   4.531  48.409  1.00  0.00     0.116 C 
HETATM    3  C2  UNL     1      23.068   3.317  48.967  1.00  0.00     0.049 C 
HETATM    4 CL1  UNL     1      22.577   2.044  47.828  1.00  0.00    -0.086 Cl
HETATM    5  C3  UNL     1      23.361   2.655  50.225  1.00  0.00     0.090 C 
HETATM    6  C4  UNL     1      23.723   3.519  51.393  1.00  0.00     0.158 C 
HETATM    7  C13 UNL     1      22.878   4.737  51.500  1.00  0.00     0.025 C 
HETATM    8  C14 UNL     1      22.774   5.670  50.531  1.00  0.00     0.017 C 
HETATM    9 CL2  UNL     1      21.687   7.006  50.960  1.00  0.00    -0.089 Cl
HETATM   10  C15 UNL     1      23.427   5.726  49.199  1.00  0.00     0.122 C 
ENDROOT
BRANCH   6  11
HETATM   11  O1  UNL     1      23.478   2.736  52.547  1.00  0.00    -0.342 OA
BRANCH  11  12
HETATM   12  C5  UNL     1      24.260   1.720  53.014  1.00  0.00     0.070 A 
HETATM   13  C6  UNL     1      23.977   0.400  53.294  1.00  0.00     0.039 A 
HETATM   14  C7  UNL     1      24.951  -0.455  53.767  1.00  0.00     0.035 A 
HETATM   15  C8  UNL     1      26.234   0.007  53.968  1.00  0.00     0.062 A 
HETATM   16  C9  UNL     1      26.571   1.319  53.704  1.00  0.00    -0.022 A 
HETATM   17  N1  UNL     1      27.369  -0.705  54.444  1.00  0.00    -0.264 NA
HETATM   18  C10 UNL     1      25.570   2.163  53.227  1.00  0.00     0.046 A 
HETATM   19  C11 UNL     1      28.008   1.453  54.031  1.00  0.00     0.088 A 
HETATM   20  C12 UNL     1      28.379   0.089  54.487  1.00  0.00     0.095 A 
ENDBRANCH  11  12
ENDBRANCH   6  11
TORSDOF 2
ENDMDL
MODEL 7
REMARK VINA RESULT:      -7.3      4.722      6.694
REMARK  2 active torsions:
REMARK  status: ('A' for Active; 'I' for Inactive)
REMARK    1  A    between atoms: C4_6  and  O1_7 
REMARK    2  A    between atoms: O1_7  and  C5_8 
ROOT
HETATM    1  F1  UNL     1      26.311   7.503  49.322  1.00  0.00    -0.209 F 
HETATM    2  C1  UNL     1      25.627   6.529  49.999  1.00  0.00     0.116 C 
HETATM    3  C2  UNL     1      25.983   5.266  49.744  1.00  0.00     0.049 C 
HETATM    4 CL1  UNL     1      27.296   5.163  48.551  1.00  0.00    -0.086 Cl
HETATM    5  C3  UNL     1      25.655   3.902  50.116  1.00  0.00     0.090 C 
HETATM    6  C4  UNL     1      24.510   3.698  51.058  1.00  0.00     0.158 C 
HETATM    7  C13 UNL     1      23.345   4.568  50.754  1.00  0.00     0.025 C 
HETATM    8  C14 UNL     1      23.397   5.916  50.724  1.00  0.00     0.017 C 
HETATM    9 CL2  UNL     1      21.838   6.669  50.331  1.00  0.00    -0.089 Cl
HETATM   10  C15 UNL     1      24.547   6.822  50.969  1.00  0.00     0.122 C 
ENDROOT
BRANCH   6  11
HETATM   11  O1  UNL     1      24.092   2.358  50.877  1.00  0.00    -0.342 OA
BRANCH  11  12
HETATM   12  C5  UNL     1      23.965   1.412  51.853  1.00  0.00     0.070 A 
HETATM   13  C6  UNL     1      24.907   0.721  52.586  1.00  0.00     0.039 A 
HETATM   14  C7  UNL     1      24.532  -0.204  53.537  1.00  0.00     0.035 A 
HETATM   15  C8  UNL     1      23.195  -0.453  53.768  1.00  0.00     0.062 A 
HETATM   16  C9  UNL     1      22.213   0.211  53.062  1.00  0.00    -0.022 A 
HETATM   17  N1  UNL     1      22.608  -1.358  54.694  1.00  0.00    -0.264 NA
HETATM   18  C10 UNL     1      22.616   1.142  52.106  1.00  0.00     0.046 A 
HETATM   19  C11 UNL     1      20.920  -0.301  53.568  1.00  0.00     0.088 A 
HETATM   20  C12 UNL     1      21.328  -1.289  54.599  1.00  0.00     0.095 A 
ENDBRANCH  11  12
ENDBRANCH   6  11
TORSDOF 2
ENDMDL
MODEL 8
REMARK VINA RESULT:      -7.2      3.476      4.487
REMARK  2 active torsions:
REMARK  status: ('A' for Active; 'I' for Inactive)
REMARK    1  A    between atoms: C4_6  and  O1_7 
REMARK    2  A    between atoms: O1_7  and  C5_8 
ROOT
HETATM    1  F1  UNL     1      21.689   7.180  50.931  1.00  0.00    -0.209 F 
HETATM    2  C1  UNL     1      21.905   5.838  51.100  1.00  0.00     0.116 C 
HETATM    3  C2  UNL     1      23.168   5.463  51.324  1.00  0.00     0.049 C 
HETATM    4 CL1  UNL     1      24.287   6.844  51.349  1.00  0.00    -0.086 Cl
HETATM    5  C3  UNL     1      23.970   4.277  51.563  1.00  0.00     0.090 C 
HETATM    6  C4  UNL     1      23.277   2.952  51.510  1.00  0.00     0.158 C 
HETATM    7  C13 UNL     1      22.308   2.846  50.388  1.00  0.00     0.025 C 
HETATM    8  C14 UNL     1      21.259   3.675  50.218  1.00  0.00     0.017 C 
HETATM    9 CL2  UNL     1      20.287   3.289  48.783  1.00  0.00    -0.089 Cl
HETATM   10  C15 UNL     1      20.822   4.829  51.043  1.00  0.00     0.122 C 
ENDROOT
BRANCH   6  11
HETATM   11  O1  UNL     1      24.292   1.991  51.281  1.00  0.00    -0.342 OA
BRANCH  11  12
HETATM   12  C5  UNL     1      24.957   1.276  52.234  1.00  0.00     0.070 A 
HETATM   13  C6  UNL     1      24.529   0.307  53.116  1.00  0.00     0.039 A 
HETATM   14  C7  UNL     1      25.403  -0.286  54.003  1.00  0.00     0.035 A 
HETATM   15  C8  UNL     1      26.730   0.088  54.019  1.00  0.00     0.062 A 
HETATM   16  C9  UNL     1      27.210   1.054  53.157  1.00  0.00    -0.022 A 
HETATM   17  N1  UNL     1      27.779  -0.396  54.847  1.00  0.00    -0.264 NA
HETATM   18  C10 UNL     1      26.308   1.638  52.270  1.00  0.00     0.046 A 
HETATM   19  C11 UNL     1      28.653   1.194  53.453  1.00  0.00     0.088 A 
HETATM   20  C12 UNL     1      28.871   0.212  54.546  1.00  0.00     0.095 A 
ENDBRANCH  11  12
ENDBRANCH   6  11
TORSDOF 2
ENDMDL
MODEL 9
REMARK VINA RESULT:      -7.1      4.211      6.039
REMARK  2 active torsions:
REMARK  status: ('A' for Active; 'I' for Inactive)
REMARK    1  A    between atoms: C4_6  and  O1_7 
REMARK    2  A    between atoms: O1_7  and  C5_8 
ROOT
HETATM    1  F1  UNL     1      23.674   6.500  50.297  1.00  0.00    -0.209 F 
HETATM    2  C1  UNL     1      24.189   5.231  50.307  1.00  0.00     0.116 C 
HETATM    3  C2  UNL     1      24.087   4.556  51.456  1.00  0.00     0.049 C 
HETATM    4 CL1  UNL     1      23.282   5.505  52.725  1.00  0.00    -0.086 Cl
HETATM    5  C3  UNL     1      24.417   3.273  52.047  1.00  0.00     0.090 C 
HETATM    6  C4  UNL     1      25.185   2.301  51.206  1.00  0.00     0.158 C 
HETATM    7  C13 UNL     1      26.279   2.941  50.430  1.00  0.00     0.025 C 
HETATM    8  C14 UNL     1      26.089   3.936  49.539  1.00  0.00     0.017 C 
HETATM    9 CL2  UNL     1      27.593   4.489  48.775  1.00  0.00    -0.089 Cl
HETATM   10  C15 UNL     1      24.831   4.608  49.126  1.00  0.00     0.122 C 
ENDROOT
BRANCH   6  11
HETATM   11  O1  UNL     1      25.788   1.395  52.111  1.00  0.00    -0.342 OA
BRANCH  11  12
HETATM   12  C5  UNL     1      25.138   0.590  53.001  1.00  0.00     0.070 A 
HETATM   13  C6  UNL     1      25.579  -0.075  54.125  1.00  0.00     0.039 A 
HETATM   14  C7  UNL     1      24.719  -0.844  54.882  1.00  0.00     0.035 A 
HETATM   15  C8  UNL     1      23.394  -0.959  54.518  1.00  0.00     0.062 A 
HETATM   16  C9  UNL     1      22.902  -0.314  53.402  1.00  0.00    -0.022 A 
HETATM   17  N1  UNL     1      22.359  -1.695  55.157  1.00  0.00    -0.264 NA
HETATM   18  C10 UNL     1      23.789   0.457  52.653  1.00  0.00     0.046 A 
HETATM   19  C11 UNL     1      21.465  -0.659  53.323  1.00  0.00     0.088 A 
HETATM   20  C12 UNL     1      21.264  -1.540  54.501  1.00  0.00     0.095 A 
ENDBRANCH  11  12
ENDBRANCH   6  11
TORSDOF 2
ENDMDL
