MODEL 1
REMARK VINA RESULT:      -7.1      0.000      0.000
REMARK  2 active torsions:
REMARK  status: ('A' for Active; 'I' for Inactive)
REMARK    1  A    between atoms: C2_2  and  C3_3 
REMARK    2  A    between atoms: C4_4  and  C5_5 
ROOT
HETATM    1  C5  UNL     1      23.753   3.634  49.185  1.00  0.00     0.076 C 
HETATM    2  C6  UNL     1      22.967   2.611  49.734  1.00  0.00     0.009 A 
HETATM    3  C7  UNL     1      22.038   1.676  49.235  1.00  0.00     0.051 A 
HETATM    4  C8  UNL     1      21.192   0.605  49.375  1.00  0.00    -0.008 A 
HETATM    5  C9  UNL     1      21.294   0.257  50.739  1.00  0.00    -0.004 A 
HETATM    6  C10 UNL     1      22.117   0.935  51.690  1.00  0.00     0.007 A 
HETATM    7  C11 UNL     1      22.550   1.767  50.762  1.00  0.00     0.091 A 
HETATM    8  N1  UNL     1      22.731   3.042  51.581  1.00  0.00    -0.275 N 
HETATM    9  C12 UNL     1      21.783   4.144  50.867  1.00  0.00     0.113 C 
HETATM   10  C13 UNL     1      21.752   5.344  49.986  1.00  0.00     0.099 A 
HETATM   11  C14 UNL     1      22.512   6.620  50.778  1.00  0.00     0.132 C 
HETATM   12  C15 UNL     1      23.078   5.704  51.702  1.00  0.00    -0.084 C 
HETATM   13  C16 UNL     1      23.473   5.031  52.352  1.00  0.00     0.021 C 
HETATM   14  N2  UNL     1      24.012   4.061  53.251  1.00  0.00    -0.033 NA
HETATM   15  N3  UNL     1      23.607   2.782  52.699  1.00  0.00    -0.014 NA
HETATM   16  N4  UNL     1      21.108   4.933  48.773  1.00  0.00    -0.297 N 
HETATM   17  N5  UNL     1      21.416   3.904  48.013  1.00  0.00    -0.194 NA
HETATM   18  C17 UNL     1      21.776   2.642  48.082  1.00  0.00     0.128 C 
HETATM   19  H12 UNL     1      20.755   5.765  49.255  1.00  0.00     0.219 HD
ENDROOT
BRANCH   1  20
HETATM   20  C4  UNL     1      25.105   3.587  49.092  1.00  0.00    -0.046 C 
HETATM   21  C3  UNL     1      26.267   3.806  49.771  1.00  0.00     0.007 C 
BRANCH  21  22
HETATM   22  C2  UNL     1      27.316   4.420  49.002  1.00  0.00    -0.010 C 
HETATM   23  C1  UNL     1      27.223   5.660  48.586  1.00  0.00     0.011 C 
ENDBRANCH  21  22
ENDBRANCH   1  20
TORSDOF 2
ENDMDL
MODEL 2
REMARK VINA RESULT:      -7.1      1.792      5.040
REMARK  2 active torsions:
REMARK  status: ('A' for Active; 'I' for Inactive)
REMARK    1  A    between atoms: C2_2  and  C3_3 
REMARK    2  A    between atoms: C4_4  and  C5_5 
ROOT
HETATM    1  C5  UNL     1      23.766   3.213  49.640  1.00  0.00     0.076 C 
HETATM    2  C6  UNL     1      24.767   4.146  49.335  1.00  0.00     0.009 A 
HETATM    3  C7  UNL     1      26.175   4.128  49.274  1.00  0.00     0.051 A 
HETATM    4  C8  UNL     1      27.390   4.705  49.004  1.00  0.00    -0.008 A 
HETATM    5  C9  UNL     1      27.067   6.008  48.565  1.00  0.00    -0.004 A 
HETATM    6  C10 UNL     1      25.739   6.524  48.466  1.00  0.00     0.007 A 
HETATM    7  C11 UNL     1      25.234   5.380  48.886  1.00  0.00     0.091 A 
HETATM    8  N1  UNL     1      24.017   5.872  49.666  1.00  0.00    -0.275 N 
HETATM    9  C12 UNL     1      24.223   5.314  51.172  1.00  0.00     0.113 C 
HETATM   10  C13 UNL     1      23.791   4.297  52.170  1.00  0.00     0.099 A 
HETATM   11  C14 UNL     1      22.182   4.582  52.575  1.00  0.00     0.132 C 
HETATM   12  C15 UNL     1      22.050   5.424  51.440  1.00  0.00    -0.084 C 
HETATM   13  C16 UNL     1      21.978   6.023  50.623  1.00  0.00     0.021 C 
HETATM   14  N2  UNL     1      21.907   6.859  49.467  1.00  0.00    -0.033 NA
HETATM   15  N3  UNL     1      23.189   6.687  48.809  1.00  0.00    -0.014 NA
HETATM   16  N4  UNL     1      24.917   3.434  52.375  1.00  0.00    -0.297 N 
HETATM   17  N5  UNL     1      25.619   2.803  51.459  1.00  0.00    -0.194 NA
HETATM   18  C17 UNL     1      26.144   2.969  50.266  1.00  0.00     0.128 C 
HETATM   19  H12 UNL     1      24.467   3.853  53.195  1.00  0.00     0.219 HD
ENDROOT
BRANCH   1  20
HETATM   20  C4  UNL     1      22.892   2.711  48.732  1.00  0.00    -0.046 C 
HETATM   21  C3  UNL     1      22.152   3.014  47.629  1.00  0.00     0.007 C 
BRANCH  21  22
HETATM   22  C2  UNL     1      20.832   2.443  47.605  1.00  0.00    -0.010 C 
HETATM   23  C1  UNL     1      20.006   2.587  48.612  1.00  0.00     0.011 C 
ENDBRANCH  21  22
ENDBRANCH   1  20
TORSDOF 2
ENDMDL
MODEL 3
REMARK VINA RESULT:      -7.1      2.001      4.995
REMARK  2 active torsions:
REMARK  status: ('A' for Active; 'I' for Inactive)
REMARK    1  A    between atoms: C2_2  and  C3_3 
REMARK    2  A    between atoms: C4_4  and  C5_5 
ROOT
HETATM    1  C5  UNL     1      24.203   3.170  49.372  1.00  0.00     0.076 C 
HETATM    2  C6  UNL     1      24.457   4.479  49.806  1.00  0.00     0.009 A 
HETATM    3  C7  UNL     1      25.480   5.428  49.603  1.00  0.00     0.051 A 
HETATM    4  C8  UNL     1      26.036   6.672  49.758  1.00  0.00    -0.008 A 
HETATM    5  C9  UNL     1      25.097   7.377  50.543  1.00  0.00    -0.004 A 
HETATM    6  C10 UNL     1      23.870   6.828  51.029  1.00  0.00     0.007 A 
HETATM    7  C11 UNL     1      24.126   5.673  50.446  1.00  0.00     0.091 A 
HETATM    8  N1  UNL     1      23.492   4.703  51.441  1.00  0.00    -0.275 N 
HETATM    9  C12 UNL     1      24.695   3.724  51.906  1.00  0.00     0.113 C 
HETATM   10  C13 UNL     1      25.290   2.366  51.769  1.00  0.00     0.099 A 
HETATM   11  C14 UNL     1      24.221   1.237  52.414  1.00  0.00     0.132 C 
HETATM   12  C15 UNL     1      23.187   2.209  52.391  1.00  0.00    -0.084 C 
HETATM   13  C16 UNL     1      22.462   2.919  52.366  1.00  0.00     0.021 C 
HETATM   14  N2  UNL     1      21.464   3.940  52.318  1.00  0.00    -0.033 NA
HETATM   15  N3  UNL     1      22.106   5.051  51.642  1.00  0.00    -0.014 NA
HETATM   16  N4  UNL     1      26.544   2.544  51.099  1.00  0.00    -0.297 N 
HETATM   17  N5  UNL     1      26.763   3.178  49.967  1.00  0.00    -0.194 NA
HETATM   18  C17 UNL     1      26.420   4.262  49.308  1.00  0.00     0.128 C 
HETATM   19  H12 UNL     1      26.531   2.018  51.978  1.00  0.00     0.219 HD
ENDROOT
BRANCH   1  20
HETATM   20  C4  UNL     1      23.206   2.833  48.516  1.00  0.00    -0.046 C 
HETATM   21  C3  UNL     1      22.141   3.318  47.817  1.00  0.00     0.007 C 
BRANCH  21  22
HETATM   22  C2  UNL     1      20.987   2.460  47.792  1.00  0.00    -0.010 C 
HETATM   23  C1  UNL     1      20.734   1.626  48.770  1.00  0.00     0.011 C 
ENDBRANCH  21  22
ENDBRANCH   1  20
TORSDOF 2
ENDMDL
MODEL 4
REMARK VINA RESULT:      -6.9      8.137     11.810
REMARK  2 active torsions:
REMARK  status: ('A' for Active; 'I' for Inactive)
REMARK    1  A    between atoms: C2_2  and  C3_3 
REMARK    2  A    between atoms: C4_4  and  C5_5 
ROOT
HETATM    1  C5  UNL     1      32.656   6.107  48.101  1.00  0.00     0.076 C 
HETATM    2  C6  UNL     1      33.402   5.428  47.127  1.00  0.00     0.009 A 
HETATM    3  C7  UNL     1      34.469   4.508  47.134  1.00  0.00     0.051 A 
HETATM    4  C8  UNL     1      35.350   3.658  46.514  1.00  0.00    -0.008 A 
HETATM    5  C9  UNL     1      35.030   3.766  45.143  1.00  0.00    -0.004 A 
HETATM    6  C10 UNL     1      34.005   4.608  44.613  1.00  0.00     0.007 A 
HETATM    7  C11 UNL     1      33.687   5.027  45.822  1.00  0.00     0.091 A 
HETATM    8  N1  UNL     1      33.273   6.467  45.528  1.00  0.00    -0.275 N 
HETATM    9  C12 UNL     1      34.253   7.385  46.432  1.00  0.00     0.113 C 
HETATM   10  C13 UNL     1      34.356   8.224  47.658  1.00  0.00     0.099 A 
HETATM   11  C14 UNL     1      33.379   9.582  47.472  1.00  0.00     0.132 C 
HETATM   12  C15 UNL     1      32.723   8.954  46.381  1.00  0.00    -0.084 C 
HETATM   13  C16 UNL     1      32.267   8.487  45.603  1.00  0.00     0.021 C 
HETATM   14  N2  UNL     1      31.645   7.805  44.513  1.00  0.00    -0.033 NA
HETATM   15  N3  UNL     1      32.232   6.478  44.527  1.00  0.00    -0.014 NA
HETATM   16  N4  UNL     1      35.234   7.524  48.550  1.00  0.00    -0.297 N 
HETATM   17  N5  UNL     1      35.140   6.272  48.945  1.00  0.00    -0.194 NA
HETATM   18  C17 UNL     1      34.863   5.067  48.498  1.00  0.00     0.128 C 
HETATM   19  H12 UNL     1      35.436   8.506  48.338  1.00  0.00     0.219 HD
ENDROOT
BRANCH   1  20
HETATM   20  C4  UNL     1      31.349   5.860  48.366  1.00  0.00    -0.046 C 
HETATM   21  C3  UNL     1      30.207   5.308  47.866  1.00  0.00     0.007 C 
BRANCH  21  22
HETATM   22  C2  UNL     1      29.004   6.049  48.136  1.00  0.00    -0.010 C 
HETATM   23  C1  UNL     1      27.886   5.444  48.456  1.00  0.00     0.011 C 
ENDBRANCH  21  22
ENDBRANCH   1  20
TORSDOF 2
ENDMDL
MODEL 5
REMARK VINA RESULT:      -6.9      2.241      3.442
REMARK  2 active torsions:
REMARK  status: ('A' for Active; 'I' for Inactive)
REMARK    1  A    between atoms: C2_2  and  C3_3 
REMARK    2  A    between atoms: C4_4  and  C5_5 
ROOT
HETATM    1  C5  UNL     1      21.880   2.299  50.235  1.00  0.00     0.076 C 
HETATM    2  C6  UNL     1      22.702   1.640  51.161  1.00  0.00     0.009 A 
HETATM    3  C7  UNL     1      22.531   0.607  52.104  1.00  0.00     0.051 A 
HETATM    4  C8  UNL     1      22.999  -0.272  53.047  1.00  0.00    -0.008 A 
HETATM    5  C9  UNL     1      24.381   0.007  53.126  1.00  0.00    -0.004 A 
HETATM    6  C10 UNL     1      25.052   1.010  52.360  1.00  0.00     0.007 A 
HETATM    7  C11 UNL     1      23.925   1.341  51.758  1.00  0.00     0.091 A 
HETATM    8  N1  UNL     1      24.134   2.840  51.563  1.00  0.00    -0.275 N 
HETATM    9  C12 UNL     1      22.894   3.546  52.330  1.00  0.00     0.113 C 
HETATM   10  C13 UNL     1      21.588   4.241  52.162  1.00  0.00     0.099 A 
HETATM   11  C14 UNL     1      21.852   5.714  51.390  1.00  0.00     0.132 C 
HETATM   12  C15 UNL     1      23.147   5.277  51.009  1.00  0.00    -0.084 C 
HETATM   13  C16 UNL     1      24.070   4.945  50.747  1.00  0.00     0.021 C 
HETATM   14  N2  UNL     1      25.363   4.450  50.394  1.00  0.00    -0.033 NA
HETATM   15  N3  UNL     1      25.363   3.070  50.841  1.00  0.00    -0.014 NA
HETATM   16  N4  UNL     1      20.594   3.360  52.700  1.00  0.00    -0.297 N 
HETATM   17  N5  UNL     1      20.399   2.094  52.397  1.00  0.00    -0.194 NA
HETATM   18  C17 UNL     1      21.051   0.979  52.153  1.00  0.00     0.128 C 
HETATM   19  H12 UNL     1      20.619   4.328  53.033  1.00  0.00     0.219 HD
ENDROOT
BRANCH   1  20
HETATM   20  C4  UNL     1      22.002   2.178  48.890  1.00  0.00    -0.046 C 
HETATM   21  C3  UNL     1      22.761   2.533  47.814  1.00  0.00     0.007 C 
BRANCH  21  22
HETATM   22  C2  UNL     1      22.018   2.874  46.630  1.00  0.00    -0.010 C 
HETATM   23  C1  UNL     1      21.950   4.110  46.198  1.00  0.00     0.011 C 
ENDBRANCH  21  22
ENDBRANCH   1  20
TORSDOF 2
ENDMDL
MODEL 6
REMARK VINA RESULT:      -6.8      6.166      9.841
REMARK  2 active torsions:
REMARK  status: ('A' for Active; 'I' for Inactive)
REMARK    1  A    between atoms: C2_2  and  C3_3 
REMARK    2  A    between atoms: C4_4  and  C5_5 
ROOT
HETATM    1  C5  UNL     1      29.847   6.496  48.433  1.00  0.00     0.076 C 
HETATM    2  C6  UNL     1      30.906   6.366  47.524  1.00  0.00     0.009 A 
HETATM    3  C7  UNL     1      32.124   5.657  47.489  1.00  0.00     0.051 A 
HETATM    4  C8  UNL     1      33.277   5.245  46.870  1.00  0.00    -0.008 A 
HETATM    5  C9  UNL     1      33.229   5.861  45.600  1.00  0.00    -0.004 A 
HETATM    6  C10 UNL     1      32.176   6.716  45.152  1.00  0.00     0.007 A 
HETATM    7  C11 UNL     1      31.533   6.566  46.294  1.00  0.00     0.091 A 
HETATM    8  N1  UNL     1      30.884   7.941  46.441  1.00  0.00    -0.275 N 
HETATM    9  C12 UNL     1      31.433   8.523  47.848  1.00  0.00     0.113 C 
HETATM   10  C13 UNL     1      31.098   8.798  49.273  1.00  0.00     0.099 A 
HETATM   11  C14 UNL     1      29.906   9.986  49.331  1.00  0.00     0.132 C 
HETATM   12  C15 UNL     1      29.641   9.781  47.952  1.00  0.00    -0.084 C 
HETATM   13  C16 UNL     1      29.467   9.619  46.965  1.00  0.00     0.021 C 
HETATM   14  N2  UNL     1      29.246   9.368  45.576  1.00  0.00    -0.033 NA
HETATM   15  N3  UNL     1      30.093   8.231  45.268  1.00  0.00    -0.014 NA
HETATM   16  N4  UNL     1      31.905   7.908  50.053  1.00  0.00    -0.297 N 
HETATM   17  N5  UNL     1      32.008   6.602  49.925  1.00  0.00    -0.194 NA
HETATM   18  C17 UNL     1      32.098   5.658  49.015  1.00  0.00     0.128 C 
HETATM   19  H12 UNL     1      31.927   8.907  50.276  1.00  0.00     0.219 HD
ENDROOT
BRANCH   1  20
HETATM   20  C4  UNL     1      28.600   6.007  48.222  1.00  0.00    -0.046 C 
HETATM   21  C3  UNL     1      27.271   6.304  48.295  1.00  0.00     0.007 C 
BRANCH  21  22
HETATM   22  C2  UNL     1      26.435   5.239  48.780  1.00  0.00    -0.010 C 
HETATM   23  C1  UNL     1      26.945   4.118  49.229  1.00  0.00     0.011 C 
ENDBRANCH  21  22
ENDBRANCH   1  20
TORSDOF 2
ENDMDL
MODEL 7
REMARK VINA RESULT:      -6.7      9.623     11.950
REMARK  2 active torsions:
REMARK  status: ('A' for Active; 'I' for Inactive)
REMARK    1  A    between atoms: C2_2  and  C3_3 
REMARK    2  A    between atoms: C4_4  and  C5_5 
ROOT
HETATM    1  C5  UNL     1      33.856   7.523  46.095  1.00  0.00     0.076 C 
HETATM    2  C6  UNL     1      32.913   8.328  46.750  1.00  0.00     0.009 A 
HETATM    3  C7  UNL     1      32.784   9.703  47.031  1.00  0.00     0.051 A 
HETATM    4  C8  UNL     1      32.103  10.788  47.523  1.00  0.00    -0.008 A 
HETATM    5  C9  UNL     1      30.896  10.246  48.017  1.00  0.00    -0.004 A 
HETATM    6  C10 UNL     1      30.554   8.859  47.979  1.00  0.00     0.007 A 
HETATM    7  C11 UNL     1      31.693   8.567  47.380  1.00  0.00     0.091 A 
HETATM    8  N1  UNL     1      31.980   7.187  47.966  1.00  0.00    -0.275 N 
HETATM    9  C12 UNL     1      33.421   7.324  48.691  1.00  0.00     0.113 C 
HETATM   10  C13 UNL     1      34.873   7.004  48.599  1.00  0.00     0.099 A 
HETATM   11  C14 UNL     1      35.068   5.335  48.690  1.00  0.00     0.132 C 
HETATM   12  C15 UNL     1      33.683   5.163  48.434  1.00  0.00    -0.084 C 
HETATM   13  C16 UNL     1      32.690   5.062  48.250  1.00  0.00     0.021 C 
HETATM   14  N2  UNL     1      31.289   4.953  47.989  1.00  0.00    -0.033 NA
HETATM   15  N3  UNL     1      30.858   6.312  47.720  1.00  0.00    -0.014 NA
HETATM   16  N4  UNL     1      35.548   8.257  48.430  1.00  0.00    -0.297 N 
HETATM   17  N5  UNL     1      35.299   9.185  47.531  1.00  0.00    -0.194 NA
HETATM   18  C17 UNL     1      34.304   9.804  46.935  1.00  0.00     0.128 C 
HETATM   19  H12 UNL     1      35.861   7.631  49.178  1.00  0.00     0.219 HD
ENDROOT
BRANCH   1  20
HETATM   20  C4  UNL     1      33.630   6.896  44.913  1.00  0.00    -0.046 C 
HETATM   21  C3  UNL     1      32.691   6.242  44.173  1.00  0.00     0.007 C 
BRANCH  21  22
HETATM   22  C2  UNL     1      33.174   5.095  43.452  1.00  0.00    -0.010 C 
HETATM   23  C1  UNL     1      34.388   4.635  43.632  1.00  0.00     0.011 C 
ENDBRANCH  21  22
ENDBRANCH   1  20
TORSDOF 2
ENDMDL
MODEL 8
REMARK VINA RESULT:      -6.5      9.112     11.387
REMARK  2 active torsions:
REMARK  status: ('A' for Active; 'I' for Inactive)
REMARK    1  A    between atoms: C2_2  and  C3_3 
REMARK    2  A    between atoms: C4_4  and  C5_5 
ROOT
HETATM    1  C5  UNL     1      31.936   6.726  46.756  1.00  0.00     0.076 C 
HETATM    2  C6  UNL     1      33.159   6.712  47.443  1.00  0.00     0.009 A 
HETATM    3  C7  UNL     1      33.914   5.746  48.136  1.00  0.00     0.051 A 
HETATM    4  C8  UNL     1      35.031   5.330  48.816  1.00  0.00    -0.008 A 
HETATM    5  C9  UNL     1      35.861   6.472  48.853  1.00  0.00    -0.004 A 
HETATM    6  C10 UNL     1      35.523   7.739  48.287  1.00  0.00     0.007 A 
HETATM    7  C11 UNL     1      34.365   7.271  47.862  1.00  0.00     0.091 A 
HETATM    8  N1  UNL     1      33.486   8.511  47.999  1.00  0.00    -0.275 N 
HETATM    9  C12 UNL     1      32.288   8.077  48.997  1.00  0.00     0.113 C 
HETATM   10  C13 UNL     1      30.851   7.696  49.092  1.00  0.00     0.099 A 
HETATM   11  C14 UNL     1      29.908   9.022  48.657  1.00  0.00     0.132 C 
HETATM   12  C15 UNL     1      31.051   9.643  48.090  1.00  0.00    -0.084 C 
HETATM   13  C16 UNL     1      31.881  10.070  47.690  1.00  0.00     0.021 C 
HETATM   14  N2  UNL     1      33.067  10.644  47.137  1.00  0.00    -0.033 NA
HETATM   15  N3  UNL     1      34.070   9.604  47.257  1.00  0.00    -0.014 NA
HETATM   16  N4  UNL     1      30.827   6.319  49.488  1.00  0.00    -0.297 N 
HETATM   17  N5  UNL     1      31.457   5.313  48.920  1.00  0.00    -0.194 NA
HETATM   18  C17 UNL     1      32.611   4.990  48.381  1.00  0.00     0.128 C 
HETATM   19  H12 UNL     1      30.277   6.992  50.030  1.00  0.00     0.219 HD
ENDROOT
BRANCH   1  20
HETATM   20  C4  UNL     1      31.820   6.877  45.414  1.00  0.00    -0.046 C 
HETATM   21  C3  UNL     1      32.466   6.713  44.225  1.00  0.00     0.007 C 
BRANCH  21  22
HETATM   22  C2  UNL     1      32.270   7.773  43.273  1.00  0.00    -0.010 C 
HETATM   23  C1  UNL     1      32.295   9.032  43.636  1.00  0.00     0.011 C 
ENDBRANCH  21  22
ENDBRANCH   1  20
TORSDOF 2
ENDMDL
MODEL 9
REMARK VINA RESULT:      -6.5      2.277      5.026
REMARK  2 active torsions:
REMARK  status: ('A' for Active; 'I' for Inactive)
REMARK    1  A    between atoms: C2_2  and  C3_3 
REMARK    2  A    between atoms: C4_4  and  C5_5 
ROOT
HETATM    1  C5  UNL     1      21.636   4.351  51.085  1.00  0.00     0.076 C 
HETATM    2  C6  UNL     1      22.548   3.439  51.635  1.00  0.00     0.009 A 
HETATM    3  C7  UNL     1      23.596   3.504  52.575  1.00  0.00     0.051 A 
HETATM    4  C8  UNL     1      24.576   2.936  53.349  1.00  0.00    -0.008 A 
HETATM    5  C9  UNL     1      24.512   1.561  53.036  1.00  0.00    -0.004 A 
HETATM    6  C10 UNL     1      23.601   0.983  52.100  1.00  0.00     0.007 A 
HETATM    7  C11 UNL     1      23.066   2.163  51.851  1.00  0.00     0.091 A 
HETATM    8  N1  UNL     1      22.713   2.013  50.374  1.00  0.00    -0.275 N 
HETATM    9  C12 UNL     1      23.510   3.204  49.622  1.00  0.00     0.113 C 
HETATM   10  C13 UNL     1      23.387   4.538  48.971  1.00  0.00     0.099 A 
HETATM   11  C14 UNL     1      22.459   4.379  47.576  1.00  0.00     0.132 C 
HETATM   12  C15 UNL     1      22.014   3.108  48.022  1.00  0.00    -0.084 C 
HETATM   13  C16 UNL     1      21.708   2.201  48.360  1.00  0.00     0.021 C 
HETATM   14  N2  UNL     1      21.297   0.928  48.862  1.00  0.00    -0.033 NA
HETATM   15  N3  UNL     1      21.872   0.853  50.191  1.00  0.00    -0.014 NA
HETATM   16  N4  UNL     1      24.088   5.461  49.815  1.00  0.00    -0.297 N 
HETATM   17  N5  UNL     1      23.924   5.645  51.108  1.00  0.00    -0.194 NA
HETATM   18  C17 UNL     1      23.734   4.984  52.228  1.00  0.00     0.128 C 
HETATM   19  H12 UNL     1      24.324   5.436  48.819  1.00  0.00     0.219 HD
ENDROOT
BRANCH   1  20
HETATM   20  C4  UNL     1      20.303   4.337  51.334  1.00  0.00    -0.046 C 
HETATM   21  C3  UNL     1      19.228   3.525  51.544  1.00  0.00     0.007 C 
BRANCH  21  22
HETATM   22  C2  UNL     1      18.010   3.950  50.909  1.00  0.00    -0.010 C 
HETATM   23  C1  UNL     1      16.880   4.014  51.571  1.00  0.00     0.011 C 
ENDBRANCH  21  22
ENDBRANCH   1  20
TORSDOF 2
ENDMDL
