MODEL 1
REMARK VINA RESULT:      -7.2      0.000      0.000
REMARK  3 active torsions:
REMARK  status: ('A' for Active; 'I' for Inactive)
REMARK    1  A    between atoms: C3_3  and  C4_4 
REMARK    2  A    between atoms: C4_4  and  N1_5 
REMARK    3  A    between atoms: N4_17  and  S1_18 
ROOT
HETATM    1  N1  UNL     1      26.771   0.091  52.434  1.00  0.00    -0.291 NA
HETATM    2  C5  UNL     1      27.882   0.245  53.075  1.00  0.00     0.203 C 
HETATM    3  C6  UNL     1      28.148   1.523  53.627  1.00  0.00     0.106 C 
HETATM    4  N2  UNL     1      28.378   2.580  54.067  1.00  0.00    -0.191 NA
ENDROOT
BRANCH   1   5
HETATM    5  C4  UNL     1      25.817   1.186  52.277  1.00  0.00     0.154 C 
BRANCH   5   6
HETATM    6  C3  UNL     1      24.677   0.923  53.207  1.00  0.00     0.012 C 
HETATM    7  C2  UNL     1      23.500   1.822  52.983  1.00  0.00     0.007 C 
HETATM    8  C1  UNL     1      24.096   3.213  52.754  1.00  0.00     0.012 C 
HETATM    9  C14 UNL     1      22.598   1.409  51.866  1.00  0.00     0.091 C 
HETATM   10  C10 UNL     1      21.266   0.919  52.288  1.00  0.00     0.098 C 
HETATM   11  N4  UNL     1      22.270   2.607  51.114  1.00  0.00    -0.205 NA
HETATM   12  C9  UNL     1      21.230  -0.196  53.236  1.00  0.00     0.223 C 
HETATM   13  C11 UNL     1      20.613   2.188  52.761  1.00  0.00     0.031 C 
HETATM   14  N3  UNL     1      22.138  -1.028  53.937  1.00  0.00    -0.361 N 
HETATM   15  O1  UNL     1      19.999  -0.437  53.450  1.00  0.00    -0.273 OA
HETATM   16  C8  UNL     1      23.503  -0.870  54.367  1.00  0.00     0.123 C 
HETATM   17  H13 UNL     1      21.677  -1.947  54.176  1.00  0.00     0.162 HD
HETATM   18  C7  UNL     1      24.327  -0.541  53.145  1.00  0.00     0.026 C 
HETATM   19  C12 UNL     1      21.049   3.137  51.636  1.00  0.00     0.108 C 
BRANCH  11  20
HETATM   20  S1  UNL     1      22.078   2.300  49.438  1.00  0.00     0.208 S 
HETATM   21  C13 UNL     1      20.656   3.209  48.879  1.00  0.00     0.180 C 
HETATM   22  O2  UNL     1      21.779   0.840  49.155  1.00  0.00    -0.212 OA
HETATM   23  O3  UNL     1      23.275   2.698  48.631  1.00  0.00    -0.212 OA
ENDBRANCH  11  20
ENDBRANCH   5   6
ENDBRANCH   1   5
TORSDOF 3
ENDMDL
MODEL 2
REMARK VINA RESULT:      -7.0      2.727      5.324
REMARK  3 active torsions:
REMARK  status: ('A' for Active; 'I' for Inactive)
REMARK    1  A    between atoms: C3_3  and  C4_4 
REMARK    2  A    between atoms: C4_4  and  N1_5 
REMARK    3  A    between atoms: N4_17  and  S1_18 
ROOT
HETATM    1  N1  UNL     1      21.502  -0.120  53.932  1.00  0.00    -0.291 NA
HETATM    2  C5  UNL     1      20.394  -0.778  54.015  1.00  0.00     0.203 C 
HETATM    3  C6  UNL     1      19.411  -0.534  53.023  1.00  0.00     0.106 C 
HETATM    4  N2  UNL     1      18.592  -0.321  52.217  1.00  0.00    -0.191 NA
ENDROOT
BRANCH   1   5
HETATM    5  C4  UNL     1      21.745   0.842  52.860  1.00  0.00     0.154 C 
BRANCH   5   6
HETATM    6  C3  UNL     1      23.114   0.574  52.321  1.00  0.00     0.012 C 
HETATM    7  C2  UNL     1      23.518   1.507  51.220  1.00  0.00     0.007 C 
HETATM    8  C1  UNL     1      22.277   1.646  50.336  1.00  0.00     0.012 C 
HETATM    9  C14 UNL     1      24.031   2.833  51.679  1.00  0.00     0.091 C 
HETATM   10  C10 UNL     1      25.478   3.053  51.459  1.00  0.00     0.098 C 
HETATM   11  N4  UNL     1      23.426   3.843  50.830  1.00  0.00    -0.205 NA
HETATM   12  C9  UNL     1      26.401   2.071  52.031  1.00  0.00     0.223 C 
HETATM   13  C11 UNL     1      25.538   3.196  49.963  1.00  0.00     0.031 C 
HETATM   14  N3  UNL     1      26.349   0.879  52.795  1.00  0.00    -0.361 N 
HETATM   15  O1  UNL     1      27.571   2.461  51.715  1.00  0.00    -0.273 OA
HETATM   16  C8  UNL     1      25.348  -0.139  52.984  1.00  0.00     0.123 C 
HETATM   17  H13 UNL     1      27.254   0.746  53.322  1.00  0.00     0.162 HD
HETATM   18  C7  UNL     1      24.090   0.547  53.466  1.00  0.00     0.026 C 
HETATM   19  C12 UNL     1      24.317   4.099  49.742  1.00  0.00     0.108 C 
BRANCH  11  20
HETATM   20  S1  UNL     1      23.122   5.310  51.665  1.00  0.00     0.208 S 
HETATM   21  C13 UNL     1      24.246   6.535  51.038  1.00  0.00     0.180 C 
HETATM   22  O2  UNL     1      23.415   5.193  53.148  1.00  0.00    -0.212 OA
HETATM   23  O3  UNL     1      21.714   5.793  51.503  1.00  0.00    -0.212 OA
ENDBRANCH  11  20
ENDBRANCH   5   6
ENDBRANCH   1   5
TORSDOF 3
ENDMDL
MODEL 3
REMARK VINA RESULT:      -6.9      2.935      5.386
REMARK  3 active torsions:
REMARK  status: ('A' for Active; 'I' for Inactive)
REMARK    1  A    between atoms: C3_3  and  C4_4 
REMARK    2  A    between atoms: C4_4  and  N1_5 
REMARK    3  A    between atoms: N4_17  and  S1_18 
ROOT
HETATM    1  N1  UNL     1      18.640   2.697  51.192  1.00  0.00    -0.291 NA
HETATM    2  C5  UNL     1      18.988   3.931  51.042  1.00  0.00     0.203 C 
HETATM    3  C6  UNL     1      19.854   4.242  49.964  1.00  0.00     0.106 C 
HETATM    4  N2  UNL     1      20.583   4.497  49.087  1.00  0.00    -0.191 NA
ENDROOT
BRANCH   1   5
HETATM    5  C4  UNL     1      19.115   1.650  50.290  1.00  0.00     0.154 C 
BRANCH   5   6
HETATM    6  C3  UNL     1      19.545   0.494  51.135  1.00  0.00     0.012 C 
HETATM    7  C2  UNL     1      21.032   0.374  51.276  1.00  0.00     0.007 C 
HETATM    8  C1  UNL     1      21.590   0.650  49.878  1.00  0.00     0.012 C 
HETATM    9  C14 UNL     1      21.638   1.269  52.308  1.00  0.00     0.091 C 
HETATM   10  C10 UNL     1      22.163   0.575  53.505  1.00  0.00     0.098 C 
HETATM   11  N4  UNL     1      22.837   1.843  51.725  1.00  0.00    -0.205 NA
HETATM   12  C9  UNL     1      21.235  -0.283  54.245  1.00  0.00     0.223 C 
HETATM   13  C11 UNL     1      23.373  -0.120  52.945  1.00  0.00     0.031 C 
HETATM   14  N3  UNL     1      19.881  -0.693  54.178  1.00  0.00    -0.361 N 
HETATM   15  O1  UNL     1      21.901  -0.767  55.215  1.00  0.00    -0.273 OA
HETATM   16  C8  UNL     1      18.924  -0.796  53.107  1.00  0.00     0.123 C 
HETATM   17  H13 UNL     1      19.540  -0.976  55.137  1.00  0.00     0.162 HD
HETATM   18  C7  UNL     1      18.826   0.564  52.456  1.00  0.00     0.026 C 
HETATM   19  C12 UNL     1      23.945   1.014  52.083  1.00  0.00     0.108 C 
BRANCH  11  20
HETATM   20  S1  UNL     1      23.133   3.442  52.270  1.00  0.00     0.208 S 
HETATM   21  C13 UNL     1      23.789   4.370  50.904  1.00  0.00     0.180 C 
HETATM   22  O2  UNL     1      24.194   3.487  53.354  1.00  0.00    -0.212 OA
HETATM   23  O3  UNL     1      21.903   4.119  52.790  1.00  0.00    -0.212 OA
ENDBRANCH  11  20
ENDBRANCH   5   6
ENDBRANCH   1   5
TORSDOF 3
ENDMDL
MODEL 4
REMARK VINA RESULT:      -6.8      1.625      1.900
REMARK  3 active torsions:
REMARK  status: ('A' for Active; 'I' for Inactive)
REMARK    1  A    between atoms: C3_3  and  C4_4 
REMARK    2  A    between atoms: C4_4  and  N1_5 
REMARK    3  A    between atoms: N4_17  and  S1_18 
ROOT
HETATM    1  N1  UNL     1      24.999  -0.543  53.189  1.00  0.00    -0.291 NA
HETATM    2  C5  UNL     1      26.059  -0.301  53.887  1.00  0.00     0.203 C 
HETATM    3  C6  UNL     1      26.431   1.054  54.066  1.00  0.00     0.106 C 
HETATM    4  N2  UNL     1      26.751   2.170  54.199  1.00  0.00    -0.191 NA
ENDROOT
BRANCH   1   5
HETATM    5  C4  UNL     1      24.206   0.534  52.600  1.00  0.00     0.154 C 
BRANCH   5   6
HETATM    6  C3  UNL     1      22.875   0.531  53.280  1.00  0.00     0.012 C 
HETATM    7  C2  UNL     1      21.923   1.555  52.740  1.00  0.00     0.007 C 
HETATM    8  C1  UNL     1      22.764   2.818  52.540  1.00  0.00     0.012 C 
HETATM    9  C14 UNL     1      21.212   1.152  51.490  1.00  0.00     0.091 C 
HETATM   10  C10 UNL     1      19.762   0.898  51.650  1.00  0.00     0.098 C 
HETATM   11  N4  UNL     1      21.235   2.296  50.597  1.00  0.00    -0.205 NA
HETATM   12  C9  UNL     1      19.361  -0.093  52.650  1.00  0.00     0.223 C 
HETATM   13  C11 UNL     1      19.235   2.289  51.875  1.00  0.00     0.031 C 
HETATM   14  N3  UNL     1      19.966  -0.962  53.591  1.00  0.00    -0.361 N 
HETATM   15  O1  UNL     1      18.089  -0.137  52.611  1.00  0.00    -0.273 OA
HETATM   16  C8  UNL     1      21.224  -0.949  54.293  1.00  0.00     0.123 C 
HETATM   17  H13 UNL     1      19.328  -1.778  53.794  1.00  0.00     0.162 HD
HETATM   18  C7  UNL     1      22.319  -0.868  53.255  1.00  0.00     0.026 C 
HETATM   19  C12 UNL     1      20.033   3.043  50.802  1.00  0.00     0.108 C 
BRANCH  11  20
HETATM   20  S1  UNL     1      21.339   1.842  48.946  1.00  0.00     0.208 S 
HETATM   21  C13 UNL     1      22.741   2.675  48.240  1.00  0.00     0.180 C 
HETATM   22  O2  UNL     1      20.133   2.304  48.150  1.00  0.00    -0.212 OA
HETATM   23  O3  UNL     1      21.487   0.364  48.756  1.00  0.00    -0.212 OA
ENDBRANCH  11  20
ENDBRANCH   5   6
ENDBRANCH   1   5
TORSDOF 3
ENDMDL
MODEL 5
REMARK VINA RESULT:      -6.7      2.341      2.936
REMARK  3 active torsions:
REMARK  status: ('A' for Active; 'I' for Inactive)
REMARK    1  A    between atoms: C3_3  and  C4_4 
REMARK    2  A    between atoms: C4_4  and  N1_5 
REMARK    3  A    between atoms: N4_17  and  S1_18 
ROOT
HETATM    1  N1  UNL     1      26.088   3.006  50.231  1.00  0.00    -0.291 NA
HETATM    2  C5  UNL     1      26.792   3.728  49.424  1.00  0.00     0.203 C 
HETATM    3  C6  UNL     1      26.362   5.058  49.189  1.00  0.00     0.106 C 
HETATM    4  N2  UNL     1      25.999   6.148  48.979  1.00  0.00    -0.191 NA
ENDROOT
BRANCH   1   5
HETATM    5  C4  UNL     1      24.891   3.531  50.885  1.00  0.00     0.154 C 
BRANCH   5   6
HETATM    6  C3  UNL     1      24.648   2.702  52.105  1.00  0.00     0.012 C 
HETATM    7  C2  UNL     1      23.202   2.607  52.488  1.00  0.00     0.007 C 
HETATM    8  C1  UNL     1      22.646   4.021  52.305  1.00  0.00     0.012 C 
HETATM    9  C14 UNL     1      22.417   1.593  51.723  1.00  0.00     0.091 C 
HETATM   10  C10 UNL     1      21.988   0.413  52.508  1.00  0.00     0.098 C 
HETATM   11  N4  UNL     1      21.153   2.211  51.365  1.00  0.00    -0.205 NA
HETATM   12  C9  UNL     1      23.030  -0.353  53.193  1.00  0.00     0.223 C 
HETATM   13  C11 UNL     1      20.937   1.012  53.402  1.00  0.00     0.031 C 
HETATM   14  N3  UNL     1      24.437  -0.327  53.356  1.00  0.00    -0.361 N 
HETATM   15  O1  UNL     1      22.432  -1.301  53.795  1.00  0.00    -0.273 OA
HETATM   16  C8  UNL     1      25.429   0.714  53.279  1.00  0.00     0.123 C 
HETATM   17  H13 UNL     1      24.794  -1.295  53.581  1.00  0.00     0.162 HD
HETATM   18  C7  UNL     1      25.303   1.359  51.918  1.00  0.00     0.026 C 
HETATM   19  C12 UNL     1      20.199   1.889  52.381  1.00  0.00     0.108 C 
BRANCH  11  20
HETATM   20  S1  UNL     1      20.560   1.671  49.849  1.00  0.00     0.208 S 
HETATM   21  C13 UNL     1      20.034   3.099  48.931  1.00  0.00     0.180 C 
HETATM   22  O2  UNL     1      19.333   0.792  49.996  1.00  0.00    -0.212 OA
HETATM   23  O3  UNL     1      21.584   0.917  49.057  1.00  0.00    -0.212 OA
ENDBRANCH  11  20
ENDBRANCH   5   6
ENDBRANCH   1   5
TORSDOF 3
ENDMDL
MODEL 6
REMARK VINA RESULT:      -6.6      2.888      4.968
REMARK  3 active torsions:
REMARK  status: ('A' for Active; 'I' for Inactive)
REMARK    1  A    between atoms: C3_3  and  C4_4 
REMARK    2  A    between atoms: C4_4  and  N1_5 
REMARK    3  A    between atoms: N4_17  and  S1_18 
ROOT
HETATM    1  N1  UNL     1      20.992   0.796  53.123  1.00  0.00    -0.291 NA
HETATM    2  C5  UNL     1      20.738   0.293  54.286  1.00  0.00     0.203 C 
HETATM    3  C6  UNL     1      21.339  -0.949  54.608  1.00  0.00     0.106 C 
HETATM    4  N2  UNL     1      21.819  -1.982  54.870  1.00  0.00    -0.191 NA
ENDROOT
BRANCH   1   5
HETATM    5  C4  UNL     1      21.866   0.118  52.168  1.00  0.00     0.154 C 
BRANCH   5   6
HETATM    6  C3  UNL     1      22.872   1.118  51.696  1.00  0.00     0.012 C 
HETATM    7  C2  UNL     1      22.399   1.943  50.538  1.00  0.00     0.007 C 
HETATM    8  C1  UNL     1      21.689   0.957  49.607  1.00  0.00     0.012 C 
HETATM    9  C14 UNL     1      21.523   3.096  50.906  1.00  0.00     0.091 C 
HETATM   10  C10 UNL     1      22.135   4.430  50.714  1.00  0.00     0.098 C 
HETATM   11  N4  UNL     1      20.422   3.115  49.960  1.00  0.00    -0.205 NA
HETATM   12  C9  UNL     1      23.407   4.689  51.392  1.00  0.00     0.223 C 
HETATM   13  C11 UNL     1      22.173   4.534  49.215  1.00  0.00     0.031 C 
HETATM   14  N3  UNL     1      24.315   4.016  52.246  1.00  0.00    -0.361 N 
HETATM   15  O1  UNL     1      23.735   5.879  51.083  1.00  0.00    -0.273 OA
HETATM   16  C8  UNL     1      24.616   2.627  52.483  1.00  0.00     0.123 C 
HETATM   17  H13 UNL     1      24.868   4.716  52.810  1.00  0.00     0.162 HD
HETATM   18  C7  UNL     1      23.324   1.945  52.870  1.00  0.00     0.026 C 
HETATM   19  C12 UNL     1      20.777   3.987  48.884  1.00  0.00     0.108 C 
BRANCH  11  20
HETATM   20  S1  UNL     1      18.957   3.663  50.666  1.00  0.00     0.208 S 
HETATM   21  C13 UNL     1      17.645   2.623  50.071  1.00  0.00     0.180 C 
HETATM   22  O2  UNL     1      18.606   5.072  50.229  1.00  0.00    -0.212 OA
HETATM   23  O3  UNL     1      18.983   3.629  52.163  1.00  0.00    -0.212 OA
ENDBRANCH  11  20
ENDBRANCH   5   6
ENDBRANCH   1   5
TORSDOF 3
ENDMDL
MODEL 7
REMARK VINA RESULT:      -6.5      2.911      5.296
REMARK  3 active torsions:
REMARK  status: ('A' for Active; 'I' for Inactive)
REMARK    1  A    between atoms: C3_3  and  C4_4 
REMARK    2  A    between atoms: C4_4  and  N1_5 
REMARK    3  A    between atoms: N4_17  and  S1_18 
ROOT
HETATM    1  N1  UNL     1      20.012   2.156  52.231  1.00  0.00    -0.291 NA
HETATM    2  C5  UNL     1      19.465   3.294  51.959  1.00  0.00     0.203 C 
HETATM    3  C6  UNL     1      19.124   3.551  50.607  1.00  0.00     0.106 C 
HETATM    4  N2  UNL     1      18.860   3.773  49.491  1.00  0.00    -0.191 NA
ENDROOT
BRANCH   1   5
HETATM    5  C4  UNL     1      20.275   1.163  51.192  1.00  0.00     0.154 C 
BRANCH   5   6
HETATM    6  C3  UNL     1      21.623   0.578  51.465  1.00  0.00     0.012 C 
HETATM    7  C2  UNL     1      22.749   1.357  50.856  1.00  0.00     0.007 C 
HETATM    8  C1  UNL     1      22.263   1.737  49.456  1.00  0.00     0.012 C 
HETATM    9  C14 UNL     1      23.181   2.552  51.642  1.00  0.00     0.091 C 
HETATM   10  C10 UNL     1      24.517   2.437  52.269  1.00  0.00     0.098 C 
HETATM   11  N4  UNL     1      23.368   3.640  50.699  1.00  0.00    -0.205 NA
HETATM   12  C9  UNL     1      24.746   1.296  53.158  1.00  0.00     0.223 C 
HETATM   13  C11 UNL     1      25.422   2.509  51.070  1.00  0.00     0.031 C 
HETATM   14  N3  UNL     1      24.037   0.174  53.654  1.00  0.00    -0.361 N 
HETATM   15  O1  UNL     1      25.945   1.405  53.569  1.00  0.00    -0.273 OA
HETATM   16  C8  UNL     1      22.916  -0.589  53.169  1.00  0.00     0.123 C 
HETATM   17  H13 UNL     1      24.450  -0.138  54.574  1.00  0.00     0.162 HD
HETATM   18  C7  UNL     1      21.774   0.375  52.949  1.00  0.00     0.026 C 
HETATM   19  C12 UNL     1      24.742   3.653  50.304  1.00  0.00     0.108 C 
BRANCH  11  20
HETATM   20  S1  UNL     1      22.961   5.167  51.366  1.00  0.00     0.208 S 
HETATM   21  C13 UNL     1      21.875   5.987  50.224  1.00  0.00     0.180 C 
HETATM   22  O2  UNL     1      24.174   6.067  51.510  1.00  0.00    -0.212 OA
HETATM   23  O3  UNL     1      22.295   5.061  52.703  1.00  0.00    -0.212 OA
ENDBRANCH  11  20
ENDBRANCH   5   6
ENDBRANCH   1   5
TORSDOF 3
ENDMDL
MODEL 8
REMARK VINA RESULT:      -6.2      3.338      5.891
REMARK  3 active torsions:
REMARK  status: ('A' for Active; 'I' for Inactive)
REMARK    1  A    between atoms: C3_3  and  C4_4 
REMARK    2  A    between atoms: C4_4  and  N1_5 
REMARK    3  A    between atoms: N4_17  and  S1_18 
ROOT
HETATM    1  N1  UNL     1      21.087   2.733  52.264  1.00  0.00    -0.291 NA
HETATM    2  C5  UNL     1      20.063   2.033  52.623  1.00  0.00     0.203 C 
HETATM    3  C6  UNL     1      19.402   1.279  51.622  1.00  0.00     0.106 C 
HETATM    4  N2  UNL     1      18.844   0.671  50.794  1.00  0.00    -0.191 NA
ENDROOT
BRANCH   1   5
HETATM    5  C4  UNL     1      21.556   2.756  50.880  1.00  0.00     0.154 C 
BRANCH   5   6
HETATM    6  C3  UNL     1      22.869   2.043  50.842  1.00  0.00     0.012 C 
HETATM    7  C2  UNL     1      23.890   2.715  49.975  1.00  0.00     0.007 C 
HETATM    8  C1  UNL     1      23.129   3.147  48.720  1.00  0.00     0.012 C 
HETATM    9  C14 UNL     1      24.604   3.859  50.618  1.00  0.00     0.091 C 
HETATM   10  C10 UNL     1      26.033   3.614  50.919  1.00  0.00     0.098 C 
HETATM   11  N4  UNL     1      24.667   4.929  49.639  1.00  0.00    -0.205 NA
HETATM   12  C9  UNL     1      26.354   2.452  51.750  1.00  0.00     0.223 C 
HETATM   13  C11 UNL     1      26.635   3.606  49.542  1.00  0.00     0.031 C 
HETATM   14  N3  UNL     1      25.678   1.400  52.416  1.00  0.00    -0.361 N 
HETATM   15  O1  UNL     1      27.621   2.443  51.869  1.00  0.00    -0.273 OA
HETATM   16  C8  UNL     1      24.408   0.749  52.218  1.00  0.00     0.123 C 
HETATM   17  H13 UNL     1      26.263   1.045  53.220  1.00  0.00     0.162 HD
HETATM   18  C7  UNL     1      23.342   1.820  52.253  1.00  0.00     0.026 C 
HETATM   19  C12 UNL     1      25.906   4.813  48.935  1.00  0.00     0.108 C 
BRANCH  11  20
HETATM   20  S1  UNL     1      24.573   6.485  50.356  1.00  0.00     0.208 S 
HETATM   21  C13 UNL     1      23.470   7.471  49.372  1.00  0.00     0.180 C 
HETATM   22  O2  UNL     1      25.908   7.204  50.337  1.00  0.00    -0.212 OA
HETATM   23  O3  UNL     1      24.082   6.446  51.771  1.00  0.00    -0.212 OA
ENDBRANCH  11  20
ENDBRANCH   5   6
ENDBRANCH   1   5
TORSDOF 3
ENDMDL
MODEL 9
REMARK VINA RESULT:      -6.0      8.548     10.535
REMARK  3 active torsions:
REMARK  status: ('A' for Active; 'I' for Inactive)
REMARK    1  A    between atoms: C3_3  and  C4_4 
REMARK    2  A    between atoms: C4_4  and  N1_5 
REMARK    3  A    between atoms: N4_17  and  S1_18 
ROOT
HETATM    1  N1  UNL     1      32.577   7.793  48.608  1.00  0.00    -0.291 NA
HETATM    2  C5  UNL     1      33.329   6.744  48.559  1.00  0.00     0.203 C 
HETATM    3  C6  UNL     1      32.690   5.482  48.472  1.00  0.00     0.106 C 
HETATM    4  N2  UNL     1      32.165   4.440  48.419  1.00  0.00    -0.191 NA
ENDROOT
BRANCH   1   5
HETATM    5  C4  UNL     1      31.119   7.694  48.575  1.00  0.00     0.154 C 
BRANCH   5   6
HETATM    6  C3  UNL     1      30.589   9.035  48.182  1.00  0.00     0.012 C 
HETATM    7  C2  UNL     1      29.317   8.970  47.393  1.00  0.00     0.007 C 
HETATM    8  C1  UNL     1      29.518   7.820  46.403  1.00  0.00     0.012 C 
HETATM    9  C14 UNL     1      28.080   8.794  48.212  1.00  0.00     0.091 C 
HETATM   10  C10 UNL     1      27.184   9.972  48.250  1.00  0.00     0.098 C 
HETATM   11  N4  UNL     1      27.263   7.797  47.544  1.00  0.00    -0.205 NA
HETATM   12  C9  UNL     1      27.760  11.239  48.702  1.00  0.00     0.223 C 
HETATM   13  C11 UNL     1      26.633   9.978  46.850  1.00  0.00     0.031 C 
HETATM   14  N3  UNL     1      29.005  11.742  49.155  1.00  0.00    -0.361 N 
HETATM   15  O1  UNL     1      26.818  12.093  48.648  1.00  0.00    -0.273 OA
HETATM   16  C8  UNL     1      30.372  11.334  48.964  1.00  0.00     0.123 C 
HETATM   17  H13 UNL     1      28.853  12.596  49.757  1.00  0.00     0.162 HD
HETATM   18  C7  UNL     1      30.481   9.895  49.414  1.00  0.00     0.026 C 
HETATM   19  C12 UNL     1      26.352   8.479  46.678  1.00  0.00     0.108 C 
BRANCH  11  20
HETATM   20  S1  UNL     1      26.373   6.829  48.645  1.00  0.00     0.208 S 
HETATM   21  C13 UNL     1      27.161   5.239  48.731  1.00  0.00     0.180 C 
HETATM   22  O2  UNL     1      24.958   6.570  48.161  1.00  0.00    -0.212 OA
HETATM   23  O3  UNL     1      26.297   7.425  50.017  1.00  0.00    -0.212 OA
ENDBRANCH  11  20
ENDBRANCH   5   6
ENDBRANCH   1   5
TORSDOF 3
ENDMDL
