MODEL 1
REMARK VINA RESULT:      -8.1      0.000      0.000
REMARK  3 active torsions:
REMARK  status: ('A' for Active; 'I' for Inactive)
REMARK    1  A    between atoms: C4_5  and  N1_6 
REMARK    2  A    between atoms: C9_13  and  N4_14 
REMARK    3  A    between atoms: N4_14  and  C10_15 
ROOT
HETATM    1  N1  UNL     1      24.041  -0.026  53.801  1.00  0.00    -0.277 N 
HETATM    2  N2  UNL     1      23.342  -0.972  54.596  1.00  0.00    -0.291 N 
HETATM    3  C5  UNL     1      21.988  -1.319  54.345  1.00  0.00     0.223 C 
HETATM    4  N3  UNL     1      21.362  -0.749  53.347  1.00  0.00    -0.245 NA
HETATM    5  C6  UNL     1      22.002   0.203  52.513  1.00  0.00     0.064 A 
HETATM    6  C7  UNL     1      21.416   0.188  51.342  1.00  0.00     0.032 A 
HETATM    7  C8  UNL     1      21.824   1.048  50.242  1.00  0.00     0.031 A 
HETATM    8  C9  UNL     1      22.774   1.958  50.127  1.00  0.00     0.028 A 
HETATM    9  C11 UNL     1      23.740   2.383  51.130  1.00  0.00     0.027 A 
HETATM   10  C12 UNL     1      23.803   1.890  52.381  1.00  0.00     0.009 A 
HETATM   11  C13 UNL     1      23.110   0.901  53.226  1.00  0.00     0.183 A 
HETATM   12  H3  UNL     1      23.682  -1.530  55.429  1.00  0.00     0.188 HD
ENDROOT
BRANCH   1  13
HETATM   13  C4  UNL     1      25.447  -0.211  53.777  1.00  0.00     0.052 A 
HETATM   14  C3  UNL     1      26.025  -1.000  52.814  1.00  0.00     0.033 A 
HETATM   15  C2  UNL     1      27.365  -1.196  52.746  1.00  0.00     0.026 A 
HETATM   16  C1  UNL     1      28.227  -0.609  53.647  1.00  0.00     0.034 A 
HETATM   17 CL1  UNL     1      29.972  -0.845  53.584  1.00  0.00    -0.084 Cl
HETATM   18  C15 UNL     1      27.704   0.194  54.635  1.00  0.00     0.026 A 
HETATM   19  C14 UNL     1      26.338   0.359  54.659  1.00  0.00     0.033 A 
ENDBRANCH   1  13
BRANCH   8  20
HETATM   20  N4  UNL     1      22.961   2.668  48.918  1.00  0.00    -0.381 N 
HETATM   21  H7  UNL     1      23.557   3.507  48.825  1.00  0.00     0.160 HD
BRANCH  20  22
HETATM   22  C10 UNL     1      22.255   2.149  47.764  1.00  0.00     0.205 C 
HETATM   23 BR1  UNL     1      21.775   3.620  46.573  1.00  0.00    -0.075 Br
ENDBRANCH  20  22
ENDBRANCH   8  20
TORSDOF 3
ENDMDL
MODEL 2
REMARK VINA RESULT:      -8.1      1.739      1.950
REMARK  3 active torsions:
REMARK  status: ('A' for Active; 'I' for Inactive)
REMARK    1  A    between atoms: C4_5  and  N1_6 
REMARK    2  A    between atoms: C9_13  and  N4_14 
REMARK    3  A    between atoms: N4_14  and  C10_15 
ROOT
HETATM    1  N1  UNL     1      24.397   0.303  53.405  1.00  0.00    -0.277 N 
HETATM    2  N2  UNL     1      23.516  -0.732  53.815  1.00  0.00    -0.291 N 
HETATM    3  C5  UNL     1      22.212  -0.875  53.273  1.00  0.00     0.223 C 
HETATM    4  N3  UNL     1      21.806  -0.025  52.364  1.00  0.00    -0.245 NA
HETATM    5  C6  UNL     1      22.636   1.031  51.909  1.00  0.00     0.064 A 
HETATM    6  C7  UNL     1      22.268   1.353  50.693  1.00  0.00     0.032 A 
HETATM    7  C8  UNL     1      22.912   2.406  49.925  1.00  0.00     0.031 A 
HETATM    8  C9  UNL     1      23.917   3.220  50.195  1.00  0.00     0.028 A 
HETATM    9  C11 UNL     1      24.711   3.297  51.413  1.00  0.00     0.027 A 
HETATM   10  C12 UNL     1      24.523   2.517  52.493  1.00  0.00     0.009 A 
HETATM   11  C13 UNL     1      23.636   1.428  52.941  1.00  0.00     0.183 A 
HETATM   12  H3  UNL     1      23.671  -1.502  54.524  1.00  0.00     0.188 HD
ENDROOT
BRANCH   1  13
HETATM   13  C4  UNL     1      25.773  -0.006  53.559  1.00  0.00     0.052 A 
HETATM   14  C3  UNL     1      26.410  -0.803  52.640  1.00  0.00     0.033 A 
HETATM   15  C2  UNL     1      27.725  -1.117  52.742  1.00  0.00     0.026 A 
HETATM   16  C1  UNL     1      28.501  -0.648  53.781  1.00  0.00     0.034 A 
HETATM   17 CL1  UNL     1      30.212  -1.039  53.939  1.00  0.00    -0.084 Cl
HETATM   18  C15 UNL     1      27.916   0.155  54.732  1.00  0.00     0.026 A 
HETATM   19  C14 UNL     1      26.579   0.443  54.582  1.00  0.00     0.033 A 
ENDBRANCH   1  13
BRANCH   8  20
HETATM   20  N4  UNL     1      24.356   4.175  49.249  1.00  0.00    -0.381 N 
HETATM   21  H7  UNL     1      24.037   4.206  48.267  1.00  0.00     0.160 HD
BRANCH  20  22
HETATM   22  C10 UNL     1      25.311   5.152  49.732  1.00  0.00     0.205 C 
HETATM   23 BR1  UNL     1      27.051   4.834  48.905  1.00  0.00    -0.075 Br
ENDBRANCH  20  22
ENDBRANCH   8  20
TORSDOF 3
ENDMDL
MODEL 3
REMARK VINA RESULT:      -7.5      4.079      6.292
REMARK  3 active torsions:
REMARK  status: ('A' for Active; 'I' for Inactive)
REMARK    1  A    between atoms: C4_5  and  N1_6 
REMARK    2  A    between atoms: C9_13  and  N4_14 
REMARK    3  A    between atoms: N4_14  and  C10_15 
ROOT
HETATM    1  N1  UNL     1      23.640   1.689  51.770  1.00  0.00    -0.277 N 
HETATM    2  N2  UNL     1      22.355   1.089  51.705  1.00  0.00    -0.291 N 
HETATM    3  C5  UNL     1      22.042  -0.108  52.402  1.00  0.00     0.223 C 
HETATM    4  N3  UNL     1      22.968  -0.678  53.131  1.00  0.00    -0.245 NA
HETATM    5  C6  UNL     1      24.272  -0.131  53.239  1.00  0.00     0.064 A 
HETATM    6  C7  UNL     1      24.788  -0.513  54.381  1.00  0.00     0.032 A 
HETATM    7  C8  UNL     1      26.123  -0.130  54.814  1.00  0.00     0.031 A 
HETATM    8  C9  UNL     1      27.060   0.616  54.258  1.00  0.00     0.028 A 
HETATM    9  C11 UNL     1      27.020   1.306  52.977  1.00  0.00     0.027 A 
HETATM   10  C12 UNL     1      25.974   1.278  52.131  1.00  0.00     0.009 A 
HETATM   11  C13 UNL     1      24.627   0.685  52.042  1.00  0.00     0.183 A 
HETATM   12  H3  UNL     1      21.493   1.406  51.179  1.00  0.00     0.188 HD
ENDROOT
BRANCH   1  13
HETATM   13  C4  UNL     1      23.642   3.089  51.544  1.00  0.00     0.052 A 
HETATM   14  C3  UNL     1      23.833   3.585  50.278  1.00  0.00     0.033 A 
HETATM   15  C2  UNL     1      23.832   4.915  50.013  1.00  0.00     0.026 A 
HETATM   16  C1  UNL     1      23.637   5.849  51.009  1.00  0.00     0.034 A 
HETATM   17 CL1  UNL     1      23.631   7.583  50.695  1.00  0.00    -0.084 Cl
HETATM   18  C15 UNL     1      23.440   5.410  52.298  1.00  0.00     0.026 A 
HETATM   19  C14 UNL     1      23.450   4.051  52.512  1.00  0.00     0.033 A 
ENDBRANCH   1  13
BRANCH   8  20
HETATM   20  N4  UNL     1      28.298   0.835  54.907  1.00  0.00    -0.381 N 
HETATM   21  H7  UNL     1      28.394   1.036  55.916  1.00  0.00     0.160 HD
BRANCH  20  22
HETATM   22  C10 UNL     1      29.476   0.762  54.066  1.00  0.00     0.205 C 
HETATM   23 BR1  UNL     1      29.834  -1.099  53.597  1.00  0.00    -0.075 Br
ENDBRANCH  20  22
ENDBRANCH   8  20
TORSDOF 3
ENDMDL
MODEL 4
REMARK VINA RESULT:      -7.3      4.531      6.869
REMARK  3 active torsions:
REMARK  status: ('A' for Active; 'I' for Inactive)
REMARK    1  A    between atoms: C4_5  and  N1_6 
REMARK    2  A    between atoms: C9_13  and  N4_14 
REMARK    3  A    between atoms: N4_14  and  C10_15 
ROOT
HETATM    1  N1  UNL     1      24.568   3.311  50.426  1.00  0.00    -0.277 N 
HETATM    2  N2  UNL     1      23.238   3.005  50.033  1.00  0.00    -0.291 N 
HETATM    3  C5  UNL     1      22.522   1.906  50.578  1.00  0.00     0.223 C 
HETATM    4  N3  UNL     1      23.105   1.149  51.472  1.00  0.00    -0.245 NA
HETATM    5  C6  UNL     1      24.432   1.400  51.909  1.00  0.00     0.064 A 
HETATM    6  C7  UNL     1      24.568   0.917  53.119  1.00  0.00     0.032 A 
HETATM    7  C8  UNL     1      25.811   1.001  53.869  1.00  0.00     0.031 A 
HETATM    8  C9  UNL     1      26.990   1.523  53.584  1.00  0.00     0.028 A 
HETATM    9  C11 UNL     1      27.403   2.204  52.366  1.00  0.00     0.027 A 
HETATM   10  C12 UNL     1      26.607   2.402  51.299  1.00  0.00     0.009 A 
HETATM   11  C13 UNL     1      25.226   2.116  50.870  1.00  0.00     0.183 A 
HETATM   12  H3  UNL     1      22.614   3.501  49.337  1.00  0.00     0.188 HD
ENDROOT
BRANCH   1  13
HETATM   13  C4  UNL     1      24.921   4.677  50.277  1.00  0.00     0.052 A 
HETATM   14  C3  UNL     1      24.302   5.637  51.038  1.00  0.00     0.033 A 
HETATM   15  C2  UNL     1      24.614   6.954  50.937  1.00  0.00     0.026 A 
HETATM   16  C1  UNL     1      25.577   7.401  50.057  1.00  0.00     0.034 A 
HETATM   17 CL1  UNL     1      26.003   9.105  49.904  1.00  0.00    -0.084 Cl
HETATM   18  C15 UNL     1      26.231   6.483  49.269  1.00  0.00     0.026 A 
HETATM   19  C14 UNL     1      25.876   5.161  49.411  1.00  0.00     0.033 A 
ENDBRANCH   1  13
BRANCH   8  20
HETATM   20  N4  UNL     1      28.055   1.468  54.514  1.00  0.00    -0.381 N 
HETATM   21  H7  UNL     1      28.540   2.300  54.888  1.00  0.00     0.160 HD
BRANCH  20  22
HETATM   22  C10 UNL     1      28.455   0.143  54.941  1.00  0.00     0.205 C 
HETATM   23 BR1  UNL     1      29.672  -0.631  53.625  1.00  0.00    -0.075 Br
ENDBRANCH  20  22
ENDBRANCH   8  20
TORSDOF 3
ENDMDL
MODEL 5
REMARK VINA RESULT:      -7.2      4.863      7.071
REMARK  3 active torsions:
REMARK  status: ('A' for Active; 'I' for Inactive)
REMARK    1  A    between atoms: C4_5  and  N1_6 
REMARK    2  A    between atoms: C9_13  and  N4_14 
REMARK    3  A    between atoms: N4_14  and  C10_15 
ROOT
HETATM    1  N1  UNL     1      25.247   4.277  49.514  1.00  0.00    -0.277 N 
HETATM    2  N2  UNL     1      23.952   4.640  49.059  1.00  0.00    -0.291 N 
HETATM    3  C5  UNL     1      22.771   4.222  49.727  1.00  0.00     0.223 C 
HETATM    4  N3  UNL     1      22.876   3.478  50.799  1.00  0.00    -0.245 NA
HETATM    5  C6  UNL     1      24.140   3.081  51.306  1.00  0.00     0.064 A 
HETATM    6  C7  UNL     1      24.019   2.863  52.593  1.00  0.00     0.032 A 
HETATM    7  C8  UNL     1      25.129   2.437  53.431  1.00  0.00     0.031 A 
HETATM    8  C9  UNL     1      26.400   2.190  53.169  1.00  0.00     0.028 A 
HETATM    9  C11 UNL     1      27.090   2.281  51.890  1.00  0.00     0.027 A 
HETATM   10  C12 UNL     1      26.503   2.640  50.734  1.00  0.00     0.009 A 
HETATM   11  C13 UNL     1      25.175   3.038  50.234  1.00  0.00     0.183 A 
HETATM   12  H3  UNL     1      23.675   5.232  48.226  1.00  0.00     0.188 HD
ENDROOT
BRANCH   1  13
HETATM   13  C4  UNL     1      26.271   5.189  49.149  1.00  0.00     0.052 A 
HETATM   14  C3  UNL     1      27.484   4.725  48.705  1.00  0.00     0.033 A 
HETATM   15  C2  UNL     1      28.487   5.559  48.335  1.00  0.00     0.026 A 
HETATM   16  C1  UNL     1      28.342   6.929  48.384  1.00  0.00     0.034 A 
HETATM   17 CL1  UNL     1      29.628   8.037  47.910  1.00  0.00    -0.084 Cl
HETATM   18  C15 UNL     1      27.146   7.452  48.820  1.00  0.00     0.026 A 
HETATM   19  C14 UNL     1      26.162   6.561  49.184  1.00  0.00     0.033 A 
ENDBRANCH   1  13
BRANCH   8  20
HETATM   20  N4  UNL     1      27.288   1.781  54.191  1.00  0.00    -0.381 N 
HETATM   21  H7  UNL     1      27.945   2.415  54.675  1.00  0.00     0.160 HD
BRANCH  20  22
HETATM   22  C10 UNL     1      27.240   0.377  54.547  1.00  0.00     0.205 C 
HETATM   23 BR1  UNL     1      28.586  -0.606  53.531  1.00  0.00    -0.075 Br
ENDBRANCH  20  22
ENDBRANCH   8  20
TORSDOF 3
ENDMDL
MODEL 6
REMARK VINA RESULT:      -7.2      3.047      4.446
REMARK  3 active torsions:
REMARK  status: ('A' for Active; 'I' for Inactive)
REMARK    1  A    between atoms: C4_5  and  N1_6 
REMARK    2  A    between atoms: C9_13  and  N4_14 
REMARK    3  A    between atoms: N4_14  and  C10_15 
ROOT
HETATM    1  N1  UNL     1      24.245   3.062  51.751  1.00  0.00    -0.277 N 
HETATM    2  N2  UNL     1      24.512   4.450  51.890  1.00  0.00    -0.291 N 
HETATM    3  C5  UNL     1      23.475   5.415  51.981  1.00  0.00     0.223 C 
HETATM    4  N3  UNL     1      22.229   5.014  51.935  1.00  0.00    -0.245 NA
HETATM    5  C6  UNL     1      21.893   3.643  51.797  1.00  0.00     0.064 A 
HETATM    6  C7  UNL     1      20.709   3.452  52.322  1.00  0.00     0.032 A 
HETATM    7  C8  UNL     1      20.055   2.152  52.350  1.00  0.00     0.031 A 
HETATM    8  C9  UNL     1      20.425   0.960  51.919  1.00  0.00     0.028 A 
HETATM    9  C11 UNL     1      21.665   0.587  51.254  1.00  0.00     0.027 A 
HETATM   10  C12 UNL     1      22.659   1.446  50.963  1.00  0.00     0.009 A 
HETATM   11  C13 UNL     1      22.974   2.878  51.111  1.00  0.00     0.183 A 
HETATM   12  H3  UNL     1      25.443   4.950  51.950  1.00  0.00     0.188 HD
ENDROOT
BRANCH   1  13
HETATM   13  C4  UNL     1      25.271   2.217  52.248  1.00  0.00     0.052 A 
HETATM   14  C3  UNL     1      25.502   2.133  53.598  1.00  0.00     0.033 A 
HETATM   15  C2  UNL     1      26.465   1.331  54.119  1.00  0.00     0.026 A 
HETATM   16  C1  UNL     1      27.268   0.552  53.314  1.00  0.00     0.034 A 
HETATM   17 CL1  UNL     1      28.526  -0.499  53.962  1.00  0.00    -0.084 Cl
HETATM   18  C15 UNL     1      27.081   0.596  51.952  1.00  0.00     0.026 A 
HETATM   19  C14 UNL     1      26.091   1.425  51.476  1.00  0.00     0.033 A 
ENDBRANCH   1  13
BRANCH   8  20
HETATM   20  N4  UNL     1      19.581  -0.165  52.075  1.00  0.00    -0.381 N 
HETATM   21  H7  UNL     1      19.125  -0.660  51.292  1.00  0.00     0.160 HD
BRANCH  20  22
HETATM   22  C10 UNL     1      19.372  -0.615  53.437  1.00  0.00     0.205 C 
HETATM   23 BR1  UNL     1      21.050  -1.293  54.169  1.00  0.00    -0.075 Br
ENDBRANCH  20  22
ENDBRANCH   8  20
TORSDOF 3
ENDMDL
MODEL 7
REMARK VINA RESULT:      -6.9      3.994      6.411
REMARK  3 active torsions:
REMARK  status: ('A' for Active; 'I' for Inactive)
REMARK    1  A    between atoms: C4_5  and  N1_6 
REMARK    2  A    between atoms: C9_13  and  N4_14 
REMARK    3  A    between atoms: N4_14  and  C10_15 
ROOT
HETATM    1  N1  UNL     1      23.842   2.163  51.240  1.00  0.00    -0.277 N 
HETATM    2  N2  UNL     1      25.258   2.159  51.129  1.00  0.00    -0.291 N 
HETATM    3  C5  UNL     1      26.081   1.373  51.978  1.00  0.00     0.223 C 
HETATM    4  N3  UNL     1      25.519   0.627  52.894  1.00  0.00    -0.245 NA
HETATM    5  C6  UNL     1      24.111   0.584  53.058  1.00  0.00     0.064 A 
HETATM    6  C7  UNL     1      23.790  -0.570  53.588  1.00  0.00     0.032 A 
HETATM    7  C8  UNL     1      22.419  -0.947  53.895  1.00  0.00     0.031 A 
HETATM    8  C9  UNL     1      21.267  -0.320  53.739  1.00  0.00     0.028 A 
HETATM    9  C11 UNL     1      21.030   1.005  53.184  1.00  0.00     0.027 A 
HETATM   10  C12 UNL     1      21.998   1.824  52.733  1.00  0.00     0.009 A 
HETATM   11  C13 UNL     1      23.464   1.842  52.587  1.00  0.00     0.183 A 
HETATM   12  H3  UNL     1      25.878   2.687  50.454  1.00  0.00     0.188 HD
ENDROOT
BRANCH   1  13
HETATM   13  C4  UNL     1      23.163   2.486  50.038  1.00  0.00     0.052 A 
HETATM   14  C3  UNL     1      23.393   3.687  49.415  1.00  0.00     0.033 A 
HETATM   15  C2  UNL     1      22.775   4.034  48.259  1.00  0.00     0.026 A 
HETATM   16  C1  UNL     1      21.875   3.192  47.641  1.00  0.00     0.034 A 
HETATM   17 CL1  UNL     1      21.057   3.616  46.138  1.00  0.00    -0.084 Cl
HETATM   18  C15 UNL     1      21.605   1.974  48.219  1.00  0.00     0.026 A 
HETATM   19  C14 UNL     1      22.259   1.671  49.392  1.00  0.00     0.033 A 
ENDBRANCH   1  13
BRANCH   8  20
HETATM   20  N4  UNL     1      20.050  -0.926  54.129  1.00  0.00    -0.381 N 
HETATM   21  H7  UNL     1      19.922  -1.456  55.006  1.00  0.00     0.160 HD
BRANCH  20  22
HETATM   22  C10 UNL     1      18.941  -0.768  53.209  1.00  0.00     0.205 C 
HETATM   23 BR1  UNL     1      17.685  -2.246  53.434  1.00  0.00    -0.075 Br
ENDBRANCH  20  22
ENDBRANCH   8  20
TORSDOF 3
ENDMDL
MODEL 8
REMARK VINA RESULT:      -6.7      4.165      7.326
REMARK  3 active torsions:
REMARK  status: ('A' for Active; 'I' for Inactive)
REMARK    1  A    between atoms: C4_5  and  N1_6 
REMARK    2  A    between atoms: C9_13  and  N4_14 
REMARK    3  A    between atoms: N4_14  and  C10_15 
ROOT
HETATM    1  N1  UNL     1      24.409   3.786  49.763  1.00  0.00    -0.277 N 
HETATM    2  N2  UNL     1      25.475   4.429  49.078  1.00  0.00    -0.291 N 
HETATM    3  C5  UNL     1      26.836   4.185  49.400  1.00  0.00     0.223 C 
HETATM    4  N3  UNL     1      27.121   3.340  50.358  1.00  0.00    -0.245 NA
HETATM    5  C6  UNL     1      26.104   2.664  51.081  1.00  0.00     0.064 A 
HETATM    6  C7  UNL     1      26.597   1.540  51.537  1.00  0.00     0.032 A 
HETATM    7  C8  UNL     1      25.821   0.598  52.327  1.00  0.00     0.031 A 
HETATM    8  C9  UNL     1      24.568   0.606  52.745  1.00  0.00     0.028 A 
HETATM    9  C11 UNL     1      23.549   1.621  52.518  1.00  0.00     0.027 A 
HETATM   10  C12 UNL     1      23.748   2.755  51.823  1.00  0.00     0.009 A 
HETATM   11  C13 UNL     1      24.829   3.438  51.089  1.00  0.00     0.183 A 
HETATM   12  H3  UNL     1      25.437   5.128  48.285  1.00  0.00     0.188 HD
ENDROOT
BRANCH   1  13
HETATM   13  C4  UNL     1      23.219   3.660  49.001  1.00  0.00     0.052 A 
HETATM   14  C3  UNL     1      22.372   4.731  48.859  1.00  0.00     0.033 A 
HETATM   15  C2  UNL     1      21.229   4.660  48.132  1.00  0.00     0.026 A 
HETATM   16  C1  UNL     1      20.854   3.499  47.491  1.00  0.00     0.034 A 
HETATM   17 CL1  UNL     1      19.375   3.376  46.539  1.00  0.00    -0.084 Cl
HETATM   18  C15 UNL     1      21.665   2.393  47.597  1.00  0.00     0.026 A 
HETATM   19  C14 UNL     1      22.812   2.519  48.346  1.00  0.00     0.033 A 
ENDBRANCH   1  13
BRANCH   8  20
HETATM   20  N4  UNL     1      24.051  -0.461  53.517  1.00  0.00    -0.381 N 
HETATM   21  H7  UNL     1      24.563  -0.919  54.288  1.00  0.00     0.160 HD
BRANCH  20  22
HETATM   22  C10 UNL     1      22.716  -0.906  53.169  1.00  0.00     0.205 C 
HETATM   23 BR1  UNL     1      21.551  -0.773  54.730  1.00  0.00    -0.075 Br
ENDBRANCH  20  22
ENDBRANCH   8  20
TORSDOF 3
ENDMDL
MODEL 9
REMARK VINA RESULT:      -6.6      2.809      3.724
REMARK  3 active torsions:
REMARK  status: ('A' for Active; 'I' for Inactive)
REMARK    1  A    between atoms: C4_5  and  N1_6 
REMARK    2  A    between atoms: C9_13  and  N4_14 
REMARK    3  A    between atoms: N4_14  and  C10_15 
ROOT
HETATM    1  N1  UNL     1      24.175   2.718  51.973  1.00  0.00    -0.277 N 
HETATM    2  N2  UNL     1      24.545   3.773  52.849  1.00  0.00    -0.291 N 
HETATM    3  C5  UNL     1      23.653   4.825  53.186  1.00  0.00     0.223 C 
HETATM    4  N3  UNL     1      22.448   4.824  52.674  1.00  0.00    -0.245 NA
HETATM    5  C6  UNL     1      22.015   3.800  51.793  1.00  0.00     0.064 A 
HETATM    6  C7  UNL     1      20.711   3.706  51.877  1.00  0.00     0.032 A 
HETATM    7  C8  UNL     1      19.934   2.751  51.101  1.00  0.00     0.031 A 
HETATM    8  C9  UNL     1      20.279   1.830  50.220  1.00  0.00     0.028 A 
HETATM    9  C11 UNL     1      21.613   1.490  49.746  1.00  0.00     0.027 A 
HETATM   10  C12 UNL     1      22.742   2.100  50.153  1.00  0.00     0.009 A 
HETATM   11  C13 UNL     1      23.159   3.177  51.069  1.00  0.00     0.183 A 
HETATM   12  H3  UNL     1      25.461   3.934  53.354  1.00  0.00     0.188 HD
ENDROOT
BRANCH   1  13
HETATM   13  C4  UNL     1      24.884   1.508  52.185  1.00  0.00     0.052 A 
HETATM   14  C3  UNL     1      26.105   1.309  51.589  1.00  0.00     0.033 A 
HETATM   15  C2  UNL     1      26.823   0.173  51.772  1.00  0.00     0.026 A 
HETATM   16  C1  UNL     1      26.362  -0.851  52.571  1.00  0.00     0.034 A 
HETATM   17 CL1  UNL     1      27.272  -2.339  52.827  1.00  0.00    -0.084 Cl
HETATM   18  C15 UNL     1      25.144  -0.707  53.194  1.00  0.00     0.026 A 
HETATM   19  C14 UNL     1      24.456   0.465  52.975  1.00  0.00     0.033 A 
ENDBRANCH   1  13
BRANCH   8  20
HETATM   20  N4  UNL     1      19.303   1.016  49.598  1.00  0.00    -0.381 N 
HETATM   21  H7  UNL     1      19.518   0.285  48.900  1.00  0.00     0.160 HD
BRANCH  20  22
HETATM   22  C10 UNL     1      17.931   1.257  49.996  1.00  0.00     0.205 C 
HETATM   23 BR1  UNL     1      17.065   2.424  48.693  1.00  0.00    -0.075 Br
ENDBRANCH  20  22
ENDBRANCH   8  20
TORSDOF 3
ENDMDL
