MODEL 1
REMARK VINA RESULT:      -8.6      0.000      0.000
REMARK  5 active torsions:
REMARK  status: ('A' for Active; 'I' for Inactive)
REMARK    1  A    between atoms: C3_3  and  C4_4 
REMARK    2  A    between atoms: C4_4  and  C6_6 
REMARK    3  A    between atoms: C6_6  and  C7_7 
REMARK    4  A    between atoms: C7_7  and  C8_8 
REMARK    5  A    between atoms: C11_14  and  C12_15 
ROOT
HETATM    1  C8  UNL     1      23.508   1.751  51.392  1.00  0.00     0.059 C 
HETATM    2  N1  UNL     1      23.264   2.995  51.000  1.00  0.00    -0.242 NA
HETATM    3  C9  UNL     1      24.219   4.117  50.904  1.00  0.00     0.234 C 
HETATM    4  N2  UNL     1      25.542   4.289  50.717  1.00  0.00    -0.235 NA
HETATM    5  C10 UNL     1      26.515   3.187  50.503  1.00  0.00     0.234 C 
HETATM    6  N3  UNL     1      26.841   1.890  50.851  1.00  0.00    -0.246 NA
HETATM    7  C11 UNL     1      26.007   1.125  51.834  1.00  0.00     0.048 C 
HETATM    8  C20 UNL     1      24.705   1.184  51.912  1.00  0.00     0.059 C 
ENDROOT
BRANCH   7   9
HETATM    9  C12 UNL     1      26.799   0.286  52.935  1.00  0.00     0.084 C 
HETATM   10  C13 UNL     1      26.229  -1.104  52.726  1.00  0.00    -0.014 C 
HETATM   11  C14 UNL     1      27.512  -1.376  53.026  1.00  0.00    -0.003 C 
HETATM   12  C15 UNL     1      28.713  -0.931  53.371  1.00  0.00    -0.004 C 
HETATM   13  C16 UNL     1      29.210   0.305  53.702  1.00  0.00    -0.025 C 
HETATM   14  C17 UNL     1      29.244   1.799  53.978  1.00  0.00     0.053 C 
HETATM   15  C18 UNL     1      27.947   2.494  53.778  1.00  0.00     0.171 C 
HETATM   16  O1  UNL     1      26.758   2.157  54.351  1.00  0.00    -0.390 OA
HETATM   17  C19 UNL     1      26.381   0.803  54.230  1.00  0.00     0.182 C 
ENDBRANCH   7   9
BRANCH   1  18
HETATM   18  C7  UNL     1      22.197   0.978  51.358  1.00  0.00     0.028 C 
BRANCH  18  19
HETATM   19  C6  UNL     1      21.196   0.264  51.304  1.00  0.00    -0.016 C 
BRANCH  19  20
HETATM   20  C4  UNL     1      20.816  -0.258  52.698  1.00  0.00     0.026 C 
HETATM   21  C5  UNL     1      20.482   1.211  53.333  1.00  0.00     0.018 C 
BRANCH  20  22
HETATM   22  C3  UNL     1      21.882  -0.678  53.581  1.00  0.00    -0.023 C 
HETATM   23  C2  UNL     1      21.921  -0.900  54.913  1.00  0.00    -0.034 C 
HETATM   24  C1  UNL     1      23.328  -1.306  55.298  1.00  0.00     0.036 C 
ENDBRANCH  20  22
ENDBRANCH  19  20
ENDBRANCH  18  19
ENDBRANCH   1  18
TORSDOF 5
ENDMDL
MODEL 2
REMARK VINA RESULT:      -8.2      1.040      1.690
REMARK  5 active torsions:
REMARK  status: ('A' for Active; 'I' for Inactive)
REMARK    1  A    between atoms: C3_3  and  C4_4 
REMARK    2  A    between atoms: C4_4  and  C6_6 
REMARK    3  A    between atoms: C6_6  and  C7_7 
REMARK    4  A    between atoms: C7_7  and  C8_8 
REMARK    5  A    between atoms: C11_14  and  C12_15 
ROOT
HETATM    1  C8  UNL     1      23.569   1.612  51.726  1.00  0.00     0.059 C 
HETATM    2  N1  UNL     1      23.292   2.843  51.313  1.00  0.00    -0.242 NA
HETATM    3  C9  UNL     1      24.237   3.955  51.085  1.00  0.00     0.234 C 
HETATM    4  N2  UNL     1      25.536   4.111  50.767  1.00  0.00    -0.235 NA
HETATM    5  C10 UNL     1      26.482   2.997  50.502  1.00  0.00     0.234 C 
HETATM    6  N3  UNL     1      26.836   1.711  50.864  1.00  0.00    -0.246 NA
HETATM    7  C11 UNL     1      26.098   0.987  51.949  1.00  0.00     0.048 C 
HETATM    8  C20 UNL     1      24.809   1.057  52.149  1.00  0.00     0.059 C 
ENDROOT
BRANCH   7   9
HETATM    9  C12 UNL     1      26.989   0.184  53.000  1.00  0.00     0.084 C 
HETATM   10  C13 UNL     1      26.538  -1.243  52.752  1.00  0.00    -0.014 C 
HETATM   11  C14 UNL     1      27.848  -1.410  53.012  1.00  0.00    -0.003 C 
HETATM   12  C15 UNL     1      29.014  -0.872  53.346  1.00  0.00    -0.004 C 
HETATM   13  C16 UNL     1      29.408   0.391  53.711  1.00  0.00    -0.025 C 
HETATM   14  C17 UNL     1      29.317   1.872  54.042  1.00  0.00     0.053 C 
HETATM   15  C18 UNL     1      27.960   2.454  53.898  1.00  0.00     0.171 C 
HETATM   16  O1  UNL     1      26.820   1.993  54.485  1.00  0.00    -0.390 OA
HETATM   17  C19 UNL     1      26.561   0.615  54.323  1.00  0.00     0.182 C 
ENDBRANCH   7   9
BRANCH   1  18
HETATM   18  C7  UNL     1      22.260   0.846  51.845  1.00  0.00     0.028 C 
BRANCH  18  19
HETATM   19  C6  UNL     1      21.213   0.198  51.837  1.00  0.00    -0.016 C 
BRANCH  19  20
HETATM   20  C4  UNL     1      20.727  -0.082  53.268  1.00  0.00     0.026 C 
HETATM   21  C5  UNL     1      21.952  -1.092  53.657  1.00  0.00     0.018 C 
BRANCH  20  22
HETATM   22  C3  UNL     1      19.601  -0.973  53.441  1.00  0.00    -0.023 C 
HETATM   23  C2  UNL     1      18.354  -0.967  52.921  1.00  0.00    -0.034 C 
HETATM   24  C1  UNL     1      17.588  -2.148  53.480  1.00  0.00     0.036 C 
ENDBRANCH  20  22
ENDBRANCH  19  20
ENDBRANCH  18  19
ENDBRANCH   1  18
TORSDOF 5
ENDMDL
MODEL 3
REMARK VINA RESULT:      -7.9      2.362      4.542
REMARK  5 active torsions:
REMARK  status: ('A' for Active; 'I' for Inactive)
REMARK    1  A    between atoms: C3_3  and  C4_4 
REMARK    2  A    between atoms: C4_4  and  C6_6 
REMARK    3  A    between atoms: C6_6  and  C7_7 
REMARK    4  A    between atoms: C7_7  and  C8_8 
REMARK    5  A    between atoms: C11_14  and  C12_15 
ROOT
HETATM    1  C8  UNL     1      23.498   0.982  53.285  1.00  0.00     0.059 C 
HETATM    2  N1  UNL     1      22.544   0.174  53.728  1.00  0.00    -0.242 NA
HETATM    3  C9  UNL     1      22.703  -1.091  54.473  1.00  0.00     0.234 C 
HETATM    4  N2  UNL     1      23.604  -1.655  55.301  1.00  0.00    -0.235 NA
HETATM    5  C10 UNL     1      24.859  -1.003  55.755  1.00  0.00     0.234 C 
HETATM    6  N3  UNL     1      25.890  -0.162  55.381  1.00  0.00    -0.246 NA
HETATM    7  C11 UNL     1      25.948   0.414  53.998  1.00  0.00     0.048 C 
HETATM    8  C20 UNL     1      24.911   0.817  53.314  1.00  0.00     0.059 C 
ENDROOT
BRANCH   7   9
HETATM    9  C12 UNL     1      27.374   0.404  53.285  1.00  0.00     0.084 C 
HETATM   10  C13 UNL     1      27.766   1.868  53.367  1.00  0.00    -0.014 C 
HETATM   11  C14 UNL     1      28.952   1.256  53.540  1.00  0.00    -0.003 C 
HETATM   12  C15 UNL     1      29.646   0.127  53.600  1.00  0.00    -0.004 C 
HETATM   13  C16 UNL     1      29.333  -1.193  53.387  1.00  0.00    -0.025 C 
HETATM   14  C17 UNL     1      28.510  -2.426  53.052  1.00  0.00     0.053 C 
HETATM   15  C18 UNL     1      27.081  -2.153  52.757  1.00  0.00     0.171 C 
HETATM   16  O1  UNL     1      26.605  -1.272  51.833  1.00  0.00    -0.390 OA
HETATM   17  C19 UNL     1      27.141   0.033  51.896  1.00  0.00     0.182 C 
ENDBRANCH   7   9
BRANCH   1  18
HETATM   18  C7  UNL     1      22.836   2.135  52.543  1.00  0.00     0.028 C 
BRANCH  18  19
HETATM   19  C6  UNL     1      22.384   3.131  51.977  1.00  0.00    -0.016 C 
BRANCH  19  20
HETATM   20  C4  UNL     1      22.872   3.205  50.522  1.00  0.00     0.026 C 
HETATM   21  C5  UNL     1      22.318   1.729  50.092  1.00  0.00     0.018 C 
BRANCH  20  22
HETATM   22  C3  UNL     1      24.285   3.027  50.270  1.00  0.00    -0.023 C 
HETATM   23  C2  UNL     1      25.254   3.892  49.896  1.00  0.00    -0.034 C 
HETATM   24  C1  UNL     1      26.557   3.133  49.761  1.00  0.00     0.036 C 
ENDBRANCH  20  22
ENDBRANCH  19  20
ENDBRANCH  18  19
ENDBRANCH   1  18
TORSDOF 5
ENDMDL
MODEL 4
REMARK VINA RESULT:      -7.5      2.430      5.724
REMARK  5 active torsions:
REMARK  status: ('A' for Active; 'I' for Inactive)
REMARK    1  A    between atoms: C3_3  and  C4_4 
REMARK    2  A    between atoms: C4_4  and  C6_6 
REMARK    3  A    between atoms: C6_6  and  C7_7 
REMARK    4  A    between atoms: C7_7  and  C8_8 
REMARK    5  A    between atoms: C11_14  and  C12_15 
ROOT
HETATM    1  C8  UNL     1      26.051   2.894  50.586  1.00  0.00     0.059 C 
HETATM    2  N1  UNL     1      27.063   3.585  50.078  1.00  0.00    -0.242 NA
HETATM    3  C9  UNL     1      27.009   4.652  49.058  1.00  0.00     0.234 C 
HETATM    4  N2  UNL     1      26.125   5.570  48.621  1.00  0.00    -0.235 NA
HETATM    5  C10 UNL     1      24.766   5.771  49.184  1.00  0.00     0.234 C 
HETATM    6  N3  UNL     1      23.668   5.134  49.731  1.00  0.00    -0.246 NA
HETATM    7  C11 UNL     1      23.645   3.643  49.888  1.00  0.00     0.048 C 
HETATM    8  C20 UNL     1      24.673   2.914  50.233  1.00  0.00     0.059 C 
ENDROOT
BRANCH   7   9
HETATM    9  C12 UNL     1      22.292   2.907  49.476  1.00  0.00     0.084 C 
HETATM   10  C13 UNL     1      22.539   2.618  48.007  1.00  0.00    -0.014 C 
HETATM   11  C14 UNL     1      21.853   1.525  48.390  1.00  0.00    -0.003 C 
HETATM   12  C15 UNL     1      21.210   0.870  49.348  1.00  0.00    -0.004 C 
HETATM   13  C16 UNL     1      20.856   1.178  50.638  1.00  0.00    -0.025 C 
HETATM   14  C17 UNL     1      20.712   1.976  51.923  1.00  0.00     0.053 C 
HETATM   15  C18 UNL     1      21.343   3.319  51.891  1.00  0.00     0.171 C 
HETATM   16  O1  UNL     1      21.118   4.291  50.963  1.00  0.00    -0.390 OA
HETATM   17  C19 UNL     1      21.226   3.889  49.614  1.00  0.00     0.182 C 
ENDBRANCH   7   9
BRANCH   1  18
HETATM   18  C7  UNL     1      26.616   1.882  51.573  1.00  0.00     0.028 C 
BRANCH  18  19
HETATM   19  C6  UNL     1      26.983   1.078  52.431  1.00  0.00    -0.016 C 
BRANCH  19  20
HETATM   20  C4  UNL     1      26.025   1.081  53.632  1.00  0.00     0.026 C 
HETATM   21  C5  UNL     1      26.995   0.199  54.610  1.00  0.00     0.018 C 
BRANCH  20  22
HETATM   22  C3  UNL     1      24.867   0.216  53.580  1.00  0.00    -0.023 C 
HETATM   23  C2  UNL     1      23.654   0.362  53.003  1.00  0.00    -0.034 C 
HETATM   24  C1  UNL     1      22.824  -0.871  53.296  1.00  0.00     0.036 C 
ENDBRANCH  20  22
ENDBRANCH  19  20
ENDBRANCH  18  19
ENDBRANCH   1  18
TORSDOF 5
ENDMDL
MODEL 5
REMARK VINA RESULT:      -7.4      2.362      6.597
REMARK  5 active torsions:
REMARK  status: ('A' for Active; 'I' for Inactive)
REMARK    1  A    between atoms: C3_3  and  C4_4 
REMARK    2  A    between atoms: C4_4  and  C6_6 
REMARK    3  A    between atoms: C6_6  and  C7_7 
REMARK    4  A    between atoms: C7_7  and  C8_8 
REMARK    5  A    between atoms: C11_14  and  C12_15 
ROOT
HETATM    1  C8  UNL     1      23.815   2.732  52.501  1.00  0.00     0.059 C 
HETATM    2  N1  UNL     1      24.080   3.896  51.923  1.00  0.00    -0.242 NA
HETATM    3  C9  UNL     1      23.154   4.764  51.168  1.00  0.00     0.234 C 
HETATM    4  N2  UNL     1      21.831   5.013  51.126  1.00  0.00    -0.235 NA
HETATM    5  C10 UNL     1      20.821   4.371  52.008  1.00  0.00     0.234 C 
HETATM    6  N3  UNL     1      20.471   3.200  52.651  1.00  0.00    -0.246 NA
HETATM    7  C11 UNL     1      21.315   1.968  52.518  1.00  0.00     0.048 C 
HETATM    8  C20 UNL     1      22.620   1.960  52.476  1.00  0.00     0.059 C 
ENDROOT
BRANCH   7   9
HETATM    9  C12 UNL     1      20.536   0.597  52.284  1.00  0.00     0.084 C 
HETATM   10  C13 UNL     1      20.906  -0.180  53.534  1.00  0.00    -0.014 C 
HETATM   11  C14 UNL     1      19.634  -0.572  53.333  1.00  0.00    -0.003 C 
HETATM   12  C15 UNL     1      18.537  -0.520  52.589  1.00  0.00    -0.004 C 
HETATM   13  C16 UNL     1      18.233   0.063  51.384  1.00  0.00    -0.025 C 
HETATM   14  C17 UNL     1      18.412   0.853  50.098  1.00  0.00     0.053 C 
HETATM   15  C18 UNL     1      19.759   1.451  49.924  1.00  0.00     0.171 C 
HETATM   16  O1  UNL     1      20.948   0.787  49.982  1.00  0.00    -0.390 OA
HETATM   17  C19 UNL     1      21.140  -0.029  51.116  1.00  0.00     0.182 C 
ENDBRANCH   7   9
BRANCH   1  18
HETATM   18  C7  UNL     1      25.102   2.206  53.120  1.00  0.00     0.028 C 
BRANCH  18  19
HETATM   19  C6  UNL     1      26.110   1.680  53.593  1.00  0.00    -0.016 C 
BRANCH  19  20
HETATM   20  C4  UNL     1      26.614   0.544  52.690  1.00  0.00     0.026 C 
HETATM   21  C5  UNL     1      25.493  -0.547  53.164  1.00  0.00     0.018 C 
BRANCH  20  22
HETATM   22  C3  UNL     1      27.821  -0.150  53.080  1.00  0.00    -0.023 C 
HETATM   23  C2  UNL     1      29.005   0.292  53.560  1.00  0.00    -0.034 C 
HETATM   24  C1  UNL     1      29.918  -0.897  53.774  1.00  0.00     0.036 C 
ENDBRANCH  20  22
ENDBRANCH  19  20
ENDBRANCH  18  19
ENDBRANCH   1  18
TORSDOF 5
ENDMDL
MODEL 6
REMARK VINA RESULT:      -7.3      2.073      5.316
REMARK  5 active torsions:
REMARK  status: ('A' for Active; 'I' for Inactive)
REMARK    1  A    between atoms: C3_3  and  C4_4 
REMARK    2  A    between atoms: C4_4  and  C6_6 
REMARK    3  A    between atoms: C6_6  and  C7_7 
REMARK    4  A    between atoms: C7_7  and  C8_8 
REMARK    5  A    between atoms: C11_14  and  C12_15 
ROOT
HETATM    1  C8  UNL     1      25.179   2.947  50.246  1.00  0.00     0.059 C 
HETATM    2  N1  UNL     1      24.063   3.081  49.542  1.00  0.00    -0.242 NA
HETATM    3  C9  UNL     1      22.767   2.410  49.764  1.00  0.00     0.234 C 
HETATM    4  N2  UNL     1      22.085   1.872  50.793  1.00  0.00    -0.235 NA
HETATM    5  C10 UNL     1      22.559   1.849  52.201  1.00  0.00     0.234 C 
HETATM    6  N3  UNL     1      23.670   1.725  53.013  1.00  0.00    -0.246 NA
HETATM    7  C11 UNL     1      25.031   1.508  52.424  1.00  0.00     0.048 C 
HETATM    8  C20 UNL     1      25.467   2.068  51.327  1.00  0.00     0.059 C 
ENDROOT
BRANCH   7   9
HETATM    9  C12 UNL     1      25.946   0.412  53.135  1.00  0.00     0.084 C 
HETATM   10  C13 UNL     1      25.061  -0.819  53.058  1.00  0.00    -0.014 C 
HETATM   11  C14 UNL     1      26.285  -1.349  52.881  1.00  0.00    -0.003 C 
HETATM   12  C15 UNL     1      27.598  -1.171  52.814  1.00  0.00    -0.004 C 
HETATM   13  C16 UNL     1      28.423  -0.093  53.022  1.00  0.00    -0.025 C 
HETATM   14  C17 UNL     1      28.856   1.326  53.352  1.00  0.00     0.053 C 
HETATM   15  C18 UNL     1      27.741   2.259  53.651  1.00  0.00     0.171 C 
HETATM   16  O1  UNL     1      26.762   2.070  54.580  1.00  0.00    -0.390 OA
HETATM   17  C19 UNL     1      26.092   0.830  54.522  1.00  0.00     0.182 C 
ENDBRANCH   7   9
BRANCH   1  18
HETATM   18  C7  UNL     1      26.253   3.814  49.604  1.00  0.00     0.028 C 
BRANCH  18  19
HETATM   19  C6  UNL     1      27.185   4.490  49.169  1.00  0.00    -0.016 C 
BRANCH  19  20
HETATM   20  C4  UNL     1      26.666   5.680  48.347  1.00  0.00     0.026 C 
HETATM   21  C5  UNL     1      28.067   6.521  48.380  1.00  0.00     0.018 C 
BRANCH  20  22
HETATM   22  C3  UNL     1      25.789   6.627  49.001  1.00  0.00    -0.023 C 
HETATM   23  C2  UNL     1      25.958   7.418  50.083  1.00  0.00    -0.034 C 
HETATM   24  C1  UNL     1      24.678   8.193  50.324  1.00  0.00     0.036 C 
ENDBRANCH  20  22
ENDBRANCH  19  20
ENDBRANCH  18  19
ENDBRANCH   1  18
TORSDOF 5
ENDMDL
MODEL 7
REMARK VINA RESULT:      -7.3      2.556      5.350
REMARK  5 active torsions:
REMARK  status: ('A' for Active; 'I' for Inactive)
REMARK    1  A    between atoms: C3_3  and  C4_4 
REMARK    2  A    between atoms: C4_4  and  C6_6 
REMARK    3  A    between atoms: C6_6  and  C7_7 
REMARK    4  A    between atoms: C7_7  and  C8_8 
REMARK    5  A    between atoms: C11_14  and  C12_15 
ROOT
HETATM    1  C8  UNL     1      23.162   0.028  53.417  1.00  0.00     0.059 C 
HETATM    2  N1  UNL     1      24.113  -0.727  53.952  1.00  0.00    -0.242 NA
HETATM    3  C9  UNL     1      25.569  -0.481  53.955  1.00  0.00     0.234 C 
HETATM    4  N2  UNL     1      26.402   0.576  53.897  1.00  0.00    -0.235 NA
HETATM    5  C10 UNL     1      25.966   1.994  53.828  1.00  0.00     0.234 C 
HETATM    6  N3  UNL     1      25.013   2.855  53.318  1.00  0.00    -0.246 NA
HETATM    7  C11 UNL     1      23.900   2.343  52.453  1.00  0.00     0.048 C 
HETATM    8  C20 UNL     1      23.278   1.209  52.632  1.00  0.00     0.059 C 
ENDROOT
BRANCH   7   9
HETATM    9  C12 UNL     1      23.558   3.203  51.154  1.00  0.00     0.084 C 
HETATM   10  C13 UNL     1      24.815   3.017  50.326  1.00  0.00    -0.014 C 
HETATM   11  C14 UNL     1      23.861   3.035  49.377  1.00  0.00    -0.003 C 
HETATM   12  C15 UNL     1      22.578   3.163  49.063  1.00  0.00    -0.004 C 
HETATM   13  C16 UNL     1      21.450   3.473  49.781  1.00  0.00    -0.025 C 
HETATM   14  C17 UNL     1      20.572   3.839  50.966  1.00  0.00     0.053 C 
HETATM   15  C18 UNL     1      21.293   3.950  52.258  1.00  0.00     0.171 C 
HETATM   16  O1  UNL     1      22.387   4.725  52.504  1.00  0.00    -0.390 OA
HETATM   17  C19 UNL     1      23.453   4.589  51.590  1.00  0.00     0.182 C 
ENDBRANCH   7   9
BRANCH   1  18
HETATM   18  C7  UNL     1      21.825  -0.666  53.638  1.00  0.00     0.028 C 
BRANCH  18  19
HETATM   19  C6  UNL     1      20.798  -1.301  53.876  1.00  0.00    -0.016 C 
BRANCH  19  20
HETATM   20  C4  UNL     1      19.548  -0.475  53.537  1.00  0.00     0.026 C 
HETATM   21  C5  UNL     1      18.523  -1.748  53.487  1.00  0.00     0.018 C 
BRANCH  20  22
HETATM   22  C3  UNL     1      19.405   0.017  52.184  1.00  0.00    -0.023 C 
HETATM   23  C2  UNL     1      18.320   0.365  51.457  1.00  0.00    -0.034 C 
HETATM   24  C1  UNL     1      18.776   0.792  50.077  1.00  0.00     0.036 C 
ENDBRANCH  20  22
ENDBRANCH  19  20
ENDBRANCH  18  19
ENDBRANCH   1  18
TORSDOF 5
ENDMDL
MODEL 8
REMARK VINA RESULT:      -7.2      2.685      6.324
REMARK  5 active torsions:
REMARK  status: ('A' for Active; 'I' for Inactive)
REMARK    1  A    between atoms: C3_3  and  C4_4 
REMARK    2  A    between atoms: C4_4  and  C6_6 
REMARK    3  A    between atoms: C6_6  and  C7_7 
REMARK    4  A    between atoms: C7_7  and  C8_8 
REMARK    5  A    between atoms: C11_14  and  C12_15 
ROOT
HETATM    1  C8  UNL     1      23.076  -0.076  53.195  1.00  0.00     0.059 C 
HETATM    2  N1  UNL     1      22.331  -0.896  53.926  1.00  0.00    -0.242 NA
HETATM    3  C9  UNL     1      20.867  -0.859  54.118  1.00  0.00     0.234 C 
HETATM    4  N2  UNL     1      19.783  -0.429  53.444  1.00  0.00    -0.235 NA
HETATM    5  C10 UNL     1      19.818   0.198  52.097  1.00  0.00     0.234 C 
HETATM    6  N3  UNL     1      20.534   1.036  51.264  1.00  0.00    -0.246 NA
HETATM    7  C11 UNL     1      21.807   1.677  51.730  1.00  0.00     0.048 C 
HETATM    8  C20 UNL     1      22.701   1.098  52.485  1.00  0.00     0.059 C 
ENDROOT
BRANCH   7   9
HETATM    9  C12 UNL     1      21.997   3.219  51.369  1.00  0.00     0.084 C 
HETATM   10  C13 UNL     1      20.962   3.871  52.265  1.00  0.00    -0.014 C 
HETATM   11  C14 UNL     1      21.957   4.776  52.292  1.00  0.00    -0.003 C 
HETATM   12  C15 UNL     1      23.159   5.151  51.874  1.00  0.00    -0.004 C 
HETATM   13  C16 UNL     1      24.047   4.644  50.956  1.00  0.00    -0.025 C 
HETATM   14  C17 UNL     1      24.629   3.725  49.896  1.00  0.00     0.053 C 
HETATM   15  C18 UNL     1      23.774   2.563  49.548  1.00  0.00     0.171 C 
HETATM   16  O1  UNL     1      22.472   2.613  49.152  1.00  0.00    -0.390 OA
HETATM   17  C19 UNL     1      21.609   3.370  49.973  1.00  0.00     0.182 C 
ENDBRANCH   7   9
BRANCH   1  18
HETATM   18  C7  UNL     1      24.531  -0.498  53.345  1.00  0.00     0.028 C 
BRANCH  18  19
HETATM   19  C6  UNL     1      25.714  -0.841  53.357  1.00  0.00    -0.016 C 
BRANCH  19  20
HETATM   20  C4  UNL     1      26.641   0.383  53.415  1.00  0.00     0.026 C 
HETATM   21  C5  UNL     1      26.475   0.784  51.839  1.00  0.00     0.018 C 
BRANCH  20  22
HETATM   22  C3  UNL     1      28.068   0.152  53.467  1.00  0.00    -0.023 C 
HETATM   23  C2  UNL     1      28.802  -0.982  53.464  1.00  0.00    -0.034 C 
HETATM   24  C1  UNL     1      30.268  -0.614  53.558  1.00  0.00     0.036 C 
ENDBRANCH  20  22
ENDBRANCH  19  20
ENDBRANCH  18  19
ENDBRANCH   1  18
TORSDOF 5
ENDMDL
MODEL 9
REMARK VINA RESULT:      -7.1      1.348      2.515
REMARK  5 active torsions:
REMARK  status: ('A' for Active; 'I' for Inactive)
REMARK    1  A    between atoms: C3_3  and  C4_4 
REMARK    2  A    between atoms: C4_4  and  C6_6 
REMARK    3  A    between atoms: C6_6  and  C7_7 
REMARK    4  A    between atoms: C7_7  and  C8_8 
REMARK    5  A    between atoms: C11_14  and  C12_15 
ROOT
HETATM    1  C8  UNL     1      23.487   2.909  51.844  1.00  0.00     0.059 C 
HETATM    2  N1  UNL     1      23.585   4.110  51.289  1.00  0.00    -0.242 NA
HETATM    3  C9  UNL     1      24.806   4.785  50.803  1.00  0.00     0.234 C 
HETATM    4  N2  UNL     1      26.018   4.436  50.330  1.00  0.00    -0.235 NA
HETATM    5  C10 UNL     1      26.477   3.038  50.130  1.00  0.00     0.234 C 
HETATM    6  N3  UNL     1      26.424   1.753  50.635  1.00  0.00    -0.246 NA
HETATM    7  C11 UNL     1      25.656   1.450  51.886  1.00  0.00     0.048 C 
HETATM    8  C20 UNL     1      24.513   1.994  52.210  1.00  0.00     0.059 C 
ENDROOT
BRANCH   7   9
HETATM    9  C12 UNL     1      26.369   0.490  52.942  1.00  0.00     0.084 C 
HETATM   10  C13 UNL     1      25.454  -0.719  52.919  1.00  0.00    -0.014 C 
HETATM   11  C14 UNL     1      26.662  -1.292  53.075  1.00  0.00    -0.003 C 
HETATM   12  C15 UNL     1      27.972  -1.148  53.228  1.00  0.00    -0.004 C 
HETATM   13  C16 UNL     1      28.796  -0.063  53.393  1.00  0.00    -0.025 C 
HETATM   14  C17 UNL     1      29.231   1.386  53.542  1.00  0.00     0.053 C 
HETATM   15  C18 UNL     1      28.128   2.374  53.453  1.00  0.00     0.171 C 
HETATM   16  O1  UNL     1      26.986   2.375  54.197  1.00  0.00    -0.390 OA
HETATM   17  C19 UNL     1      26.278   1.155  54.234  1.00  0.00     0.182 C 
ENDBRANCH   7   9
BRANCH   1  18
HETATM   18  C7  UNL     1      22.029   2.674  52.212  1.00  0.00     0.028 C 
BRANCH  18  19
HETATM   19  C6  UNL     1      20.859   2.386  52.465  1.00  0.00    -0.016 C 
BRANCH  19  20
HETATM   20  C4  UNL     1      20.209   1.641  51.289  1.00  0.00     0.026 C 
HETATM   21  C5  UNL     1      20.810   0.171  51.678  1.00  0.00     0.018 C 
BRANCH  20  22
HETATM   22  C3  UNL     1      20.789   1.810  49.974  1.00  0.00    -0.023 C 
HETATM   23  C2  UNL     1      21.432   0.952  49.152  1.00  0.00    -0.034 C 
HETATM   24  C1  UNL     1      21.842   1.695  47.898  1.00  0.00     0.036 C 
ENDBRANCH  20  22
ENDBRANCH  19  20
ENDBRANCH  18  19
ENDBRANCH   1  18
TORSDOF 5
ENDMDL
