MODEL 1
REMARK VINA RESULT:      -6.7      0.000      0.000
REMARK  8 active torsions:
REMARK  status: ('A' for Active; 'I' for Inactive)
REMARK    1  A    between atoms: N1_2  and  C2_3 
REMARK    2  A    between atoms: C2_3  and  N2_4 
REMARK    3  A    between atoms: N2_4  and  C3_5 
REMARK    4  A    between atoms: C3_5  and  C4_6 
REMARK    5  A    between atoms: C4_6  and  O1_7 
REMARK       I    between atoms: N3_15  and  C11_16 
REMARK    6  A    between atoms: C11_16  and  C12_18 
REMARK    7  A    between atoms: C13_19  and  C14_20 
REMARK    8  A    between atoms: C14_20  and  N4_21 
ROOT
HETATM    1  C2  UNL     1      27.575   0.545  53.289  1.00  0.00     0.129 C 
HETATM    2  C5  UNL     1      26.304   0.537  52.871  1.00  0.00     0.004 C 
HETATM    3  C6  UNL     1      25.326  -0.523  53.245  1.00  0.00     0.122 C 
HETATM    4  S1  UNL     1      23.790   0.479  53.096  1.00  0.00    -0.127 SA
HETATM    5  C7  UNL     1      24.486   1.714  51.994  1.00  0.00     0.003 C 
HETATM    6  C8  UNL     1      25.800   1.591  52.007  1.00  0.00    -0.031 C 
HETATM    7  C9  UNL     1      26.478   2.569  51.125  1.00  0.00     0.060 C 
HETATM    8  C10 UNL     1      25.658   3.055  49.995  1.00  0.00     0.131 C 
HETATM    9  N3  UNL     1      24.299   3.382  50.280  1.00  0.00    -0.344 N 
HETATM   10  C11 UNL     1      23.583   4.443  49.614  1.00  0.00     0.243 C 
HETATM   11  O2  UNL     1      24.261   5.066  48.747  1.00  0.00    -0.268 OA
HETATM   12  C17 UNL     1      23.584   2.616  51.287  1.00  0.00     0.172 C 
ENDROOT
BRANCH   1  13
HETATM   13  N1  UNL     1      28.534   1.564  52.934  1.00  0.00    -0.254 NA
HETATM   14  C1  UNL     1      28.932   2.429  53.814  1.00  0.00     0.151 C 
ENDBRANCH   1  13
BRANCH   1  15
HETATM   15  N2  UNL     1      28.089  -0.458  54.122  1.00  0.00    -0.372 N 
HETATM   16  H3  UNL     1      27.685  -0.613  55.086  1.00  0.00     0.161 HD
BRANCH  15  17
HETATM   17  C3  UNL     1      29.182  -1.287  53.668  1.00  0.00     0.147 C 
BRANCH  17  18
HETATM   18  C4  UNL     1      28.772  -2.390  52.738  1.00  0.00     0.183 C 
BRANCH  18  19
HETATM   19  O1  UNL     1      28.681  -3.564  53.509  1.00  0.00    -0.399 OA
HETATM   20  H8  UNL     1      28.249  -3.377  54.380  1.00  0.00     0.209 HD
ENDBRANCH  18  19
ENDBRANCH  17  18
ENDBRANCH  15  17
ENDBRANCH   1  15
BRANCH  10  21
HETATM   21  C12 UNL     1      22.199   4.715  49.959  1.00  0.00     0.072 C 
HETATM   22  C13 UNL     1      21.186   4.330  49.210  1.00  0.00     0.008 C 
BRANCH  22  23
HETATM   23  C14 UNL     1      21.000   3.600  47.946  1.00  0.00     0.299 C 
BRANCH  23  24
HETATM   24  N4  UNL     1      20.550   2.239  48.173  1.00  0.00     0.083 N 
HETATM   25  C15 UNL     1      19.674   2.243  49.323  1.00  0.00     0.309 C 
HETATM   26  C16 UNL     1      21.635   1.327  48.407  1.00  0.00     0.309 C 
ENDBRANCH  23  24
ENDBRANCH  22  23
ENDBRANCH  10  21
TORSDOF 8
ENDMDL
MODEL 2
REMARK VINA RESULT:      -6.6      1.583      2.558
REMARK  8 active torsions:
REMARK  status: ('A' for Active; 'I' for Inactive)
REMARK    1  A    between atoms: N1_2  and  C2_3 
REMARK    2  A    between atoms: C2_3  and  N2_4 
REMARK    3  A    between atoms: N2_4  and  C3_5 
REMARK    4  A    between atoms: C3_5  and  C4_6 
REMARK    5  A    between atoms: C4_6  and  O1_7 
REMARK       I    between atoms: N3_15  and  C11_16 
REMARK    6  A    between atoms: C11_16  and  C12_18 
REMARK    7  A    between atoms: C13_19  and  C14_20 
REMARK    8  A    between atoms: C14_20  and  N4_21 
ROOT
HETATM    1  C2  UNL     1      27.733   0.501  53.383  1.00  0.00     0.129 C 
HETATM    2  C5  UNL     1      26.470   0.370  52.959  1.00  0.00     0.004 C 
HETATM    3  C6  UNL     1      25.600  -0.783  53.323  1.00  0.00     0.122 C 
HETATM    4  S1  UNL     1      23.973   0.063  53.172  1.00  0.00    -0.127 SA
HETATM    5  C7  UNL     1      24.549   1.368  52.080  1.00  0.00     0.003 C 
HETATM    6  C8  UNL     1      25.869   1.375  52.098  1.00  0.00    -0.031 C 
HETATM    7  C9  UNL     1      26.451   2.420  51.224  1.00  0.00     0.060 C 
HETATM    8  C10 UNL     1      25.591   2.829  50.093  1.00  0.00     0.131 C 
HETATM    9  N3  UNL     1      24.205   3.019  50.374  1.00  0.00    -0.344 N 
HETATM   10  C11 UNL     1      23.392   4.008  49.710  1.00  0.00     0.243 C 
HETATM   11  O2  UNL     1      24.008   4.700  48.850  1.00  0.00    -0.268 OA
HETATM   12  C17 UNL     1      23.565   2.180  51.373  1.00  0.00     0.172 C 
ENDROOT
BRANCH   1  13
HETATM   13  N1  UNL     1      28.588   1.612  53.038  1.00  0.00    -0.254 NA
HETATM   14  C1  UNL     1      28.975   2.453  53.946  1.00  0.00     0.151 C 
ENDBRANCH   1  13
BRANCH   1  15
HETATM   15  N2  UNL     1      28.340  -0.451  54.213  1.00  0.00    -0.372 N 
HETATM   16  H3  UNL     1      28.044  -0.548  55.222  1.00  0.00     0.161 HD
BRANCH  15  17
HETATM   17  C3  UNL     1      29.381  -1.307  53.693  1.00  0.00     0.147 C 
BRANCH  17  18
HETATM   18  C4  UNL     1      28.891  -2.373  52.758  1.00  0.00     0.183 C 
BRANCH  18  19
HETATM   19  O1  UNL     1      28.704  -3.538  53.526  1.00  0.00    -0.399 OA
HETATM   20  H8  UNL     1      29.352  -3.570  54.273  1.00  0.00     0.209 HD
ENDBRANCH  18  19
ENDBRANCH  17  18
ENDBRANCH  15  17
ENDBRANCH   1  15
BRANCH  10  21
HETATM   21  C12 UNL     1      21.985   4.141  50.050  1.00  0.00     0.072 C 
HETATM   22  C13 UNL     1      21.471   5.248  50.545  1.00  0.00     0.008 C 
BRANCH  22  23
HETATM   23  C14 UNL     1      21.956   6.589  50.911  1.00  0.00     0.299 C 
BRANCH  23  24
HETATM   24  N4  UNL     1      21.875   7.512  49.794  1.00  0.00     0.083 N 
HETATM   25  C15 UNL     1      23.090   8.295  49.771  1.00  0.00     0.309 C 
HETATM   26  C16 UNL     1      20.745   8.393  49.883  1.00  0.00     0.309 C 
ENDBRANCH  23  24
ENDBRANCH  22  23
ENDBRANCH  10  21
TORSDOF 8
ENDMDL
MODEL 3
REMARK VINA RESULT:      -6.5      4.073      5.167
REMARK  8 active torsions:
REMARK  status: ('A' for Active; 'I' for Inactive)
REMARK    1  A    between atoms: N1_2  and  C2_3 
REMARK    2  A    between atoms: C2_3  and  N2_4 
REMARK    3  A    between atoms: N2_4  and  C3_5 
REMARK    4  A    between atoms: C3_5  and  C4_6 
REMARK    5  A    between atoms: C4_6  and  O1_7 
REMARK       I    between atoms: N3_15  and  C11_16 
REMARK    6  A    between atoms: C11_16  and  C12_18 
REMARK    7  A    between atoms: C13_19  and  C14_20 
REMARK    8  A    between atoms: C14_20  and  N4_21 
ROOT
HETATM    1  C2  UNL     1      26.843   0.075  52.927  1.00  0.00     0.129 C 
HETATM    2  C5  UNL     1      25.796   0.871  52.680  1.00  0.00     0.004 C 
HETATM    3  C6  UNL     1      25.930   2.278  52.209  1.00  0.00     0.122 C 
HETATM    4  S1  UNL     1      24.322   2.409  51.324  1.00  0.00    -0.127 SA
HETATM    5  C7  UNL     1      23.514   1.077  52.220  1.00  0.00     0.003 C 
HETATM    6  C8  UNL     1      24.437   0.388  52.863  1.00  0.00    -0.031 C 
HETATM    7  C9  UNL     1      23.875  -0.741  53.639  1.00  0.00     0.060 C 
HETATM    8  C10 UNL     1      22.468  -0.564  54.057  1.00  0.00     0.131 C 
HETATM    9  N3  UNL     1      21.571  -0.029  53.085  1.00  0.00    -0.344 N 
HETATM   10  C11 UNL     1      20.180  -0.403  53.002  1.00  0.00     0.243 C 
HETATM   11  O2  UNL     1      19.813  -1.249  53.867  1.00  0.00    -0.268 OA
HETATM   12  C17 UNL     1      22.065   0.945  52.128  1.00  0.00     0.172 C 
ENDROOT
BRANCH   1  13
HETATM   13  N1  UNL     1      26.728  -1.290  53.384  1.00  0.00    -0.254 NA
HETATM   14  C1  UNL     1      27.066  -2.274  52.610  1.00  0.00     0.151 C 
ENDBRANCH   1  13
BRANCH   1  15
HETATM   15  N2  UNL     1      28.164   0.513  52.760  1.00  0.00    -0.372 N 
HETATM   16  H3  UNL     1      28.522   0.784  51.804  1.00  0.00     0.161 HD
BRANCH  15  17
HETATM   17  C3  UNL     1      29.050   0.593  53.898  1.00  0.00     0.147 C 
BRANCH  17  18
HETATM   18  C4  UNL     1      29.317   1.990  54.372  1.00  0.00     0.183 C 
BRANCH  18  19
HETATM   19  O1  UNL     1      29.270   2.824  53.240  1.00  0.00    -0.399 OA
HETATM   20  H8  UNL     1      28.878   2.343  52.469  1.00  0.00     0.209 HD
ENDBRANCH  18  19
ENDBRANCH  17  18
ENDBRANCH  15  17
ENDBRANCH   1  15
BRANCH  10  21
HETATM   21  C12 UNL     1      19.328   0.187  51.984  1.00  0.00     0.072 C 
HETATM   22  C13 UNL     1      18.057  -0.132  51.842  1.00  0.00     0.008 C 
BRANCH  22  23
HETATM   23  C14 UNL     1      17.096  -1.035  52.497  1.00  0.00     0.299 C 
BRANCH  23  24
HETATM   24  N4  UNL     1      15.749  -0.841  51.992  1.00  0.00     0.083 N 
HETATM   25  C15 UNL     1      15.103   0.158  52.812  1.00  0.00     0.309 C 
HETATM   26  C16 UNL     1      14.970  -2.048  52.011  1.00  0.00     0.309 C 
ENDBRANCH  23  24
ENDBRANCH  22  23
ENDBRANCH  10  21
TORSDOF 8
ENDMDL
MODEL 4
REMARK VINA RESULT:      -6.2      4.163      6.662
REMARK  8 active torsions:
REMARK  status: ('A' for Active; 'I' for Inactive)
REMARK    1  A    between atoms: N1_2  and  C2_3 
REMARK    2  A    between atoms: C2_3  and  N2_4 
REMARK    3  A    between atoms: N2_4  and  C3_5 
REMARK    4  A    between atoms: C3_5  and  C4_6 
REMARK    5  A    between atoms: C4_6  and  O1_7 
REMARK       I    between atoms: N3_15  and  C11_16 
REMARK    6  A    between atoms: C11_16  and  C12_18 
REMARK    7  A    between atoms: C13_19  and  C14_20 
REMARK    8  A    between atoms: C14_20  and  N4_21 
ROOT
HETATM    1  C2  UNL     1      22.578   0.973  51.739  1.00  0.00     0.129 C 
HETATM    2  C5  UNL     1      23.851   1.365  51.861  1.00  0.00     0.004 C 
HETATM    3  C6  UNL     1      24.808   0.752  52.825  1.00  0.00     0.122 C 
HETATM    4  S1  UNL     1      26.362   1.107  51.907  1.00  0.00    -0.127 SA
HETATM    5  C7  UNL     1      25.694   2.466  50.940  1.00  0.00     0.003 C 
HETATM    6  C8  UNL     1      24.379   2.439  51.036  1.00  0.00    -0.031 C 
HETATM    7  C9  UNL     1      23.724   3.525  50.271  1.00  0.00     0.060 C 
HETATM    8  C10 UNL     1      24.560   4.727  50.065  1.00  0.00     0.131 C 
HETATM    9  N3  UNL     1      25.923   4.509  49.704  1.00  0.00    -0.344 N 
HETATM   10  C11 UNL     1      26.661   5.389  48.832  1.00  0.00     0.243 C 
HETATM   11  O2  UNL     1      26.000   6.381  48.409  1.00  0.00    -0.268 OA
HETATM   12  C17 UNL     1      26.617   3.349  50.235  1.00  0.00     0.172 C 
ENDROOT
BRANCH   1  13
HETATM   13  N1  UNL     1      21.639   1.558  50.810  1.00  0.00    -0.254 NA
HETATM   14  C1  UNL     1      21.181   0.866  49.814  1.00  0.00     0.151 C 
ENDBRANCH   1  13
BRANCH   1  15
HETATM   15  N2  UNL     1      22.040  -0.059  52.520  1.00  0.00    -0.372 N 
HETATM   16  H3  UNL     1      22.206  -1.070  52.261  1.00  0.00     0.161 HD
BRANCH  15  17
HETATM   17  C3  UNL     1      21.249   0.253  53.688  1.00  0.00     0.147 C 
BRANCH  17  18
HETATM   18  C4  UNL     1      21.620  -0.533  54.910  1.00  0.00     0.183 C 
BRANCH  18  19
HETATM   19  O1  UNL     1      20.854  -1.713  54.888  1.00  0.00    -0.399 OA
HETATM   20  H8  UNL     1      20.238  -1.744  55.661  1.00  0.00     0.209 HD
ENDBRANCH  18  19
ENDBRANCH  17  18
ENDBRANCH  15  17
ENDBRANCH   1  15
BRANCH  10  21
HETATM   21  C12 UNL     1      28.048   5.100  48.510  1.00  0.00     0.072 C 
HETATM   22  C13 UNL     1      28.931   6.040  48.245  1.00  0.00     0.008 C 
BRANCH  22  23
HETATM   23  C14 UNL     1      28.946   7.510  48.164  1.00  0.00     0.299 C 
BRANCH  23  24
HETATM   24  N4  UNL     1      30.295   8.026  48.025  1.00  0.00     0.083 N 
HETATM   25  C15 UNL     1      31.091   7.499  49.110  1.00  0.00     0.309 C 
HETATM   26  C16 UNL     1      30.347   9.461  48.053  1.00  0.00     0.309 C 
ENDBRANCH  23  24
ENDBRANCH  22  23
ENDBRANCH  10  21
TORSDOF 8
ENDMDL
MODEL 5
REMARK VINA RESULT:      -6.1      1.558      1.909
REMARK  8 active torsions:
REMARK  status: ('A' for Active; 'I' for Inactive)
REMARK    1  A    between atoms: N1_2  and  C2_3 
REMARK    2  A    between atoms: C2_3  and  N2_4 
REMARK    3  A    between atoms: N2_4  and  C3_5 
REMARK    4  A    between atoms: C3_5  and  C4_6 
REMARK    5  A    between atoms: C4_6  and  O1_7 
REMARK       I    between atoms: N3_15  and  C11_16 
REMARK    6  A    between atoms: C11_16  and  C12_18 
REMARK    7  A    between atoms: C13_19  and  C14_20 
REMARK    8  A    between atoms: C14_20  and  N4_21 
ROOT
HETATM    1  C2  UNL     1      27.162   0.500  53.400  1.00  0.00     0.129 C 
HETATM    2  C5  UNL     1      25.860   0.237  53.242  1.00  0.00     0.004 C 
HETATM    3  C6  UNL     1      25.205  -0.996  53.762  1.00  0.00     0.122 C 
HETATM    4  S1  UNL     1      23.504  -0.322  53.957  1.00  0.00    -0.127 SA
HETATM    5  C7  UNL     1      23.708   1.025  52.786  1.00  0.00     0.003 C 
HETATM    6  C8  UNL     1      24.995   1.167  52.534  1.00  0.00    -0.031 C 
HETATM    7  C9  UNL     1      25.276   2.258  51.573  1.00  0.00     0.060 C 
HETATM    8  C10 UNL     1      24.166   2.566  50.647  1.00  0.00     0.131 C 
HETATM    9  N3  UNL     1      22.855   2.616  51.207  1.00  0.00    -0.344 N 
HETATM   10  C11 UNL     1      21.826   3.510  50.735  1.00  0.00     0.243 C 
HETATM   11  O2  UNL     1      22.179   4.254  49.776  1.00  0.00    -0.268 OA
HETATM   12  C17 UNL     1      22.522   1.725  52.305  1.00  0.00     0.172 C 
ENDROOT
BRANCH   1  13
HETATM   13  N1  UNL     1      27.810   1.690  52.901  1.00  0.00    -0.254 NA
HETATM   14  C1  UNL     1      28.563   2.405  53.678  1.00  0.00     0.151 C 
ENDBRANCH   1  13
BRANCH   1  15
HETATM   15  N2  UNL     1      28.020  -0.377  54.077  1.00  0.00    -0.372 N 
HETATM   16  H3  UNL     1      28.009  -0.430  55.132  1.00  0.00     0.161 HD
BRANCH  15  17
HETATM   17  C3  UNL     1      28.932  -1.216  53.334  1.00  0.00     0.147 C 
BRANCH  17  18
HETATM   18  C4  UNL     1      28.299  -2.441  52.744  1.00  0.00     0.183 C 
BRANCH  18  19
HETATM   19  O1  UNL     1      28.733  -3.537  53.513  1.00  0.00    -0.399 OA
HETATM   20  H8  UNL     1      27.973  -4.134  53.727  1.00  0.00     0.209 HD
ENDBRANCH  18  19
ENDBRANCH  17  18
ENDBRANCH  15  17
ENDBRANCH   1  15
BRANCH  10  21
HETATM   21  C12 UNL     1      20.514   3.502  51.358  1.00  0.00     0.072 C 
HETATM   22  C13 UNL     1      19.488   2.845  50.855  1.00  0.00     0.008 C 
BRANCH  22  23
HETATM   23  C14 UNL     1      19.227   1.993  49.683  1.00  0.00     0.299 C 
BRANCH  23  24
HETATM   24  N4  UNL     1      18.540   0.769  50.053  1.00  0.00     0.083 N 
HETATM   25  C15 UNL     1      17.118   1.007  49.956  1.00  0.00     0.309 C 
HETATM   26  C16 UNL     1      18.858   0.335  51.385  1.00  0.00     0.309 C 
ENDBRANCH  23  24
ENDBRANCH  22  23
ENDBRANCH  10  21
TORSDOF 8
ENDMDL
MODEL 6
REMARK VINA RESULT:      -6.1      3.500      4.766
REMARK  8 active torsions:
REMARK  status: ('A' for Active; 'I' for Inactive)
REMARK    1  A    between atoms: N1_2  and  C2_3 
REMARK    2  A    between atoms: C2_3  and  N2_4 
REMARK    3  A    between atoms: N2_4  and  C3_5 
REMARK    4  A    between atoms: C3_5  and  C4_6 
REMARK    5  A    between atoms: C4_6  and  O1_7 
REMARK       I    between atoms: N3_15  and  C11_16 
REMARK    6  A    between atoms: C11_16  and  C12_18 
REMARK    7  A    between atoms: C13_19  and  C14_20 
REMARK    8  A    between atoms: C14_20  and  N4_21 
ROOT
HETATM    1  C2  UNL     1      25.913   0.887  52.483  1.00  0.00     0.129 C 
HETATM    2  C5  UNL     1      24.852   1.539  51.995  1.00  0.00     0.004 C 
HETATM    3  C6  UNL     1      24.949   2.846  51.285  1.00  0.00     0.122 C 
HETATM    4  S1  UNL     1      23.439   2.688  50.246  1.00  0.00    -0.127 SA
HETATM    5  C7  UNL     1      22.624   1.478  51.294  1.00  0.00     0.003 C 
HETATM    6  C8  UNL     1      23.514   0.990  52.137  1.00  0.00    -0.031 C 
HETATM    7  C9  UNL     1      22.942  -0.023  53.054  1.00  0.00     0.060 C 
HETATM    8  C10 UNL     1      21.490   0.115  53.298  1.00  0.00     0.131 C 
HETATM    9  N3  UNL     1      20.670   0.394  52.165  1.00  0.00    -0.344 N 
HETATM   10  C11 UNL     1      19.322  -0.098  52.023  1.00  0.00     0.243 C 
HETATM   11  O2  UNL     1      18.918  -0.803  52.992  1.00  0.00    -0.268 OA
HETATM   12  C17 UNL     1      21.203   1.217  51.093  1.00  0.00     0.172 C 
ENDROOT
BRANCH   1  13
HETATM   13  N1  UNL     1      25.834  -0.379  53.173  1.00  0.00    -0.254 NA
HETATM   14  C1  UNL     1      26.588  -1.372  52.816  1.00  0.00     0.151 C 
ENDBRANCH   1  13
BRANCH   1  15
HETATM   15  N2  UNL     1      27.215   1.391  52.362  1.00  0.00    -0.372 N 
HETATM   16  H3  UNL     1      27.762   1.253  51.468  1.00  0.00     0.161 HD
BRANCH  15  17
HETATM   17  C3  UNL     1      27.823   2.102  53.463  1.00  0.00     0.147 C 
BRANCH  17  18
HETATM   18  C4  UNL     1      29.012   1.411  54.060  1.00  0.00     0.183 C 
BRANCH  18  19
HETATM   19  O1  UNL     1      29.762   2.393  54.734  1.00  0.00    -0.399 OA
HETATM   20  H8  UNL     1      30.254   1.994  55.494  1.00  0.00     0.209 HD
ENDBRANCH  18  19
ENDBRANCH  17  18
ENDBRANCH  15  17
ENDBRANCH   1  15
BRANCH  10  21
HETATM   21  C12 UNL     1      18.548   0.230  50.838  1.00  0.00     0.072 C 
HETATM   22  C13 UNL     1      17.775   1.294  50.760  1.00  0.00     0.008 C 
BRANCH  22  23
HETATM   23  C14 UNL     1      17.401   2.417  51.636  1.00  0.00     0.299 C 
BRANCH  23  24
HETATM   24  N4  UNL     1      16.524   3.355  50.959  1.00  0.00     0.083 N 
HETATM   25  C15 UNL     1      17.316   4.105  50.011  1.00  0.00     0.309 C 
HETATM   26  C16 UNL     1      15.880   4.265  51.865  1.00  0.00     0.309 C 
ENDBRANCH  23  24
ENDBRANCH  22  23
ENDBRANCH  10  21
TORSDOF 8
ENDMDL
MODEL 7
REMARK VINA RESULT:      -6.1      4.154      5.360
REMARK  8 active torsions:
REMARK  status: ('A' for Active; 'I' for Inactive)
REMARK    1  A    between atoms: N1_2  and  C2_3 
REMARK    2  A    between atoms: C2_3  and  N2_4 
REMARK    3  A    between atoms: N2_4  and  C3_5 
REMARK    4  A    between atoms: C3_5  and  C4_6 
REMARK    5  A    between atoms: C4_6  and  O1_7 
REMARK       I    between atoms: N3_15  and  C11_16 
REMARK    6  A    between atoms: C11_16  and  C12_18 
REMARK    7  A    between atoms: C13_19  and  C14_20 
REMARK    8  A    between atoms: C14_20  and  N4_21 
ROOT
HETATM    1  C2  UNL     1      25.108   0.308  53.711  1.00  0.00     0.129 C 
HETATM    2  C5  UNL     1      24.158   0.920  52.995  1.00  0.00     0.004 C 
HETATM    3  C6  UNL     1      24.419   2.107  52.133  1.00  0.00     0.122 C 
HETATM    4  S1  UNL     1      23.056   1.854  50.924  1.00  0.00    -0.127 SA
HETATM    5  C7  UNL     1      22.044   0.835  52.003  1.00  0.00     0.003 C 
HETATM    6  C8  UNL     1      22.785   0.442  53.021  1.00  0.00    -0.031 C 
HETATM    7  C9  UNL     1      22.042  -0.409  53.979  1.00  0.00     0.060 C 
HETATM    8  C10 UNL     1      20.581  -0.189  53.997  1.00  0.00     0.131 C 
HETATM    9  N3  UNL     1      19.936  -0.047  52.732  1.00  0.00    -0.344 N 
HETATM   10  C11 UNL     1      18.594  -0.508  52.472  1.00  0.00     0.243 C 
HETATM   11  O2  UNL     1      18.027  -1.053  53.461  1.00  0.00    -0.268 OA
HETATM   12  C17 UNL     1      20.651   0.596  51.643  1.00  0.00     0.172 C 
ENDROOT
BRANCH   1  13
HETATM   13  N1  UNL     1      24.870  -0.843  54.550  1.00  0.00    -0.254 NA
HETATM   14  C1  UNL     1      25.178  -0.816  55.809  1.00  0.00     0.151 C 
ENDBRANCH   1  13
BRANCH   1  15
HETATM   15  N2  UNL     1      26.439   0.745  53.705  1.00  0.00    -0.372 N 
HETATM   16  H3  UNL     1      26.690   1.703  54.072  1.00  0.00     0.161 HD
BRANCH  15  17
HETATM   17  C3  UNL     1      27.482  -0.114  53.193  1.00  0.00     0.147 C 
BRANCH  17  18
HETATM   18  C4  UNL     1      28.615  -0.343  54.148  1.00  0.00     0.183 C 
BRANCH  18  19
HETATM   19  O1  UNL     1      28.593   0.718  55.073  1.00  0.00    -0.399 OA
HETATM   20  H8  UNL     1      28.269   0.405  55.954  1.00  0.00     0.209 HD
ENDBRANCH  18  19
ENDBRANCH  17  18
ENDBRANCH  15  17
ENDBRANCH   1  15
BRANCH  10  21
HETATM   21  C12 UNL     1      18.005  -0.327  51.156  1.00  0.00     0.072 C 
HETATM   22  C13 UNL     1      17.064   0.562  50.910  1.00  0.00     0.008 C 
BRANCH  22  23
HETATM   23  C14 UNL     1      16.318   1.576  51.673  1.00  0.00     0.299 C 
BRANCH  23  24
HETATM   24  N4  UNL     1      14.919   1.218  51.816  1.00  0.00     0.083 N 
HETATM   25  C15 UNL     1      14.795   0.340  52.957  1.00  0.00     0.309 C 
HETATM   26  C16 UNL     1      14.393   0.560  50.652  1.00  0.00     0.309 C 
ENDBRANCH  23  24
ENDBRANCH  22  23
ENDBRANCH  10  21
TORSDOF 8
ENDMDL
MODEL 8
REMARK VINA RESULT:      -6.0      2.601      3.628
REMARK  8 active torsions:
REMARK  status: ('A' for Active; 'I' for Inactive)
REMARK    1  A    between atoms: N1_2  and  C2_3 
REMARK    2  A    between atoms: C2_3  and  N2_4 
REMARK    3  A    between atoms: N2_4  and  C3_5 
REMARK    4  A    between atoms: C3_5  and  C4_6 
REMARK    5  A    between atoms: C4_6  and  O1_7 
REMARK       I    between atoms: N3_15  and  C11_16 
REMARK    6  A    between atoms: C11_16  and  C12_18 
REMARK    7  A    between atoms: C13_19  and  C14_20 
REMARK    8  A    between atoms: C14_20  and  N4_21 
ROOT
HETATM    1  C2  UNL     1      26.201   0.369  54.449  1.00  0.00     0.129 C 
HETATM    2  C5  UNL     1      25.692   1.209  53.541  1.00  0.00     0.004 C 
HETATM    3  C6  UNL     1      26.389   2.444  53.086  1.00  0.00     0.122 C 
HETATM    4  S1  UNL     1      25.635   2.566  51.412  1.00  0.00    -0.127 SA
HETATM    5  C7  UNL     1      24.182   1.582  51.797  1.00  0.00     0.003 C 
HETATM    6  C8  UNL     1      24.396   0.950  52.935  1.00  0.00    -0.031 C 
HETATM    7  C9  UNL     1      23.252   0.105  53.348  1.00  0.00     0.060 C 
HETATM    8  C10 UNL     1      21.940   0.545  52.826  1.00  0.00     0.131 C 
HETATM    9  N3  UNL     1      21.894   0.949  51.459  1.00  0.00    -0.344 N 
HETATM   10  C11 UNL     1      20.747   0.738  50.610  1.00  0.00     0.243 C 
HETATM   11  O2  UNL     1      19.775   0.163  51.177  1.00  0.00    -0.268 OA
HETATM   12  C17 UNL     1      23.049   1.611  50.879  1.00  0.00     0.172 C 
ENDROOT
BRANCH   1  13
HETATM   13  N1  UNL     1      25.537  -0.831  54.900  1.00  0.00    -0.254 NA
HETATM   14  C1  UNL     1      25.206  -0.973  56.145  1.00  0.00     0.151 C 
ENDBRANCH   1  13
BRANCH   1  15
HETATM   15  N2  UNL     1      27.447   0.592  55.051  1.00  0.00    -0.372 N 
HETATM   16  H3  UNL     1      27.580   1.391  55.729  1.00  0.00     0.161 HD
BRANCH  15  17
HETATM   17  C3  UNL     1      28.565  -0.269  54.742  1.00  0.00     0.147 C 
BRANCH  17  18
HETATM   18  C4  UNL     1      29.113  -0.094  53.357  1.00  0.00     0.183 C 
BRANCH  18  19
HETATM   19  O1  UNL     1      30.162   0.840  53.445  1.00  0.00    -0.399 OA
HETATM   20  H8  UNL     1      30.681   0.703  54.276  1.00  0.00     0.209 HD
ENDBRANCH  18  19
ENDBRANCH  17  18
ENDBRANCH  15  17
ENDBRANCH   1  15
BRANCH  10  21
HETATM   21  C12 UNL     1      20.775   1.180  49.226  1.00  0.00     0.072 C 
HETATM   22  C13 UNL     1      20.242   2.316  48.827  1.00  0.00     0.008 C 
BRANCH  22  23
HETATM   23  C14 UNL     1      19.522   3.442  49.445  1.00  0.00     0.299 C 
BRANCH  23  24
HETATM   24  N4  UNL     1      19.988   4.720  48.939  1.00  0.00     0.083 N 
HETATM   25  C15 UNL     1      21.353   4.904  49.376  1.00  0.00     0.309 C 
HETATM   26  C16 UNL     1      19.190   5.823  49.397  1.00  0.00     0.309 C 
ENDBRANCH  23  24
ENDBRANCH  22  23
ENDBRANCH  10  21
TORSDOF 8
ENDMDL
MODEL 9
REMARK VINA RESULT:      -6.0      4.235      6.132
REMARK  8 active torsions:
REMARK  status: ('A' for Active; 'I' for Inactive)
REMARK    1  A    between atoms: N1_2  and  C2_3 
REMARK    2  A    between atoms: C2_3  and  N2_4 
REMARK    3  A    between atoms: N2_4  and  C3_5 
REMARK    4  A    between atoms: C3_5  and  C4_6 
REMARK    5  A    between atoms: C4_6  and  O1_7 
REMARK       I    between atoms: N3_15  and  C11_16 
REMARK    6  A    between atoms: C11_16  and  C12_18 
REMARK    7  A    between atoms: C13_19  and  C14_20 
REMARK    8  A    between atoms: C14_20  and  N4_21 
ROOT
HETATM    1  C2  UNL     1      23.845   1.034  52.950  1.00  0.00     0.129 C 
HETATM    2  C5  UNL     1      23.536   1.894  51.973  1.00  0.00     0.004 C 
HETATM    3  C6  UNL     1      22.136   2.208  51.571  1.00  0.00     0.122 C 
HETATM    4  S1  UNL     1      22.430   3.902  50.916  1.00  0.00    -0.127 SA
HETATM    5  C7  UNL     1      24.184   3.675  50.607  1.00  0.00     0.003 C 
HETATM    6  C8  UNL     1      24.580   2.584  51.235  1.00  0.00    -0.031 C 
HETATM    7  C9  UNL     1      26.022   2.302  51.044  1.00  0.00     0.060 C 
HETATM    8  C10 UNL     1      26.599   2.851  49.799  1.00  0.00     0.131 C 
HETATM    9  N3  UNL     1      26.221   4.181  49.446  1.00  0.00    -0.344 N 
HETATM   10  C11 UNL     1      27.103   5.102  48.771  1.00  0.00     0.243 C 
HETATM   11  O2  UNL     1      28.249   4.635  48.513  1.00  0.00    -0.268 OA
HETATM   12  C17 UNL     1      24.883   4.644  49.771  1.00  0.00     0.172 C 
ENDROOT
BRANCH   1  13
HETATM   13  N1  UNL     1      25.196   0.719  53.350  1.00  0.00    -0.254 NA
HETATM   14  C1  UNL     1      25.583  -0.514  53.452  1.00  0.00     0.151 C 
ENDBRANCH   1  13
BRANCH   1  15
HETATM   15  N2  UNL     1      22.860   0.353  53.679  1.00  0.00    -0.372 N 
HETATM   16  H3  UNL     1      22.506   0.743  54.595  1.00  0.00     0.161 HD
BRANCH  15  17
HETATM   17  C3  UNL     1      22.323  -0.893  53.184  1.00  0.00     0.147 C 
BRANCH  17  18
HETATM   18  C4  UNL     1      21.850  -1.828  54.257  1.00  0.00     0.183 C 
BRANCH  18  19
HETATM   19  O1  UNL     1      20.795  -1.183  54.928  1.00  0.00    -0.399 OA
HETATM   20  H8  UNL     1      21.045  -0.254  55.159  1.00  0.00     0.209 HD
ENDBRANCH  18  19
ENDBRANCH  17  18
ENDBRANCH  15  17
ENDBRANCH   1  15
BRANCH  10  21
HETATM   21  C12 UNL     1      26.644   6.441  48.444  1.00  0.00     0.072 C 
HETATM   22  C13 UNL     1      27.459   7.471  48.341  1.00  0.00     0.008 C 
BRANCH  22  23
HETATM   23  C14 UNL     1      28.905   7.715  48.475  1.00  0.00     0.299 C 
BRANCH  23  24
HETATM   24  N4  UNL     1      29.190   9.116  48.727  1.00  0.00     0.083 N 
HETATM   25  C15 UNL     1      30.495   9.204  49.341  1.00  0.00     0.309 C 
HETATM   26  C16 UNL     1      28.219   9.735  49.586  1.00  0.00     0.309 C 
ENDBRANCH  23  24
ENDBRANCH  22  23
ENDBRANCH  10  21
TORSDOF 8
ENDMDL
