MODEL 1
REMARK VINA RESULT:      -9.0      0.000      0.000
REMARK  6 active torsions:
REMARK  status: ('A' for Active; 'I' for Inactive)
REMARK    1  A    between atoms: O1_2  and  C2_3 
REMARK    2  A    between atoms: C6_9  and  C7_10 
REMARK    3  A    between atoms: C15_20  and  O2_21 
REMARK    4  A    between atoms: O2_21  and  C16_22 
REMARK    5  A    between atoms: C16_22  and  C17_23 
REMARK    6  A    between atoms: C17_23  and  C18_24 
ROOT
HETATM    1  C2  UNL     1      23.773   2.890  50.704  1.00  0.00     0.103 A 
HETATM    2  C3  UNL     1      22.948   1.970  51.364  1.00  0.00     0.072 A 
HETATM    3  C4  UNL     1      23.503   1.066  52.249  1.00  0.00     0.073 A 
HETATM    4  N1  UNL     1      22.806   0.141  52.930  1.00  0.00    -0.241 NA
HETATM    5  C5  UNL     1      23.424  -0.723  53.786  1.00  0.00     0.234 A 
HETATM    6  N2  UNL     1      24.758  -0.668  53.971  1.00  0.00    -0.240 NA
HETATM    7  C6  UNL     1      25.520   0.237  53.318  1.00  0.00     0.083 A 
HETATM    8  C13 UNL     1      24.860   1.091  52.461  1.00  0.00     0.025 A 
HETATM    9  C14 UNL     1      25.650   2.004  51.802  1.00  0.00     0.055 A 
HETATM   10  C15 UNL     1      25.158   2.930  50.908  1.00  0.00     0.103 A 
ENDROOT
BRANCH  10  11
HETATM   11  O2  UNL     1      25.721   3.894  50.160  1.00  0.00    -0.348 OA
BRANCH  11  12
HETATM   12  C16 UNL     1      26.829   3.920  49.323  1.00  0.00     0.177 C 
BRANCH  12  13
HETATM   13  C17 UNL     1      27.161   5.235  48.719  1.00  0.00     0.046 C 
BRANCH  13  14
HETATM   14  C18 UNL     1      25.985   6.175  48.536  1.00  0.00     0.119 C 
HETATM   15  N3  UNL     1      26.156   7.498  48.820  1.00  0.00    -0.408 N 
HETATM   16  C19 UNL     1      26.377   7.894  50.129  1.00  0.00     0.143 C 
HETATM   17  C22 UNL     1      26.478   8.428  47.834  1.00  0.00     0.143 C 
HETATM   18  C20 UNL     1      27.048   9.266  50.236  1.00  0.00     0.187 C 
HETATM   19  O3  UNL     1      26.423  10.213  49.484  1.00  0.00    -0.388 OA
HETATM   20  C21 UNL     1      26.102   9.862  48.211  1.00  0.00     0.187 C 
ENDBRANCH  13  14
ENDBRANCH  12  13
ENDBRANCH  11  12
ENDBRANCH  10  11
BRANCH   1  21
HETATM   21  O1  UNL     1      23.088   3.737  49.847  1.00  0.00    -0.353 OA
HETATM   22  C1  UNL     1      22.766   3.344  48.530  1.00  0.00     0.210 C 
ENDBRANCH   1  21
BRANCH   7  23
HETATM   23  C7  UNL     1      26.946   0.193  53.605  1.00  0.00     0.018 A 
HETATM   24  C8  UNL     1      27.763   1.089  54.272  1.00  0.00     0.016 A 
HETATM   25  C9  UNL     1      29.087   0.828  54.429  1.00  0.00     0.004 A 
HETATM   26  C10 UNL     1      29.658  -0.309  53.943  1.00  0.00     0.044 A 
HETATM   27  C11 UNL     1      28.877  -1.220  53.275  1.00  0.00     0.139 A 
HETATM   28  F1  UNL     1      29.488  -2.348  52.803  1.00  0.00    -0.204 F 
HETATM   29  C12 UNL     1      27.535  -0.974  53.107  1.00  0.00     0.085 A 
HETATM   30 CL1  UNL     1      26.656  -2.237  52.229  1.00  0.00    -0.080 Cl
ENDBRANCH   7  23
TORSDOF 6
ENDMDL
MODEL 2
REMARK VINA RESULT:      -8.7      1.553      2.179
REMARK  6 active torsions:
REMARK  status: ('A' for Active; 'I' for Inactive)
REMARK    1  A    between atoms: O1_2  and  C2_3 
REMARK    2  A    between atoms: C6_9  and  C7_10 
REMARK    3  A    between atoms: C15_20  and  O2_21 
REMARK    4  A    between atoms: O2_21  and  C16_22 
REMARK    5  A    between atoms: C16_22  and  C17_23 
REMARK    6  A    between atoms: C17_23  and  C18_24 
ROOT
HETATM    1  C2  UNL     1      22.770   1.321  51.791  1.00  0.00     0.103 A 
HETATM    2  C3  UNL     1      22.345   0.438  52.792  1.00  0.00     0.072 A 
HETATM    3  C4  UNL     1      23.273  -0.124  53.647  1.00  0.00     0.073 A 
HETATM    4  N1  UNL     1      22.975  -0.984  54.635  1.00  0.00    -0.241 NA
HETATM    5  C5  UNL     1      23.947  -1.502  55.439  1.00  0.00     0.234 A 
HETATM    6  N2  UNL     1      25.238  -1.162  55.261  1.00  0.00    -0.240 NA
HETATM    7  C6  UNL     1      25.609  -0.303  54.286  1.00  0.00     0.083 A 
HETATM    8  C13 UNL     1      24.599   0.198  53.493  1.00  0.00     0.025 A 
HETATM    9  C14 UNL     1      24.993   1.068  52.503  1.00  0.00     0.055 A 
HETATM   10  C15 UNL     1      24.118   1.661  51.620  1.00  0.00     0.103 A 
ENDROOT
BRANCH  10  11
HETATM   11  O2  UNL     1      24.265   2.518  50.595  1.00  0.00    -0.348 OA
BRANCH  11  12
HETATM   12  C16 UNL     1      24.897   3.748  50.470  1.00  0.00     0.177 C 
BRANCH  12  13
HETATM   13  C17 UNL     1      26.369   3.712  50.283  1.00  0.00     0.046 C 
BRANCH  13  14
HETATM   14  C18 UNL     1      26.844   3.954  48.864  1.00  0.00     0.119 C 
HETATM   15  N3  UNL     1      27.400   5.162  48.557  1.00  0.00    -0.408 N 
HETATM   16  C19 UNL     1      26.614   6.302  48.578  1.00  0.00     0.143 C 
HETATM   17  C22 UNL     1      28.778   5.365  48.577  1.00  0.00     0.143 C 
HETATM   18  C20 UNL     1      27.428   7.590  48.731  1.00  0.00     0.187 C 
HETATM   19  O3  UNL     1      28.461   7.663  47.847  1.00  0.00    -0.388 OA
HETATM   20  C21 UNL     1      29.226   6.547  47.716  1.00  0.00     0.187 C 
ENDBRANCH  13  14
ENDBRANCH  12  13
ENDBRANCH  11  12
ENDBRANCH  10  11
BRANCH   1  21
HETATM   21  O1  UNL     1      21.738   1.812  51.006  1.00  0.00    -0.353 OA
HETATM   22  C1  UNL     1      20.533   1.094  50.848  1.00  0.00     0.210 C 
ENDBRANCH   1  21
BRANCH   7  23
HETATM   23  C7  UNL     1      27.033  -0.017  54.197  1.00  0.00     0.018 A 
HETATM   24  C8  UNL     1      27.786   1.008  54.741  1.00  0.00     0.016 A 
HETATM   25  C9  UNL     1      29.126   1.067  54.527  1.00  0.00     0.004 A 
HETATM   26  C10 UNL     1      29.776   0.134  53.777  1.00  0.00     0.044 A 
HETATM   27  C11 UNL     1      29.060  -0.898  53.221  1.00  0.00     0.139 A 
HETATM   28  F1  UNL     1      29.749  -1.814  52.478  1.00  0.00    -0.204 F 
HETATM   29  C12 UNL     1      27.702  -0.975  53.428  1.00  0.00     0.085 A 
HETATM   30 CL1  UNL     1      26.914  -2.359  52.653  1.00  0.00    -0.080 Cl
ENDBRANCH   7  23
TORSDOF 6
ENDMDL
MODEL 3
REMARK VINA RESULT:      -8.7      2.006      2.586
REMARK  6 active torsions:
REMARK  status: ('A' for Active; 'I' for Inactive)
REMARK    1  A    between atoms: O1_2  and  C2_3 
REMARK    2  A    between atoms: C6_9  and  C7_10 
REMARK    3  A    between atoms: C15_20  and  O2_21 
REMARK    4  A    between atoms: O2_21  and  C16_22 
REMARK    5  A    between atoms: C16_22  and  C17_23 
REMARK    6  A    between atoms: C17_23  and  C18_24 
ROOT
HETATM    1  C2  UNL     1      23.247   1.833  51.264  1.00  0.00     0.103 A 
HETATM    2  C3  UNL     1      22.609   0.982  52.175  1.00  0.00     0.072 A 
HETATM    3  C4  UNL     1      23.360   0.284  53.100  1.00  0.00     0.073 A 
HETATM    4  N1  UNL     1      22.851  -0.560  54.014  1.00  0.00    -0.241 NA
HETATM    5  C5  UNL     1      23.657  -1.219  54.895  1.00  0.00     0.234 A 
HETATM    6  N2  UNL     1      24.993  -1.037  54.871  1.00  0.00    -0.240 NA
HETATM    7  C6  UNL     1      25.571  -0.204  53.979  1.00  0.00     0.083 A 
HETATM    8  C13 UNL     1      24.725   0.442  53.104  1.00  0.00     0.025 A 
HETATM    9  C14 UNL     1      25.330   1.284  52.199  1.00  0.00     0.055 A 
HETATM   10  C15 UNL     1      24.637   2.006  51.253  1.00  0.00     0.103 A 
ENDROOT
BRANCH  10  11
HETATM   11  O2  UNL     1      25.000   2.867  50.287  1.00  0.00    -0.348 OA
BRANCH  11  12
HETATM   12  C16 UNL     1      26.124   3.661  50.098  1.00  0.00     0.177 C 
BRANCH  12  13
HETATM   13  C17 UNL     1      25.982   4.773  49.124  1.00  0.00     0.046 C 
BRANCH  13  14
HETATM   14  C18 UNL     1      25.336   6.031  49.673  1.00  0.00     0.119 C 
HETATM   15  N3  UNL     1      23.976   6.076  49.775  1.00  0.00    -0.408 N 
HETATM   16  C19 UNL     1      23.204   6.082  48.625  1.00  0.00     0.143 C 
HETATM   17  C22 UNL     1      23.314   5.756  50.958  1.00  0.00     0.143 C 
HETATM   18  C20 UNL     1      21.765   5.619  48.866  1.00  0.00     0.187 C 
HETATM   19  O3  UNL     1      21.178   6.262  49.913  1.00  0.00    -0.388 OA
HETATM   20  C21 UNL     1      21.914   6.366  51.050  1.00  0.00     0.187 C 
ENDBRANCH  13  14
ENDBRANCH  12  13
ENDBRANCH  11  12
ENDBRANCH  10  11
BRANCH   1  21
HETATM   21  O1  UNL     1      22.377   2.470  50.394  1.00  0.00    -0.353 OA
HETATM   22  C1  UNL     1      21.771   1.777  49.324  1.00  0.00     0.210 C 
ENDBRANCH   1  21
BRANCH   7  23
HETATM   23  C7  UNL     1      27.021  -0.096  54.056  1.00  0.00     0.018 A 
HETATM   24  C8  UNL     1      27.826   0.815  54.716  1.00  0.00     0.016 A 
HETATM   25  C9  UNL     1      29.179   0.711  54.651  1.00  0.00     0.004 A 
HETATM   26  C10 UNL     1      29.791  -0.278  53.942  1.00  0.00     0.044 A 
HETATM   27  C11 UNL     1      29.022  -1.200  53.274  1.00  0.00     0.139 A 
HETATM   28  F1  UNL     1      29.674  -2.177  52.576  1.00  0.00    -0.204 F 
HETATM   29  C12 UNL     1      27.651  -1.111  53.329  1.00  0.00     0.085 A 
HETATM   30 CL1  UNL     1      26.792  -2.368  52.422  1.00  0.00    -0.080 Cl
ENDBRANCH   7  23
TORSDOF 6
ENDMDL
MODEL 4
REMARK VINA RESULT:      -8.5      2.127      2.360
REMARK  6 active torsions:
REMARK  status: ('A' for Active; 'I' for Inactive)
REMARK    1  A    between atoms: O1_2  and  C2_3 
REMARK    2  A    between atoms: C6_9  and  C7_10 
REMARK    3  A    between atoms: C15_20  and  O2_21 
REMARK    4  A    between atoms: O2_21  and  C16_22 
REMARK    5  A    between atoms: C16_22  and  C17_23 
REMARK    6  A    between atoms: C17_23  and  C18_24 
ROOT
HETATM    1  C2  UNL     1      24.083   3.307  49.669  1.00  0.00     0.103 A 
HETATM    2  C3  UNL     1      23.191   2.475  50.358  1.00  0.00     0.072 A 
HETATM    3  C4  UNL     1      23.653   1.686  51.393  1.00  0.00     0.073 A 
HETATM    4  N1  UNL     1      22.886   0.852  52.115  1.00  0.00    -0.241 NA
HETATM    5  C5  UNL     1      23.414   0.099  53.122  1.00  0.00     0.234 A 
HETATM    6  N2  UNL     1      24.726   0.175  53.420  1.00  0.00    -0.240 NA
HETATM    7  C6  UNL     1      25.555   0.992  52.735  1.00  0.00     0.083 A 
HETATM    8  C13 UNL     1      24.985   1.736  51.724  1.00  0.00     0.025 A 
HETATM    9  C14 UNL     1      25.843   2.560  51.033  1.00  0.00     0.055 A 
HETATM   10  C15 UNL     1      25.444   3.371  49.992  1.00  0.00     0.103 A 
ENDROOT
BRANCH  10  11
HETATM   11  O2  UNL     1      26.084   4.236  49.187  1.00  0.00    -0.348 OA
BRANCH  11  12
HETATM   12  C16 UNL     1      27.423   4.427  48.873  1.00  0.00     0.177 C 
BRANCH  12  13
HETATM   13  C17 UNL     1      27.820   5.813  48.519  1.00  0.00     0.046 C 
BRANCH  13  14
HETATM   14  C18 UNL     1      29.193   5.948  47.888  1.00  0.00     0.119 C 
HETATM   15  N3  UNL     1      29.946   7.045  48.190  1.00  0.00    -0.408 N 
HETATM   16  C19 UNL     1      29.535   8.296  47.763  1.00  0.00     0.143 C 
HETATM   17  C22 UNL     1      30.905   7.025  49.200  1.00  0.00     0.143 C 
HETATM   18  C20 UNL     1      30.147   9.440  48.577  1.00  0.00     0.187 C 
HETATM   19  O3  UNL     1      31.499   9.328  48.699  1.00  0.00    -0.388 OA
HETATM   20  C21 UNL     1      31.978   8.102  49.036  1.00  0.00     0.187 C 
ENDBRANCH  13  14
ENDBRANCH  12  13
ENDBRANCH  11  12
ENDBRANCH  10  11
BRANCH   1  21
HETATM   21  O1  UNL     1      23.489   4.044  48.657  1.00  0.00    -0.353 OA
HETATM   22  C1  UNL     1      22.610   5.110  48.945  1.00  0.00     0.210 C 
ENDBRANCH   1  21
BRANCH   7  23
HETATM   23  C7  UNL     1      26.949   0.983  53.154  1.00  0.00     0.018 A 
HETATM   24  C8  UNL     1      27.740   1.985  53.686  1.00  0.00     0.016 A 
HETATM   25  C9  UNL     1      29.035   1.737  54.015  1.00  0.00     0.004 A 
HETATM   26  C10 UNL     1      29.600   0.510  53.838  1.00  0.00     0.044 A 
HETATM   27  C11 UNL     1      28.843  -0.508  53.312  1.00  0.00     0.139 A 
HETATM   28  F1  UNL     1      29.447  -1.723  53.151  1.00  0.00    -0.204 F 
HETATM   29  C12 UNL     1      27.530  -0.276  52.973  1.00  0.00     0.085 A 
HETATM   30 CL1  UNL     1      26.680  -1.682  52.309  1.00  0.00    -0.080 Cl
ENDBRANCH   7  23
TORSDOF 6
ENDMDL
MODEL 5
REMARK VINA RESULT:      -8.3      4.416      8.408
REMARK  6 active torsions:
REMARK  status: ('A' for Active; 'I' for Inactive)
REMARK    1  A    between atoms: O1_2  and  C2_3 
REMARK    2  A    between atoms: C6_9  and  C7_10 
REMARK    3  A    between atoms: C15_20  and  O2_21 
REMARK    4  A    between atoms: O2_21  and  C16_22 
REMARK    5  A    between atoms: C16_22  and  C17_23 
REMARK    6  A    between atoms: C17_23  and  C18_24 
ROOT
HETATM    1  C2  UNL     1      25.981   0.018  52.648  1.00  0.00     0.103 A 
HETATM    2  C3  UNL     1      26.784   0.933  51.955  1.00  0.00     0.072 A 
HETATM    3  C4  UNL     1      26.203   2.027  51.344  1.00  0.00     0.073 A 
HETATM    4  N1  UNL     1      26.878   2.960  50.652  1.00  0.00    -0.241 NA
HETATM    5  C5  UNL     1      26.235   4.013  50.071  1.00  0.00     0.234 A 
HETATM    6  N2  UNL     1      24.898   4.144  50.178  1.00  0.00    -0.240 NA
HETATM    7  C6  UNL     1      24.157   3.243  50.859  1.00  0.00     0.083 A 
HETATM    8  C13 UNL     1      24.843   2.192  51.431  1.00  0.00     0.025 A 
HETATM    9  C14 UNL     1      24.073   1.281  52.117  1.00  0.00     0.055 A 
HETATM   10  C15 UNL     1      24.592   0.171  52.747  1.00  0.00     0.103 A 
ENDROOT
BRANCH  10  11
HETATM   11  O2  UNL     1      24.053  -0.835  53.457  1.00  0.00    -0.348 OA
BRANCH  11  12
HETATM   12  C16 UNL     1      23.302  -0.876  54.624  1.00  0.00     0.177 C 
BRANCH  12  13
HETATM   13  C17 UNL     1      21.949  -1.477  54.510  1.00  0.00     0.046 C 
BRANCH  13  14
HETATM   14  C18 UNL     1      20.798  -0.495  54.619  1.00  0.00     0.119 C 
HETATM   15  N3  UNL     1      20.066  -0.219  53.502  1.00  0.00    -0.408 N 
HETATM   16  C19 UNL     1      20.655   0.460  52.448  1.00  0.00     0.143 C 
HETATM   17  C22 UNL     1      18.880  -0.890  53.213  1.00  0.00     0.143 C 
HETATM   18  C20 UNL     1      19.931   0.248  51.116  1.00  0.00     0.187 C 
HETATM   19  O3  UNL     1      18.589   0.461  51.212  1.00  0.00    -0.388 OA
HETATM   20  C21 UNL     1      17.959  -0.111  52.272  1.00  0.00     0.187 C 
ENDBRANCH  13  14
ENDBRANCH  12  13
ENDBRANCH  11  12
ENDBRANCH  10  11
BRANCH   1  21
HETATM   21  O1  UNL     1      26.690  -1.030  53.213  1.00  0.00    -0.353 OA
HETATM   22  C1  UNL     1      28.101  -1.068  53.168  1.00  0.00     0.210 C 
ENDBRANCH   1  21
BRANCH   7  23
HETATM   23  C7  UNL     1      22.725   3.498  50.902  1.00  0.00     0.018 A 
HETATM   24  C8  UNL     1      21.928   4.016  51.907  1.00  0.00     0.016 A 
HETATM   25  C9  UNL     1      20.592   4.174  51.713  1.00  0.00     0.004 A 
HETATM   26  C10 UNL     1      19.991   3.834  50.540  1.00  0.00     0.044 A 
HETATM   27  C11 UNL     1      20.752   3.316  49.520  1.00  0.00     0.139 A 
HETATM   28  F1  UNL     1      20.110   2.987  48.359  1.00  0.00    -0.204 F 
HETATM   29  C12 UNL     1      22.106   3.149  49.698  1.00  0.00     0.085 A 
HETATM   30 CL1  UNL     1      22.956   2.473  48.298  1.00  0.00    -0.080 Cl
ENDBRANCH   7  23
TORSDOF 6
ENDMDL
MODEL 6
REMARK VINA RESULT:      -8.0      4.141      7.360
REMARK  6 active torsions:
REMARK  status: ('A' for Active; 'I' for Inactive)
REMARK    1  A    between atoms: O1_2  and  C2_3 
REMARK    2  A    between atoms: C6_9  and  C7_10 
REMARK    3  A    between atoms: C15_20  and  O2_21 
REMARK    4  A    between atoms: O2_21  and  C16_22 
REMARK    5  A    between atoms: C16_22  and  C17_23 
REMARK    6  A    between atoms: C17_23  and  C18_24 
ROOT
HETATM    1  C2  UNL     1      20.135   0.051  52.831  1.00  0.00     0.103 A 
HETATM    2  C3  UNL     1      19.154   0.478  51.927  1.00  0.00     0.072 A 
HETATM    3  C4  UNL     1      19.363   1.622  51.182  1.00  0.00     0.073 A 
HETATM    4  N1  UNL     1      18.489   2.121  50.292  1.00  0.00    -0.241 NA
HETATM    5  C5  UNL     1      18.762   3.261  49.594  1.00  0.00     0.234 A 
HETATM    6  N2  UNL     1      19.924   3.918  49.782  1.00  0.00    -0.240 NA
HETATM    7  C6  UNL     1      20.848   3.472  50.661  1.00  0.00     0.083 A 
HETATM    8  C13 UNL     1      20.535   2.319  51.348  1.00  0.00     0.025 A 
HETATM    9  C14 UNL     1      21.484   1.880  52.242  1.00  0.00     0.055 A 
HETATM   10  C15 UNL     1      21.336   0.748  53.013  1.00  0.00     0.103 A 
ENDROOT
BRANCH  10  11
HETATM   11  O2  UNL     1      22.104   0.140  53.934  1.00  0.00    -0.348 OA
BRANCH  11  12
HETATM   12  C16 UNL     1      23.295  -0.570  53.856  1.00  0.00     0.177 C 
BRANCH  12  13
HETATM   13  C17 UNL     1      24.352   0.017  52.996  1.00  0.00     0.046 C 
BRANCH  13  14
HETATM   14  C18 UNL     1      24.970   1.299  53.520  1.00  0.00     0.119 C 
HETATM   15  N3  UNL     1      26.296   1.304  53.838  1.00  0.00    -0.408 N 
HETATM   16  C19 UNL     1      26.745   0.551  54.910  1.00  0.00     0.143 C 
HETATM   17  C22 UNL     1      27.269   1.730  52.936  1.00  0.00     0.143 C 
HETATM   18  C20 UNL     1      28.242   0.234  54.837  1.00  0.00     0.187 C 
HETATM   19  O3  UNL     1      28.998   1.342  54.601  1.00  0.00    -0.388 OA
HETATM   20  C21 UNL     1      28.568   2.171  53.613  1.00  0.00     0.187 C 
ENDBRANCH  13  14
ENDBRANCH  12  13
ENDBRANCH  11  12
ENDBRANCH  10  11
BRANCH   1  21
HETATM   21  O1  UNL     1      19.799  -1.109  53.511  1.00  0.00    -0.353 OA
HETATM   22  C1  UNL     1      18.491  -1.637  53.457  1.00  0.00     0.210 C 
ENDBRANCH   1  21
BRANCH   7  23
HETATM   23  C7  UNL     1      22.060   4.270  50.770  1.00  0.00     0.018 A 
HETATM   24  C8  UNL     1      22.369   5.338  51.593  1.00  0.00     0.016 A 
HETATM   25  C9  UNL     1      23.590   5.931  51.522  1.00  0.00     0.004 A 
HETATM   26  C10 UNL     1      24.546   5.505  50.650  1.00  0.00     0.044 A 
HETATM   27  C11 UNL     1      24.273   4.448  49.818  1.00  0.00     0.139 A 
HETATM   28  F1  UNL     1      25.259   4.051  48.959  1.00  0.00    -0.204 F 
HETATM   29  C12 UNL     1      23.043   3.835  49.876  1.00  0.00     0.085 A 
HETATM   30 CL1  UNL     1      22.837   2.485  48.747  1.00  0.00    -0.080 Cl
ENDBRANCH   7  23
TORSDOF 6
ENDMDL
MODEL 7
REMARK VINA RESULT:      -7.9      3.504      5.913
REMARK  6 active torsions:
REMARK  status: ('A' for Active; 'I' for Inactive)
REMARK    1  A    between atoms: O1_2  and  C2_3 
REMARK    2  A    between atoms: C6_9  and  C7_10 
REMARK    3  A    between atoms: C15_20  and  O2_21 
REMARK    4  A    between atoms: O2_21  and  C16_22 
REMARK    5  A    between atoms: C16_22  and  C17_23 
REMARK    6  A    between atoms: C17_23  and  C18_24 
ROOT
HETATM    1  C2  UNL     1      25.283   0.478  53.304  1.00  0.00     0.103 A 
HETATM    2  C3  UNL     1      24.387  -0.457  53.840  1.00  0.00     0.072 A 
HETATM    3  C4  UNL     1      23.032  -0.309  53.620  1.00  0.00     0.073 A 
HETATM    4  N1  UNL     1      22.089  -1.143  54.090  1.00  0.00    -0.241 NA
HETATM    5  C5  UNL     1      20.766  -0.931  53.836  1.00  0.00     0.234 A 
HETATM    6  N2  UNL     1      20.370   0.127  53.102  1.00  0.00    -0.240 NA
HETATM    7  C6  UNL     1      21.264   1.006  52.599  1.00  0.00     0.083 A 
HETATM    8  C13 UNL     1      22.591   0.759  52.878  1.00  0.00     0.025 A 
HETATM    9  C14 UNL     1      23.489   1.665  52.362  1.00  0.00     0.055 A 
HETATM   10  C15 UNL     1      24.851   1.573  52.545  1.00  0.00     0.103 A 
ENDROOT
BRANCH  10  11
HETATM   11  O2  UNL     1      25.897   2.320  52.152  1.00  0.00    -0.348 OA
BRANCH  11  12
HETATM   12  C16 UNL     1      26.591   2.423  50.954  1.00  0.00     0.177 C 
BRANCH  12  13
HETATM   13  C17 UNL     1      26.313   3.632  50.138  1.00  0.00     0.046 C 
BRANCH  13  14
HETATM   14  C18 UNL     1      25.019   3.591  49.348  1.00  0.00     0.119 C 
HETATM   15  N3  UNL     1      24.119   4.603  49.512  1.00  0.00    -0.408 N 
HETATM   16  C19 UNL     1      23.470   4.751  50.727  1.00  0.00     0.143 C 
HETATM   17  C22 UNL     1      24.083   5.704  48.659  1.00  0.00     0.143 C 
HETATM   18  C20 UNL     1      22.920   6.163  50.947  1.00  0.00     0.187 C 
HETATM   19  O3  UNL     1      22.190   6.608  49.887  1.00  0.00    -0.388 OA
HETATM   20  C21 UNL     1      22.732   6.421  48.655  1.00  0.00     0.187 C 
ENDBRANCH  13  14
ENDBRANCH  12  13
ENDBRANCH  11  12
ENDBRANCH  10  11
BRANCH   1  21
HETATM   21  O1  UNL     1      26.610   0.211  53.599  1.00  0.00    -0.353 OA
HETATM   22  C1  UNL     1      27.070   0.164  54.933  1.00  0.00     0.210 C 
ENDBRANCH   1  21
BRANCH   7  23
HETATM   23  C7  UNL     1      20.709   2.106  51.823  1.00  0.00     0.018 A 
HETATM   24  C8  UNL     1      20.209   3.332  52.221  1.00  0.00     0.016 A 
HETATM   25  C9  UNL     1      19.745   4.218  51.300  1.00  0.00     0.004 A 
HETATM   26  C10 UNL     1      19.751   3.939  49.967  1.00  0.00     0.044 A 
HETATM   27  C11 UNL     1      20.240   2.730  49.536  1.00  0.00     0.139 A 
HETATM   28  F1  UNL     1      20.230   2.489  48.191  1.00  0.00    -0.204 F 
HETATM   29  C12 UNL     1      20.715   1.821  50.453  1.00  0.00     0.085 A 
HETATM   30 CL1  UNL     1      21.316   0.309  49.752  1.00  0.00    -0.080 Cl
ENDBRANCH   7  23
TORSDOF 6
ENDMDL
MODEL 8
REMARK VINA RESULT:      -7.9      4.533      8.674
REMARK  6 active torsions:
REMARK  status: ('A' for Active; 'I' for Inactive)
REMARK    1  A    between atoms: O1_2  and  C2_3 
REMARK    2  A    between atoms: C6_9  and  C7_10 
REMARK    3  A    between atoms: C15_20  and  O2_21 
REMARK    4  A    between atoms: O2_21  and  C16_22 
REMARK    5  A    between atoms: C16_22  and  C17_23 
REMARK    6  A    between atoms: C17_23  and  C18_24 
ROOT
HETATM    1  C2  UNL     1      27.208   6.519  48.699  1.00  0.00     0.103 A 
HETATM    2  C3  UNL     1      27.970   7.667  48.442  1.00  0.00     0.072 A 
HETATM    3  C4  UNL     1      29.282   7.537  48.031  1.00  0.00     0.073 A 
HETATM    4  N1  UNL     1      30.101   8.569  47.762  1.00  0.00    -0.241 NA
HETATM    5  C5  UNL     1      31.389   8.364  47.363  1.00  0.00     0.234 A 
HETATM    6  N2  UNL     1      31.875   7.115  47.227  1.00  0.00    -0.240 NA
HETATM    7  C6  UNL     1      31.107   6.032  47.481  1.00  0.00     0.083 A 
HETATM    8  C13 UNL     1      29.812   6.279  47.883  1.00  0.00     0.025 A 
HETATM    9  C14 UNL     1      29.045   5.167  48.141  1.00  0.00     0.055 A 
HETATM   10  C15 UNL     1      27.732   5.229  48.554  1.00  0.00     0.103 A 
ENDROOT
BRANCH  10  11
HETATM   11  O2  UNL     1      26.807   4.303  48.862  1.00  0.00    -0.348 OA
BRANCH  11  12
HETATM   12  C16 UNL     1      26.166   3.960  50.045  1.00  0.00     0.177 C 
BRANCH  12  13
HETATM   13  C17 UNL     1      26.649   2.728  50.718  1.00  0.00     0.046 C 
BRANCH  13  14
HETATM   14  C18 UNL     1      25.712   2.155  51.762  1.00  0.00     0.119 C 
HETATM   15  N3  UNL     1      26.186   1.199  52.613  1.00  0.00    -0.408 N 
HETATM   16  C19 UNL     1      26.530  -0.047  52.117  1.00  0.00     0.143 C 
HETATM   17  C22 UNL     1      26.680   1.516  53.876  1.00  0.00     0.143 C 
HETATM   18  C20 UNL     1      27.498  -0.809  53.028  1.00  0.00     0.187 C 
HETATM   19  O3  UNL     1      27.080  -0.840  54.323  1.00  0.00    -0.388 OA
HETATM   20  C21 UNL     1      26.649   0.337  54.850  1.00  0.00     0.187 C 
ENDBRANCH  13  14
ENDBRANCH  12  13
ENDBRANCH  11  12
ENDBRANCH  10  11
BRANCH   1  21
HETATM   21  O1  UNL     1      25.911   6.792  49.103  1.00  0.00    -0.353 OA
HETATM   22  C1  UNL     1      25.049   7.587  48.316  1.00  0.00     0.210 C 
ENDBRANCH   1  21
BRANCH   7  23
HETATM   23  C7  UNL     1      31.749   4.739  47.295  1.00  0.00     0.018 A 
HETATM   24  C8  UNL     1      31.359   3.632  46.564  1.00  0.00     0.016 A 
HETATM   25  C9  UNL     1      32.138   2.519  46.532  1.00  0.00     0.004 A 
HETATM   26  C10 UNL     1      33.318   2.447  47.209  1.00  0.00     0.044 A 
HETATM   27  C11 UNL     1      33.736   3.528  47.946  1.00  0.00     0.139 A 
HETATM   28  F1  UNL     1      34.925   3.416  48.610  1.00  0.00    -0.204 F 
HETATM   29  C12 UNL     1      32.961   4.664  47.990  1.00  0.00     0.085 A 
HETATM   30 CL1  UNL     1      33.627   5.975  48.978  1.00  0.00    -0.080 Cl
ENDBRANCH   7  23
TORSDOF 6
ENDMDL
MODEL 9
REMARK VINA RESULT:      -7.9      3.615      5.860
REMARK  6 active torsions:
REMARK  status: ('A' for Active; 'I' for Inactive)
REMARK    1  A    between atoms: O1_2  and  C2_3 
REMARK    2  A    between atoms: C6_9  and  C7_10 
REMARK    3  A    between atoms: C15_20  and  O2_21 
REMARK    4  A    between atoms: O2_21  and  C16_22 
REMARK    5  A    between atoms: C16_22  and  C17_23 
REMARK    6  A    between atoms: C17_23  and  C18_24 
ROOT
HETATM    1  C2  UNL     1      26.782   2.246  51.963  1.00  0.00     0.103 A 
HETATM    2  C3  UNL     1      26.201   1.323  52.842  1.00  0.00     0.072 A 
HETATM    3  C4  UNL     1      24.879   0.958  52.674  1.00  0.00     0.073 A 
HETATM    4  N1  UNL     1      24.224   0.087  53.460  1.00  0.00    -0.241 NA
HETATM    5  C5  UNL     1      22.915  -0.223  53.236  1.00  0.00     0.234 A 
HETATM    6  N2  UNL     1      22.242   0.340  52.212  1.00  0.00    -0.240 NA
HETATM    7  C6  UNL     1      22.839   1.224  51.383  1.00  0.00     0.083 A 
HETATM    8  C13 UNL     1      24.161   1.513  51.643  1.00  0.00     0.025 A 
HETATM    9  C14 UNL     1      24.753   2.418  50.792  1.00  0.00     0.055 A 
HETATM   10  C15 UNL     1      26.066   2.822  50.906  1.00  0.00     0.103 A 
ENDROOT
BRANCH  10  11
HETATM   11  O2  UNL     1      26.842   3.673  50.214  1.00  0.00    -0.348 OA
BRANCH  11  12
HETATM   12  C16 UNL     1      26.635   4.429  49.068  1.00  0.00     0.177 C 
BRANCH  12  13
HETATM   13  C17 UNL     1      27.567   5.565  48.855  1.00  0.00     0.046 C 
BRANCH  13  14
HETATM   14  C18 UNL     1      28.887   5.200  48.204  1.00  0.00     0.119 C 
HETATM   15  N3  UNL     1      29.798   6.190  47.975  1.00  0.00    -0.408 N 
HETATM   16  C19 UNL     1      29.516   7.177  47.045  1.00  0.00     0.143 C 
HETATM   17  C22 UNL     1      30.828   6.466  48.871  1.00  0.00     0.143 C 
HETATM   18  C20 UNL     1      30.337   8.453  47.256  1.00  0.00     0.187 C 
HETATM   19  O3  UNL     1      31.668   8.201  47.389  1.00  0.00    -0.388 OA
HETATM   20  C21 UNL     1      32.013   7.187  48.226  1.00  0.00     0.187 C 
ENDBRANCH  13  14
ENDBRANCH  12  13
ENDBRANCH  11  12
ENDBRANCH  10  11
BRANCH   1  21
HETATM   21  O1  UNL     1      28.110   2.522  52.244  1.00  0.00    -0.353 OA
HETATM   22  C1  UNL     1      28.624   2.396  53.553  1.00  0.00     0.210 C 
ENDBRANCH   1  21
BRANCH   7  23
HETATM   23  C7  UNL     1      22.005   1.760  50.317  1.00  0.00     0.018 A 
HETATM   24  C8  UNL     1      21.815   1.332  49.015  1.00  0.00     0.016 A 
HETATM   25  C9  UNL     1      20.966   1.998  48.190  1.00  0.00     0.004 A 
HETATM   26  C10 UNL     1      20.277   3.098  48.602  1.00  0.00     0.044 A 
HETATM   27  C11 UNL     1      20.442   3.551  49.888  1.00  0.00     0.139 A 
HETATM   28  F1  UNL     1      19.732   4.657  50.262  1.00  0.00    -0.204 F 
HETATM   29  C12 UNL     1      21.297   2.890  50.739  1.00  0.00     0.085 A 
HETATM   30 CL1  UNL     1      21.407   3.587  52.364  1.00  0.00    -0.080 Cl
ENDBRANCH   7  23
TORSDOF 6
ENDMDL
