MODEL 1
REMARK VINA RESULT:      -8.4      0.000      0.000
REMARK  8 active torsions:
REMARK  status: ('A' for Active; 'I' for Inactive)
REMARK    1  A    between atoms: C2_2  and  C3_3 
REMARK    2  A    between atoms: C7_9  and  N3_10 
REMARK    3  A    between atoms: C12_17  and  O1_18 
REMARK    4  A    between atoms: C15_21  and  O2_22 
REMARK    5  A    between atoms: O2_22  and  C16_23 
REMARK    6  A    between atoms: C16_23  and  O3_24 
REMARK    7  A    between atoms: C16_23  and  C17_25 
REMARK    8  A    between atoms: C17_25  and  N4_26 
ROOT
HETATM    1  C3  UNL     1      22.083   0.908  52.841  1.00  0.00    -0.024 C 
HETATM    2  C4  UNL     1      21.484   2.106  52.539  1.00  0.00     0.029 C 
HETATM    3  C5  UNL     1      21.133   2.915  51.450  1.00  0.00     0.118 C 
HETATM    4  N1  UNL     1      21.185   1.998  50.492  1.00  0.00    -0.254 NA
HETATM    5  C6  UNL     1      22.262   1.735  49.745  1.00  0.00     0.234 C 
HETATM    6  N2  UNL     1      23.416   1.816  50.406  1.00  0.00    -0.225 NA
HETATM    7  C7  UNL     1      23.881   2.962  50.949  1.00  0.00     0.129 C 
HETATM    8  C13 UNL     1      23.872   2.993  52.322  1.00  0.00     0.053 C 
HETATM    9  C14 UNL     1      24.153   1.912  53.156  1.00  0.00     0.041 C 
HETATM   10  C15 UNL     1      23.412   0.719  53.113  1.00  0.00     0.078 C 
ENDROOT
BRANCH   7  11
HETATM   11  N3  UNL     1      24.343   4.053  50.160  1.00  0.00    -0.334 N 
HETATM   12  C8  UNL     1      23.427   5.003  49.577  1.00  0.00     0.154 C 
HETATM   13  C9  UNL     1      24.041   6.388  49.479  1.00  0.00     0.162 C 
HETATM   14 CL1  UNL     1      24.297   7.101  51.098  1.00  0.00    -0.116 Cl
HETATM   15  C10 UNL     1      25.329   6.364  48.749  1.00  0.00     0.114 C 
HETATM   16  F1  UNL     1      25.711   7.337  47.877  1.00  0.00    -0.209 F 
HETATM   17  C11 UNL     1      26.098   5.292  49.020  1.00  0.00     0.065 C 
HETATM   18  C12 UNL     1      25.757   4.202  49.946  1.00  0.00     0.248 C 
BRANCH  18  19
HETATM   19  O1  UNL     1      26.330   3.026  49.435  1.00  0.00    -0.373 OA
HETATM   20  H14 UNL     1      27.108   3.219  48.866  1.00  0.00     0.212 HD
ENDBRANCH  18  19
ENDBRANCH   7  11
BRANCH  10  21
HETATM   21  O2  UNL     1      24.447  -0.065  53.377  1.00  0.00    -0.318 OA
BRANCH  21  22
HETATM   22  C16 UNL     1      25.415  -0.245  54.306  1.00  0.00     0.281 C 
BRANCH  22  23
HETATM   23  O3  UNL     1      25.226  -1.338  55.158  1.00  0.00    -0.369 OA
HETATM   24  H18 UNL     1      24.341  -1.691  54.987  1.00  0.00     0.212 HD
ENDBRANCH  22  23
BRANCH  22  25
HETATM   25  C17 UNL     1      26.780  -0.513  53.641  1.00  0.00     0.190 C 
BRANCH  25  26
HETATM   26  N4  UNL     1      27.716   0.556  53.874  1.00  0.00    -0.345 N 
HETATM   27  C18 UNL     1      27.786   1.673  53.130  1.00  0.00     0.111 A 
HETATM   28  C19 UNL     1      28.796   2.482  53.640  1.00  0.00     0.135 A 
HETATM   29  N5  UNL     1      29.335   1.831  54.709  1.00  0.00    -0.255 NA
HETATM   30  C20 UNL     1      28.660   0.658  54.830  1.00  0.00     0.209 A 
ENDBRANCH  25  26
ENDBRANCH  22  25
ENDBRANCH  21  22
ENDBRANCH  10  21
BRANCH   1  31
HETATM   31  C2  UNL     1      21.541  -0.439  52.960  1.00  0.00     0.037 C 
HETATM   32  C1  UNL     1      21.260  -0.869  54.374  1.00  0.00     0.010 C 
ENDBRANCH   1  31
TORSDOF 8
ENDMDL
MODEL 2
REMARK VINA RESULT:      -7.9      1.808      1.916
REMARK  8 active torsions:
REMARK  status: ('A' for Active; 'I' for Inactive)
REMARK    1  A    between atoms: C2_2  and  C3_3 
REMARK    2  A    between atoms: C7_9  and  N3_10 
REMARK    3  A    between atoms: C12_17  and  O1_18 
REMARK    4  A    between atoms: C15_21  and  O2_22 
REMARK    5  A    between atoms: O2_22  and  C16_23 
REMARK    6  A    between atoms: C16_23  and  O3_24 
REMARK    7  A    between atoms: C16_23  and  C17_25 
REMARK    8  A    between atoms: C17_25  and  N4_26 
ROOT
HETATM    1  C3  UNL     1      21.977   0.214  53.264  1.00  0.00    -0.024 C 
HETATM    2  C4  UNL     1      21.024   1.198  53.203  1.00  0.00     0.029 C 
HETATM    3  C5  UNL     1      20.160   1.838  52.302  1.00  0.00     0.118 C 
HETATM    4  N1  UNL     1      20.157   0.922  51.341  1.00  0.00    -0.254 NA
HETATM    5  C6  UNL     1      20.987   0.913  50.292  1.00  0.00     0.234 C 
HETATM    6  N2  UNL     1      22.223   1.323  50.574  1.00  0.00    -0.225 NA
HETATM    7  C7  UNL     1      22.514   2.574  50.990  1.00  0.00     0.129 C 
HETATM    8  C13 UNL     1      22.914   2.665  52.301  1.00  0.00     0.053 C 
HETATM    9  C14 UNL     1      23.707   1.734  52.970  1.00  0.00     0.041 C 
HETATM   10  C15 UNL     1      23.326   0.388  53.111  1.00  0.00     0.078 C 
ENDROOT
BRANCH   7  11
HETATM   11  N3  UNL     1      22.413   3.710  50.138  1.00  0.00    -0.334 N 
HETATM   12  C8  UNL     1      21.520   4.802  50.440  1.00  0.00     0.154 C 
HETATM   13  C9  UNL     1      22.069   6.129  49.948  1.00  0.00     0.162 C 
HETATM   14 CL1  UNL     1      23.527   6.609  50.861  1.00  0.00    -0.116 Cl
HETATM   15  C10 UNL     1      22.394   6.082  48.503  1.00  0.00     0.114 C 
HETATM   16  F1  UNL     1      22.161   7.120  47.652  1.00  0.00    -0.209 F 
HETATM   17  C11 UNL     1      22.943   4.921  48.097  1.00  0.00     0.065 C 
HETATM   18  C12 UNL     1      23.224   3.759  48.952  1.00  0.00     0.248 C 
BRANCH  18  19
HETATM   19  O1  UNL     1      23.057   2.610  48.162  1.00  0.00    -0.373 OA
HETATM   20  H14 UNL     1      22.451   2.775  47.406  1.00  0.00     0.212 HD
ENDBRANCH  18  19
ENDBRANCH   7  11
BRANCH  10  21
HETATM   21  O2  UNL     1      24.561  -0.086  53.019  1.00  0.00    -0.318 OA
BRANCH  21  22
HETATM   22  C16 UNL     1      25.629  -0.385  53.795  1.00  0.00     0.281 C 
BRANCH  22  23
HETATM   23  O3  UNL     1      25.343  -1.145  54.934  1.00  0.00    -0.369 OA
HETATM   24  H18 UNL     1      26.138  -1.652  55.153  1.00  0.00     0.212 HD
ENDBRANCH  22  23
BRANCH  22  25
HETATM   25  C17 UNL     1      26.657  -1.233  53.020  1.00  0.00     0.190 C 
BRANCH  25  26
HETATM   26  N4  UNL     1      28.010  -0.808  53.272  1.00  0.00    -0.345 N 
HETATM   27  C18 UNL     1      28.377   0.472  53.453  1.00  0.00     0.111 A 
HETATM   28  C19 UNL     1      29.749   0.513  53.674  1.00  0.00     0.135 A 
HETATM   29  N5  UNL     1      30.205  -0.770  53.622  1.00  0.00    -0.255 NA
HETATM   30  C20 UNL     1      29.125  -1.557  53.375  1.00  0.00     0.209 A 
ENDBRANCH  25  26
ENDBRANCH  22  25
ENDBRANCH  21  22
ENDBRANCH  10  21
BRANCH   1  31
HETATM   31  C2  UNL     1      21.869  -1.222  53.493  1.00  0.00     0.037 C 
HETATM   32  C1  UNL     1      21.849  -1.615  54.945  1.00  0.00     0.010 C 
ENDBRANCH   1  31
TORSDOF 8
ENDMDL
MODEL 3
REMARK VINA RESULT:      -7.9      1.317      1.814
REMARK  8 active torsions:
REMARK  status: ('A' for Active; 'I' for Inactive)
REMARK    1  A    between atoms: C2_2  and  C3_3 
REMARK    2  A    between atoms: C7_9  and  N3_10 
REMARK    3  A    between atoms: C12_17  and  O1_18 
REMARK    4  A    between atoms: C15_21  and  O2_22 
REMARK    5  A    between atoms: O2_22  and  C16_23 
REMARK    6  A    between atoms: C16_23  and  O3_24 
REMARK    7  A    between atoms: C16_23  and  C17_25 
REMARK    8  A    between atoms: C17_25  and  N4_26 
ROOT
HETATM    1  C3  UNL     1      22.569   1.491  52.768  1.00  0.00    -0.024 C 
HETATM    2  C4  UNL     1      21.758   2.504  52.321  1.00  0.00     0.029 C 
HETATM    3  C5  UNL     1      21.342   3.141  51.144  1.00  0.00     0.118 C 
HETATM    4  N1  UNL     1      21.674   2.195  50.274  1.00  0.00    -0.254 NA
HETATM    5  C6  UNL     1      22.846   2.124  49.633  1.00  0.00     0.234 C 
HETATM    6  N2  UNL     1      23.891   2.502  50.368  1.00  0.00    -0.225 NA
HETATM    7  C7  UNL     1      24.051   3.756  50.843  1.00  0.00     0.129 C 
HETATM    8  C13 UNL     1      23.912   3.877  52.204  1.00  0.00     0.053 C 
HETATM    9  C14 UNL     1      24.341   2.942  53.146  1.00  0.00     0.041 C 
HETATM   10  C15 UNL     1      23.877   1.616  53.151  1.00  0.00     0.078 C 
ENDROOT
BRANCH   7  11
HETATM   11  N3  UNL     1      24.339   4.865  49.999  1.00  0.00    -0.334 N 
HETATM   12  C8  UNL     1      23.288   5.684  49.444  1.00  0.00     0.154 C 
HETATM   13  C9  UNL     1      23.730   7.126  49.274  1.00  0.00     0.162 C 
HETATM   14 CL1  UNL     1      23.989   7.917  50.854  1.00  0.00    -0.116 Cl
HETATM   15  C10 UNL     1      24.971   7.225  48.471  1.00  0.00     0.114 C 
HETATM   16  F1  UNL     1      25.189   8.206  47.553  1.00  0.00    -0.209 F 
HETATM   17  C11 UNL     1      25.874   6.258  48.727  1.00  0.00     0.065 C 
HETATM   18  C12 UNL     1      25.713   5.168  49.700  1.00  0.00     0.248 C 
BRANCH  18  19
HETATM   19  O1  UNL     1      26.390   4.049  49.189  1.00  0.00    -0.373 OA
HETATM   20  H14 UNL     1      26.675   3.439  49.905  1.00  0.00     0.212 HD
ENDBRANCH  18  19
ENDBRANCH   7  11
BRANCH  10  21
HETATM   21  O2  UNL     1      25.028   1.098  53.557  1.00  0.00    -0.318 OA
BRANCH  21  22
HETATM   22  C16 UNL     1      26.294   1.468  53.861  1.00  0.00     0.281 C 
BRANCH  22  23
HETATM   23  O3  UNL     1      26.815   0.899  55.028  1.00  0.00    -0.369 OA
HETATM   24  H18 UNL     1      27.524   0.294  54.766  1.00  0.00     0.212 HD
ENDBRANCH  22  23
BRANCH  22  25
HETATM   25  C17 UNL     1      27.278   1.035  52.755  1.00  0.00     0.190 C 
BRANCH  25  26
HETATM   26  N4  UNL     1      27.693  -0.335  52.906  1.00  0.00    -0.345 N 
HETATM   27  C18 UNL     1      28.926  -0.713  53.286  1.00  0.00     0.111 A 
HETATM   28  C19 UNL     1      28.971  -2.102  53.328  1.00  0.00     0.135 A 
HETATM   29  N5  UNL     1      27.738  -2.557  52.965  1.00  0.00    -0.255 NA
HETATM   30  C20 UNL     1      26.978  -1.461  52.712  1.00  0.00     0.209 A 
ENDBRANCH  25  26
ENDBRANCH  22  25
ENDBRANCH  21  22
ENDBRANCH  10  21
BRANCH   1  31
HETATM   31  C2  UNL     1      22.318   0.068  52.962  1.00  0.00     0.037 C 
HETATM   32  C1  UNL     1      21.788  -0.284  54.325  1.00  0.00     0.010 C 
ENDBRANCH   1  31
TORSDOF 8
ENDMDL
MODEL 4
REMARK VINA RESULT:      -7.6      2.098      2.624
REMARK  8 active torsions:
REMARK  status: ('A' for Active; 'I' for Inactive)
REMARK    1  A    between atoms: C2_2  and  C3_3 
REMARK    2  A    between atoms: C7_9  and  N3_10 
REMARK    3  A    between atoms: C12_17  and  O1_18 
REMARK    4  A    between atoms: C15_21  and  O2_22 
REMARK    5  A    between atoms: O2_22  and  C16_23 
REMARK    6  A    between atoms: C16_23  and  O3_24 
REMARK    7  A    between atoms: C16_23  and  C17_25 
REMARK    8  A    between atoms: C17_25  and  N4_26 
ROOT
HETATM    1  C3  UNL     1      22.875   2.242  52.150  1.00  0.00    -0.024 C 
HETATM    2  C4  UNL     1      21.889   2.952  51.513  1.00  0.00     0.029 C 
HETATM    3  C5  UNL     1      21.578   3.537  50.278  1.00  0.00     0.118 C 
HETATM    4  N1  UNL     1      22.443   2.876  49.518  1.00  0.00    -0.254 NA
HETATM    5  C6  UNL     1      23.679   3.295  49.226  1.00  0.00     0.234 C 
HETATM    6  N2  UNL     1      24.290   3.926  50.228  1.00  0.00    -0.225 NA
HETATM    7  C7  UNL     1      23.851   5.091  50.750  1.00  0.00     0.129 C 
HETATM    8  C13 UNL     1      23.339   4.996  52.021  1.00  0.00     0.053 C 
HETATM    9  C14 UNL     1      23.830   4.167  53.029  1.00  0.00     0.041 C 
HETATM   10  C15 UNL     1      23.903   2.771  52.883  1.00  0.00     0.078 C 
ENDROOT
BRANCH   7  11
HETATM   11  N3  UNL     1      23.912   6.323  50.038  1.00  0.00    -0.334 N 
HETATM   12  C8  UNL     1      23.234   6.498  48.776  1.00  0.00     0.154 C 
HETATM   13  C9  UNL     1      22.768   7.930  48.583  1.00  0.00     0.162 C 
HETATM   14 CL1  UNL     1      21.471   8.353  49.737  1.00  0.00    -0.116 Cl
HETATM   15  C10 UNL     1      23.885   8.892  48.734  1.00  0.00     0.114 C 
HETATM   16  F1  UNL     1      24.027   9.998  47.953  1.00  0.00    -0.209 F 
HETATM   17  C11 UNL     1      24.754   8.581  49.715  1.00  0.00     0.065 C 
HETATM   18  C12 UNL     1      24.669   7.409  50.598  1.00  0.00     0.248 C 
BRANCH  18  19
HETATM   19  O1  UNL     1      25.984   7.020  50.903  1.00  0.00    -0.373 OA
HETATM   20  H14 UNL     1      26.014   6.121  51.298  1.00  0.00     0.212 HD
ENDBRANCH  18  19
ENDBRANCH   7  11
BRANCH  10  21
HETATM   21  O2  UNL     1      25.022   2.646  53.584  1.00  0.00    -0.318 OA
BRANCH  21  22
HETATM   22  C16 UNL     1      26.242   2.064  53.515  1.00  0.00     0.281 C 
BRANCH  22  23
HETATM   23  O3  UNL     1      27.309   2.874  53.917  1.00  0.00    -0.369 OA
HETATM   24  H18 UNL     1      27.229   3.717  53.448  1.00  0.00     0.212 HD
ENDBRANCH  22  23
BRANCH  22  25
HETATM   25  C17 UNL     1      26.324   0.837  54.444  1.00  0.00     0.190 C 
BRANCH  25  26
HETATM   26  N4  UNL     1      27.480   0.024  54.166  1.00  0.00    -0.345 N 
HETATM   27  C18 UNL     1      27.574  -0.825  53.128  1.00  0.00     0.111 A 
HETATM   28  C19 UNL     1      28.821  -1.437  53.167  1.00  0.00     0.135 A 
HETATM   29  N5  UNL     1      29.482  -0.939  54.251  1.00  0.00    -0.255 NA
HETATM   30  C20 UNL     1      28.642  -0.051  54.844  1.00  0.00     0.209 A 
ENDBRANCH  25  26
ENDBRANCH  22  25
ENDBRANCH  21  22
ENDBRANCH  10  21
BRANCH   1  31
HETATM   31  C2  UNL     1      23.127   0.809  52.243  1.00  0.00     0.037 C 
HETATM   32  C1  UNL     1      21.885  -0.038  52.205  1.00  0.00     0.010 C 
ENDBRANCH   1  31
TORSDOF 8
ENDMDL
MODEL 5
REMARK VINA RESULT:      -7.5      1.833      2.294
REMARK  8 active torsions:
REMARK  status: ('A' for Active; 'I' for Inactive)
REMARK    1  A    between atoms: C2_2  and  C3_3 
REMARK    2  A    between atoms: C7_9  and  N3_10 
REMARK    3  A    between atoms: C12_17  and  O1_18 
REMARK    4  A    between atoms: C15_21  and  O2_22 
REMARK    5  A    between atoms: O2_22  and  C16_23 
REMARK    6  A    between atoms: C16_23  and  O3_24 
REMARK    7  A    between atoms: C16_23  and  C17_25 
REMARK    8  A    between atoms: C17_25  and  N4_26 
ROOT
HETATM    1  C3  UNL     1      21.665   2.854  51.610  1.00  0.00    -0.024 C 
HETATM    2  C4  UNL     1      21.488   3.973  50.836  1.00  0.00     0.029 C 
HETATM    3  C5  UNL     1      21.742   4.472  49.551  1.00  0.00     0.118 C 
HETATM    4  N1  UNL     1      21.947   3.320  48.924  1.00  0.00    -0.254 NA
HETATM    5  C6  UNL     1      23.141   2.740  48.762  1.00  0.00     0.234 C 
HETATM    6  N2  UNL     1      23.960   2.882  49.804  1.00  0.00    -0.225 NA
HETATM    7  C7  UNL     1      24.424   4.077  50.225  1.00  0.00     0.129 C 
HETATM    8  C13 UNL     1      23.918   4.499  51.431  1.00  0.00     0.053 C 
HETATM    9  C14 UNL     1      23.636   3.675  52.520  1.00  0.00     0.041 C 
HETATM   10  C15 UNL     1      22.728   2.607  52.437  1.00  0.00     0.078 C 
ENDROOT
BRANCH   7  11
HETATM   11  N3  UNL     1      25.365   4.842  49.479  1.00  0.00    -0.334 N 
HETATM   12  C8  UNL     1      24.953   5.969  48.677  1.00  0.00     0.154 C 
HETATM   13  C9  UNL     1      26.027   7.040  48.620  1.00  0.00     0.162 C 
HETATM   14 CL1  UNL     1      26.258   7.814  50.214  1.00  0.00    -0.116 Cl
HETATM   15  C10 UNL     1      27.321   6.491  48.154  1.00  0.00     0.114 C 
HETATM   16  F1  UNL     1      28.159   7.164  47.317  1.00  0.00    -0.209 F 
HETATM   17  C11 UNL     1      27.604   5.262  48.629  1.00  0.00     0.065 C 
HETATM   18  C12 UNL     1      26.754   4.474  49.533  1.00  0.00     0.248 C 
BRANCH  18  19
HETATM   19  O1  UNL     1      26.944   3.121  49.210  1.00  0.00    -0.373 OA
HETATM   20  H14 UNL     1      27.775   2.768  49.599  1.00  0.00     0.212 HD
ENDBRANCH  18  19
ENDBRANCH   7  11
BRANCH  10  21
HETATM   21  O2  UNL     1      23.402   1.824  53.268  1.00  0.00    -0.318 OA
BRANCH  21  22
HETATM   22  C16 UNL     1      24.034   0.628  53.301  1.00  0.00     0.281 C 
BRANCH  22  23
HETATM   23  O3  UNL     1      23.228  -0.478  53.010  1.00  0.00    -0.369 OA
HETATM   24  H18 UNL     1      22.372  -0.143  52.706  1.00  0.00     0.212 HD
ENDBRANCH  22  23
BRANCH  22  25
HETATM   25  C17 UNL     1      25.158   0.566  52.247  1.00  0.00     0.190 C 
BRANCH  25  26
HETATM   26  N4  UNL     1      26.354  -0.045  52.767  1.00  0.00    -0.345 N 
HETATM   27  C18 UNL     1      27.239   0.585  53.560  1.00  0.00     0.111 A 
HETATM   28  C19 UNL     1      28.263  -0.302  53.871  1.00  0.00     0.135 A 
HETATM   29  N5  UNL     1      27.980  -1.482  53.251  1.00  0.00    -0.255 NA
HETATM   30  C20 UNL     1      26.811  -1.299  52.583  1.00  0.00     0.209 A 
ENDBRANCH  25  26
ENDBRANCH  22  25
ENDBRANCH  21  22
ENDBRANCH  10  21
BRANCH   1  31
HETATM   31  C2  UNL     1      20.844   1.662  51.787  1.00  0.00     0.037 C 
HETATM   32  C1  UNL     1      21.040   0.615  50.725  1.00  0.00     0.010 C 
ENDBRANCH   1  31
TORSDOF 8
ENDMDL
MODEL 6
REMARK VINA RESULT:      -7.4      6.854     10.891
REMARK  8 active torsions:
REMARK  status: ('A' for Active; 'I' for Inactive)
REMARK    1  A    between atoms: C2_2  and  C3_3 
REMARK    2  A    between atoms: C7_9  and  N3_10 
REMARK    3  A    between atoms: C12_17  and  O1_18 
REMARK    4  A    between atoms: C15_21  and  O2_22 
REMARK    5  A    between atoms: O2_22  and  C16_23 
REMARK    6  A    between atoms: C16_23  and  O3_24 
REMARK    7  A    between atoms: C16_23  and  C17_25 
REMARK    8  A    between atoms: C17_25  and  N4_26 
ROOT
HETATM    1  C3  UNL     1      30.412  10.819  47.210  1.00  0.00    -0.024 C 
HETATM    2  C4  UNL     1      31.640  10.561  46.655  1.00  0.00     0.029 C 
HETATM    3  C5  UNL     1      32.283   9.692  45.763  1.00  0.00     0.118 C 
HETATM    4  N1  UNL     1      31.214   9.234  45.122  1.00  0.00    -0.254 NA
HETATM    5  C6  UNL     1      30.536   8.132  45.459  1.00  0.00     0.234 C 
HETATM    6  N2  UNL     1      30.441   7.931  46.773  1.00  0.00    -0.225 NA
HETATM    7  C7  UNL     1      31.509   7.705  47.568  1.00  0.00     0.129 C 
HETATM    8  C13 UNL     1      31.811   8.730  48.431  1.00  0.00     0.053 C 
HETATM    9  C14 UNL     1      30.880   9.534  49.086  1.00  0.00     0.041 C 
HETATM   10  C15 UNL     1      29.938  10.311  48.390  1.00  0.00     0.078 C 
ENDROOT
BRANCH   7  11
HETATM   11  N3  UNL     1      32.264   6.499  47.515  1.00  0.00    -0.334 N 
HETATM   12  C8  UNL     1      33.470   6.398  46.729  1.00  0.00     0.154 C 
HETATM   13  C9  UNL     1      34.471   5.445  47.357  1.00  0.00     0.162 C 
HETATM   14 CL1  UNL     1      35.110   6.092  48.894  1.00  0.00    -0.116 Cl
HETATM   15  C10 UNL     1      33.874   4.111  47.602  1.00  0.00     0.114 C 
HETATM   16  F1  UNL     1      34.550   2.945  47.409  1.00  0.00    -0.209 F 
HETATM   17  C11 UNL     1      32.598   4.147  48.034  1.00  0.00     0.065 C 
HETATM   18  C12 UNL     1      31.803   5.362  48.265  1.00  0.00     0.248 C 
BRANCH  18  19
HETATM   19  O1  UNL     1      30.468   5.049  47.965  1.00  0.00    -0.373 OA
HETATM   20  H14 UNL     1      30.343   4.084  47.828  1.00  0.00     0.212 HD
ENDBRANCH  18  19
ENDBRANCH   7  11
BRANCH  10  21
HETATM   21  O2  UNL     1      28.979  10.156  49.291  1.00  0.00    -0.318 OA
BRANCH  21  22
HETATM   22  C16 UNL     1      28.245   9.186  49.885  1.00  0.00     0.281 C 
BRANCH  22  23
HETATM   23  O3  UNL     1      27.681   9.537  51.116  1.00  0.00    -0.369 OA
HETATM   24  H18 UNL     1      26.742   9.304  51.084  1.00  0.00     0.212 HD
ENDBRANCH  22  23
BRANCH  22  25
HETATM   25  C17 UNL     1      27.036   8.793  49.012  1.00  0.00     0.190 C 
BRANCH  25  26
HETATM   26  N4  UNL     1      26.698   7.400  49.153  1.00  0.00    -0.345 N 
HETATM   27  C18 UNL     1      27.328   6.401  48.511  1.00  0.00     0.111 A 
HETATM   28  C19 UNL     1      26.745   5.197  48.884  1.00  0.00     0.135 A 
HETATM   29  N5  UNL     1      25.746   5.487  49.766  1.00  0.00    -0.255 NA
HETATM   30  C20 UNL     1      25.738   6.837  49.913  1.00  0.00     0.209 A 
ENDBRANCH  25  26
ENDBRANCH  22  25
ENDBRANCH  21  22
ENDBRANCH  10  21
BRANCH   1  31
HETATM   31  C2  UNL     1      29.303  11.650  46.757  1.00  0.00     0.037 C 
HETATM   32  C1  UNL     1      29.630  12.526  45.579  1.00  0.00     0.010 C 
ENDBRANCH   1  31
TORSDOF 8
ENDMDL
MODEL 7
REMARK VINA RESULT:      -7.4      3.508      5.838
REMARK  8 active torsions:
REMARK  status: ('A' for Active; 'I' for Inactive)
REMARK    1  A    between atoms: C2_2  and  C3_3 
REMARK    2  A    between atoms: C7_9  and  N3_10 
REMARK    3  A    between atoms: C12_17  and  O1_18 
REMARK    4  A    between atoms: C15_21  and  O2_22 
REMARK    5  A    between atoms: O2_22  and  C16_23 
REMARK    6  A    between atoms: C16_23  and  O3_24 
REMARK    7  A    between atoms: C16_23  and  C17_25 
REMARK    8  A    between atoms: C17_25  and  N4_26 
ROOT
HETATM    1  C3  UNL     1      23.907   3.740  50.169  1.00  0.00    -0.024 C 
HETATM    2  C4  UNL     1      22.771   3.504  49.435  1.00  0.00     0.029 C 
HETATM    3  C5  UNL     1      21.380   3.665  49.480  1.00  0.00     0.118 C 
HETATM    4  N1  UNL     1      21.315   4.595  50.425  1.00  0.00    -0.254 NA
HETATM    5  C6  UNL     1      21.169   4.348  51.731  1.00  0.00     0.234 C 
HETATM    6  N2  UNL     1      21.819   3.264  52.155  1.00  0.00    -0.225 NA
HETATM    7  C7  UNL     1      21.536   2.015  51.729  1.00  0.00     0.129 C 
HETATM    8  C13 UNL     1      22.499   1.448  50.929  1.00  0.00     0.053 C 
HETATM    9  C14 UNL     1      23.875   1.608  51.086  1.00  0.00     0.041 C 
HETATM   10  C15 UNL     1      24.493   2.869  51.048  1.00  0.00     0.078 C 
ENDROOT
BRANCH   7  11
HETATM   11  N3  UNL     1      20.333   1.338  52.079  1.00  0.00    -0.334 N 
HETATM   12  C8  UNL     1      19.042   1.958  51.908  1.00  0.00     0.154 C 
HETATM   13  C9  UNL     1      17.967   0.936  51.585  1.00  0.00     0.162 C 
HETATM   14 CL1  UNL     1      18.221   0.211  49.972  1.00  0.00    -0.116 Cl
HETATM   15  C10 UNL     1      17.917  -0.142  52.600  1.00  0.00     0.114 C 
HETATM   16  F1  UNL     1      16.754  -0.691  53.048  1.00  0.00    -0.209 F 
HETATM   17  C11 UNL     1      19.125  -0.537  53.048  1.00  0.00     0.065 C 
HETATM   18  C12 UNL     1      20.421   0.006  52.615  1.00  0.00     0.248 C 
BRANCH  18  19
HETATM   19  O1  UNL     1      21.286  -0.052  53.719  1.00  0.00    -0.373 OA
HETATM   20  H14 UNL     1      21.724  -0.929  53.791  1.00  0.00     0.212 HD
ENDBRANCH  18  19
ENDBRANCH   7  11
BRANCH  10  21
HETATM   21  O2  UNL     1      25.412   2.570  51.954  1.00  0.00    -0.318 OA
BRANCH  21  22
HETATM   22  C16 UNL     1      26.670   2.079  52.049  1.00  0.00     0.281 C 
BRANCH  22  23
HETATM   23  O3  UNL     1      27.687   2.984  51.730  1.00  0.00    -0.369 OA
HETATM   24  H18 UNL     1      28.448   2.777  52.290  1.00  0.00     0.212 HD
ENDBRANCH  22  23
BRANCH  22  25
HETATM   25  C17 UNL     1      26.988   1.643  53.493  1.00  0.00     0.190 C 
BRANCH  25  26
HETATM   26  N4  UNL     1      27.843   0.485  53.534  1.00  0.00    -0.345 N 
HETATM   27  C18 UNL     1      29.137   0.514  53.896  1.00  0.00     0.111 A 
HETATM   28  C19 UNL     1      29.647  -0.777  53.821  1.00  0.00     0.135 A 
HETATM   29  N5  UNL     1      28.633  -1.589  53.407  1.00  0.00    -0.255 NA
HETATM   30  C20 UNL     1      27.544  -0.795  53.237  1.00  0.00     0.209 A 
ENDBRANCH  25  26
ENDBRANCH  22  25
ENDBRANCH  21  22
ENDBRANCH  10  21
BRANCH   1  31
HETATM   31  C2  UNL     1      24.784   4.902  50.243  1.00  0.00     0.037 C 
HETATM   32  C1  UNL     1      25.931   4.871  49.272  1.00  0.00     0.010 C 
ENDBRANCH   1  31
TORSDOF 8
ENDMDL
MODEL 8
REMARK VINA RESULT:      -7.3      5.301      9.439
REMARK  8 active torsions:
REMARK  status: ('A' for Active; 'I' for Inactive)
REMARK    1  A    between atoms: C2_2  and  C3_3 
REMARK    2  A    between atoms: C7_9  and  N3_10 
REMARK    3  A    between atoms: C12_17  and  O1_18 
REMARK    4  A    between atoms: C15_21  and  O2_22 
REMARK    5  A    between atoms: O2_22  and  C16_23 
REMARK    6  A    between atoms: C16_23  and  O3_24 
REMARK    7  A    between atoms: C16_23  and  C17_25 
REMARK    8  A    between atoms: C17_25  and  N4_26 
ROOT
HETATM    1  C3  UNL     1      28.186  10.573  46.970  1.00  0.00    -0.024 C 
HETATM    2  C4  UNL     1      26.927  10.496  47.512  1.00  0.00     0.029 C 
HETATM    3  C5  UNL     1      26.260  10.173  48.701  1.00  0.00     0.118 C 
HETATM    4  N1  UNL     1      27.282  10.281  49.541  1.00  0.00    -0.254 NA
HETATM    5  C6  UNL     1      28.083   9.273  49.903  1.00  0.00     0.234 C 
HETATM    6  N2  UNL     1      28.344   8.408  48.924  1.00  0.00    -0.225 NA
HETATM    7  C7  UNL     1      27.398   7.648  48.332  1.00  0.00     0.129 C 
HETATM    8  C13 UNL     1      27.114   7.992  47.033  1.00  0.00     0.053 C 
HETATM    9  C14 UNL     1      28.045   8.429  46.092  1.00  0.00     0.041 C 
HETATM   10  C15 UNL     1      28.833   9.575  46.292  1.00  0.00     0.078 C 
ENDROOT
BRANCH   7  11
HETATM   11  N3  UNL     1      26.745   6.575  49.002  1.00  0.00    -0.334 N 
HETATM   12  C8  UNL     1      25.649   6.811  49.912  1.00  0.00     0.154 C 
HETATM   13  C9  UNL     1      24.654   5.665  49.900  1.00  0.00     0.162 C 
HETATM   14 CL1  UNL     1      23.793   5.568  48.338  1.00  0.00    -0.116 Cl
HETATM   15  C10 UNL     1      25.313   4.366  50.173  1.00  0.00     0.114 C 
HETATM   16  F1  UNL     1      24.751   3.392  50.940  1.00  0.00    -0.209 F 
HETATM   17  C11 UNL     1      26.523   4.228  49.597  1.00  0.00     0.065 C 
HETATM   18  C12 UNL     1      27.195   5.232  48.759  1.00  0.00     0.248 C 
BRANCH  18  19
HETATM   19  O1  UNL     1      28.575   5.100  48.978  1.00  0.00    -0.373 OA
HETATM   20  H14 UNL     1      28.851   5.521  49.822  1.00  0.00     0.212 HD
ENDBRANCH  18  19
ENDBRANCH   7  11
BRANCH  10  21
HETATM   21  O2  UNL     1      29.899   9.086  45.675  1.00  0.00    -0.318 OA
BRANCH  21  22
HETATM   22  C16 UNL     1      30.885   8.175  45.850  1.00  0.00     0.281 C 
BRANCH  22  23
HETATM   23  O3  UNL     1      31.877   8.176  44.863  1.00  0.00    -0.369 OA
HETATM   24  H18 UNL     1      32.059   7.254  44.633  1.00  0.00     0.212 HD
ENDBRANCH  22  23
BRANCH  22  25
HETATM   25  C17 UNL     1      31.654   8.435  47.161  1.00  0.00     0.190 C 
BRANCH  25  26
HETATM   26  N4  UNL     1      31.692   7.269  48.005  1.00  0.00    -0.345 N 
HETATM   27  C18 UNL     1      31.876   7.306  49.336  1.00  0.00     0.111 A 
HETATM   28  C19 UNL     1      31.854   6.005  49.824  1.00  0.00     0.135 A 
HETATM   29  N5  UNL     1      31.654   5.178  48.759  1.00  0.00    -0.255 NA
HETATM   30  C20 UNL     1      31.560   5.973  47.662  1.00  0.00     0.209 A 
ENDBRANCH  25  26
ENDBRANCH  22  25
ENDBRANCH  21  22
ENDBRANCH  10  21
BRANCH   1  31
HETATM   31  C2  UNL     1      29.162  11.655  46.946  1.00  0.00     0.037 C 
HETATM   32  C1  UNL     1      30.154  11.616  48.075  1.00  0.00     0.010 C 
ENDBRANCH   1  31
TORSDOF 8
ENDMDL
MODEL 9
REMARK VINA RESULT:      -7.1      3.380      5.558
REMARK  8 active torsions:
REMARK  status: ('A' for Active; 'I' for Inactive)
REMARK    1  A    between atoms: C2_2  and  C3_3 
REMARK    2  A    between atoms: C7_9  and  N3_10 
REMARK    3  A    between atoms: C12_17  and  O1_18 
REMARK    4  A    between atoms: C15_21  and  O2_22 
REMARK    5  A    between atoms: O2_22  and  C16_23 
REMARK    6  A    between atoms: C16_23  and  O3_24 
REMARK    7  A    between atoms: C16_23  and  C17_25 
REMARK    8  A    between atoms: C17_25  and  N4_26 
ROOT
HETATM    1  C3  UNL     1      24.645   4.477  49.403  1.00  0.00    -0.024 C 
HETATM    2  C4  UNL     1      23.697   5.015  48.569  1.00  0.00     0.029 C 
HETATM    3  C5  UNL     1      22.622   5.915  48.562  1.00  0.00     0.118 C 
HETATM    4  N1  UNL     1      22.914   6.586  49.670  1.00  0.00    -0.254 NA
HETATM    5  C6  UNL     1      22.449   6.287  50.888  1.00  0.00     0.234 C 
HETATM    6  N2  UNL     1      22.338   4.980  51.122  1.00  0.00    -0.225 NA
HETATM    7  C7  UNL     1      21.503   4.171  50.435  1.00  0.00     0.129 C 
HETATM    8  C13 UNL     1      22.127   3.278  49.597  1.00  0.00     0.053 C 
HETATM    9  C14 UNL     1      23.328   2.623  49.866  1.00  0.00     0.041 C 
HETATM   10  C15 UNL     1      24.522   3.319  50.121  1.00  0.00     0.078 C 
ENDROOT
BRANCH   7  11
HETATM   11  N3  UNL     1      20.087   4.237  50.568  1.00  0.00    -0.334 N 
HETATM   12  C8  UNL     1      19.306   5.200  49.831  1.00  0.00     0.154 C 
HETATM   13  C9  UNL     1      17.927   4.663  49.493  1.00  0.00     0.162 C 
HETATM   14 CL1  UNL     1      18.022   3.320  48.318  1.00  0.00    -0.116 Cl
HETATM   15  C10 UNL     1      17.210   4.200  50.704  1.00  0.00     0.114 C 
HETATM   16  F1  UNL     1      15.876   4.394  50.900  1.00  0.00    -0.209 F 
HETATM   17  C11 UNL     1      17.990   3.566  51.600  1.00  0.00     0.065 C 
HETATM   18  C12 UNL     1      19.433   3.319  51.460  1.00  0.00     0.248 C 
BRANCH  18  19
HETATM   19  O1  UNL     1      19.990   3.362  52.748  1.00  0.00    -0.373 OA
HETATM   20  H14 UNL     1      20.417   4.228  52.930  1.00  0.00     0.212 HD
ENDBRANCH  18  19
ENDBRANCH   7  11
BRANCH  10  21
HETATM   21  O2  UNL     1      24.976   2.439  51.002  1.00  0.00    -0.318 OA
BRANCH  21  22
HETATM   22  C16 UNL     1      25.395   2.362  52.287  1.00  0.00     0.281 C 
BRANCH  22  23
HETATM   23  O3  UNL     1      24.761   3.241  53.172  1.00  0.00    -0.369 OA
HETATM   24  H18 UNL     1      23.808   3.091  53.098  1.00  0.00     0.212 HD
ENDBRANCH  22  23
BRANCH  22  25
HETATM   25  C17 UNL     1      25.120   0.965  52.878  1.00  0.00     0.190 C 
BRANCH  25  26
HETATM   26  N4  UNL     1      26.315   0.353  53.399  1.00  0.00    -0.345 N 
HETATM   27  C18 UNL     1      27.224  -0.289  52.645  1.00  0.00     0.111 A 
HETATM   28  C19 UNL     1      28.241  -0.748  53.473  1.00  0.00     0.135 A 
HETATM   29  N5  UNL     1      27.929  -0.371  54.746  1.00  0.00    -0.255 NA
HETATM   30  C20 UNL     1      26.749   0.298  54.673  1.00  0.00     0.209 A 
ENDBRANCH  25  26
ENDBRANCH  22  25
ENDBRANCH  21  22
ENDBRANCH  10  21
BRANCH   1  31
HETATM   31  C2  UNL     1      25.982   4.932  49.764  1.00  0.00     0.037 C 
HETATM   32  C1  UNL     1      26.638   5.804  48.729  1.00  0.00     0.010 C 
ENDBRANCH   1  31
TORSDOF 8
ENDMDL
