MODEL 1
REMARK VINA RESULT:      -9.2      0.000      0.000
REMARK  6 active torsions:
REMARK  status: ('A' for Active; 'I' for Inactive)
REMARK    1  A    between atoms: O1_2  and  C2_3 
REMARK    2  A    between atoms: C7_8  and  N1_9 
REMARK    3  A    between atoms: N1_9  and  C8_10 
REMARK    4  A    between atoms: C9_11  and  C10_12 
REMARK       I    between atoms: C10_12  and  N2_14 
REMARK    5  A    between atoms: N2_14  and  C11_15 
REMARK    6  A    between atoms: C14_18  and  N3_19 
ROOT
HETATM    1  C8  UNL     1      24.567   0.385  53.128  1.00  0.00     0.047 A 
HETATM    2  C9  UNL     1      24.190   1.270  52.226  1.00  0.00     0.054 A 
HETATM    3  C21 UNL     1      22.844   1.451  51.638  1.00  0.00     0.165 A 
HETATM    4  N6  UNL     1      21.984   0.398  52.104  1.00  0.00    -0.394 N 
HETATM    5  C22 UNL     1      22.303  -0.579  53.070  1.00  0.00     0.085 A 
HETATM    6  C23 UNL     1      23.553  -0.579  53.559  1.00  0.00     0.047 A 
HETATM    7  H26 UNL     1      21.060   0.501  51.583  1.00  0.00     0.159 HD
ENDROOT
BRANCH   2   8
HETATM    8  C10 UNL     1      25.312   2.137  51.826  1.00  0.00     0.256 C 
HETATM    9  O2  UNL     1      26.480   2.505  51.967  1.00  0.00    -0.267 OA
HETATM   10  N2  UNL     1      24.946   3.043  50.732  1.00  0.00    -0.322 N 
HETATM   11  H9  UNL     1      24.015   3.158  50.207  1.00  0.00     0.169 HD
BRANCH  10  12
HETATM   12  C11 UNL     1      25.692   4.027  50.030  1.00  0.00     0.052 A 
HETATM   13  C12 UNL     1      26.817   3.813  49.281  1.00  0.00     0.035 A 
HETATM   14  C13 UNL     1      27.554   4.779  48.635  1.00  0.00     0.052 A 
HETATM   15  C14 UNL     1      27.125   6.084  48.747  1.00  0.00     0.125 A 
HETATM   16  N5  UNL     1      26.003   6.372  49.484  1.00  0.00    -0.241 NA
HETATM   17  C20 UNL     1      25.321   5.361  50.098  1.00  0.00     0.148 A 
BRANCH  15  18
HETATM   18  N3  UNL     1      27.795   7.178  48.102  1.00  0.00    -0.362 N 
HETATM   19  C15 UNL     1      27.081   8.372  47.699  1.00  0.00     0.154 C 
HETATM   20  C16 UNL     1      27.977   9.564  47.871  1.00  0.00     0.291 C 
HETATM   21  N4  UNL     1      29.338   9.376  47.479  1.00  0.00     0.087 N 
HETATM   22  C17 UNL     1      29.895  10.423  46.681  1.00  0.00     0.310 C 
HETATM   23  C18 UNL     1      29.586   8.095  46.859  1.00  0.00     0.291 C 
HETATM   24  C19 UNL     1      29.238   7.028  47.847  1.00  0.00     0.154 C 
ENDBRANCH  15  18
ENDBRANCH  10  12
ENDBRANCH   2   8
BRANCH   1  25
HETATM   25  N1  UNL     1      25.796   0.137  53.751  1.00  0.00    -0.353 N 
HETATM   26  H8  UNL     1      26.051   0.642  54.654  1.00  0.00     0.166 HD
BRANCH  25  27
HETATM   27  C7  UNL     1      26.929  -0.654  53.531  1.00  0.00     0.066 A 
HETATM   28  C2  UNL     1      28.116  -0.064  53.991  1.00  0.00     0.094 A 
HETATM   29  C3  UNL     1      29.332  -0.731  53.827  1.00  0.00     0.039 A 
HETATM   30  C4  UNL     1      29.338  -1.955  53.217  1.00  0.00     0.003 A 
HETATM   31  C5  UNL     1      28.188  -2.554  52.757  1.00  0.00     0.002 A 
HETATM   32  C6  UNL     1      26.990  -1.888  52.924  1.00  0.00     0.032 A 
BRANCH  28  33
HETATM   33  O1  UNL     1      28.176   1.179  54.622  1.00  0.00    -0.354 OA
HETATM   34  C1  UNL     1      29.165   2.150  54.293  1.00  0.00     0.210 C 
ENDBRANCH  28  33
ENDBRANCH  25  27
ENDBRANCH   1  25
TORSDOF 6
ENDMDL
MODEL 2
REMARK VINA RESULT:      -8.5      3.490      9.385
REMARK  6 active torsions:
REMARK  status: ('A' for Active; 'I' for Inactive)
REMARK    1  A    between atoms: O1_2  and  C2_3 
REMARK    2  A    between atoms: C7_8  and  N1_9 
REMARK    3  A    between atoms: N1_9  and  C8_10 
REMARK    4  A    between atoms: C9_11  and  C10_12 
REMARK       I    between atoms: C10_12  and  N2_14 
REMARK    5  A    between atoms: N2_14  and  C11_15 
REMARK    6  A    between atoms: C14_18  and  N3_19 
ROOT
HETATM    1  C8  UNL     1      26.704   1.553  52.735  1.00  0.00     0.047 A 
HETATM    2  C9  UNL     1      26.419   0.648  53.650  1.00  0.00     0.054 A 
HETATM    3  C21 UNL     1      27.193   0.312  54.868  1.00  0.00     0.165 A 
HETATM    4  N6  UNL     1      28.426   1.049  54.857  1.00  0.00    -0.394 N 
HETATM    5  C22 UNL     1      28.803   2.039  53.925  1.00  0.00     0.085 A 
HETATM    6  C23 UNL     1      27.966   2.275  52.903  1.00  0.00     0.047 A 
HETATM    7  H26 UNL     1      28.997   0.706  55.689  1.00  0.00     0.159 HD
ENDROOT
BRANCH   2   8
HETATM    8  C10 UNL     1      25.163  -0.054  53.337  1.00  0.00     0.256 C 
HETATM    9  O2  UNL     1      24.563  -1.091  53.044  1.00  0.00    -0.267 OA
HETATM   10  N2  UNL     1      24.007   0.849  53.356  1.00  0.00    -0.322 N 
HETATM   11  H9  UNL     1      23.951   1.903  53.555  1.00  0.00     0.169 HD
BRANCH  10  12
HETATM   12  C11 UNL     1      22.623   0.618  53.129  1.00  0.00     0.052 A 
HETATM   13  C12 UNL     1      21.712   0.173  54.048  1.00  0.00     0.035 A 
HETATM   14  C13 UNL     1      20.381  -0.083  53.809  1.00  0.00     0.052 A 
HETATM   15  C14 UNL     1      19.916   0.127  52.528  1.00  0.00     0.125 A 
HETATM   16  N5  UNL     1      20.776   0.572  51.555  1.00  0.00    -0.241 NA
HETATM   17  C20 UNL     1      22.084   0.806  51.865  1.00  0.00     0.148 A 
BRANCH  15  18
HETATM   18  N3  UNL     1      18.544  -0.082  52.159  1.00  0.00    -0.362 N 
HETATM   19  C15 UNL     1      17.955   0.593  51.021  1.00  0.00     0.154 C 
HETATM   20  C16 UNL     1      16.965  -0.323  50.363  1.00  0.00     0.291 C 
HETATM   21  N4  UNL     1      16.142  -1.085  51.249  1.00  0.00     0.087 N 
HETATM   22  C17 UNL     1      14.750  -1.105  50.926  1.00  0.00     0.310 C 
HETATM   23  C18 UNL     1      16.325  -0.740  52.639  1.00  0.00     0.291 C 
HETATM   24  C19 UNL     1      17.753  -0.998  52.998  1.00  0.00     0.154 C 
ENDBRANCH  15  18
ENDBRANCH  10  12
ENDBRANCH   2   8
BRANCH   1  25
HETATM   25  N1  UNL     1      26.045   1.953  51.566  1.00  0.00    -0.353 N 
HETATM   26  H8  UNL     1      25.409   1.273  51.049  1.00  0.00     0.166 HD
BRANCH  25  27
HETATM   27  C7  UNL     1      25.956   3.099  50.768  1.00  0.00     0.066 A 
HETATM   28  C2  UNL     1      24.901   3.950  51.133  1.00  0.00     0.094 A 
HETATM   29  C3  UNL     1      24.677   5.127  50.416  1.00  0.00     0.039 A 
HETATM   30  C4  UNL     1      25.500   5.427  49.365  1.00  0.00     0.003 A 
HETATM   31  C5  UNL     1      26.541   4.610  48.987  1.00  0.00     0.002 A 
HETATM   32  C6  UNL     1      26.754   3.448  49.703  1.00  0.00     0.032 A 
BRANCH  28  33
HETATM   33  O1  UNL     1      24.029   3.700  52.194  1.00  0.00    -0.354 OA
HETATM   34  C1  UNL     1      22.857   4.480  52.413  1.00  0.00     0.210 C 
ENDBRANCH  28  33
ENDBRANCH  25  27
ENDBRANCH   1  25
TORSDOF 6
ENDMDL
MODEL 3
REMARK VINA RESULT:      -8.4      3.990      4.381
REMARK  6 active torsions:
REMARK  status: ('A' for Active; 'I' for Inactive)
REMARK    1  A    between atoms: O1_2  and  C2_3 
REMARK    2  A    between atoms: C7_8  and  N1_9 
REMARK    3  A    between atoms: N1_9  and  C8_10 
REMARK    4  A    between atoms: C9_11  and  C10_12 
REMARK       I    between atoms: C10_12  and  N2_14 
REMARK    5  A    between atoms: N2_14  and  C11_15 
REMARK    6  A    between atoms: C14_18  and  N3_19 
ROOT
HETATM    1  C8  UNL     1      24.392  -0.019  53.609  1.00  0.00     0.047 A 
HETATM    2  C9  UNL     1      23.309   0.428  53.005  1.00  0.00     0.054 A 
HETATM    3  C21 UNL     1      21.896   0.173  53.366  1.00  0.00     0.165 A 
HETATM    4  N6  UNL     1      21.852  -0.781  54.440  1.00  0.00    -0.394 N 
HETATM    5  C22 UNL     1      22.958  -1.301  55.146  1.00  0.00     0.085 A 
HETATM    6  C23 UNL     1      24.181  -0.928  54.737  1.00  0.00     0.047 A 
HETATM    7  H26 UNL     1      20.825  -1.016  54.602  1.00  0.00     0.159 HD
ENDROOT
BRANCH   2   8
HETATM    8  C10 UNL     1      23.651   1.277  51.851  1.00  0.00     0.256 C 
HETATM    9  O2  UNL     1      24.492   1.882  51.183  1.00  0.00    -0.267 OA
HETATM   10  N2  UNL     1      22.472   1.621  51.050  1.00  0.00    -0.322 N 
HETATM   11  H9  UNL     1      21.439   1.355  51.183  1.00  0.00     0.169 HD
BRANCH  10  12
HETATM   12  C11 UNL     1      22.326   2.392  49.866  1.00  0.00     0.052 A 
HETATM   13  C12 UNL     1      22.363   1.923  48.580  1.00  0.00     0.035 A 
HETATM   14  C13 UNL     1      22.257   2.684  47.438  1.00  0.00     0.052 A 
HETATM   15  C14 UNL     1      22.099   4.044  47.596  1.00  0.00     0.125 A 
HETATM   16  N5  UNL     1      22.054   4.584  48.858  1.00  0.00    -0.241 NA
HETATM   17  C20 UNL     1      22.165   3.767  49.946  1.00  0.00     0.148 A 
BRANCH  15  18
HETATM   18  N3  UNL     1      21.955   4.941  46.484  1.00  0.00    -0.362 N 
HETATM   19  C15 UNL     1      22.033   6.377  46.654  1.00  0.00     0.154 C 
HETATM   20  C16 UNL     1      22.686   6.982  45.446  1.00  0.00     0.291 C 
HETATM   21  N4  UNL     1      22.292   6.430  44.188  1.00  0.00     0.087 N 
HETATM   22  C17 UNL     1      21.986   7.384  43.169  1.00  0.00     0.310 C 
HETATM   23  C18 UNL     1      21.227   5.460  44.295  1.00  0.00     0.291 C 
HETATM   24  C19 UNL     1      21.705   4.340  45.162  1.00  0.00     0.154 C 
ENDBRANCH  15  18
ENDBRANCH  10  12
ENDBRANCH   2   8
BRANCH   1  25
HETATM   25  N1  UNL     1      25.757   0.167  53.360  1.00  0.00    -0.353 N 
HETATM   26  H8  UNL     1      26.131   1.134  53.117  1.00  0.00     0.166 HD
BRANCH  25  27
HETATM   27  C7  UNL     1      26.919  -0.612  53.319  1.00  0.00     0.066 A 
HETATM   28  C2  UNL     1      28.047   0.046  53.831  1.00  0.00     0.094 A 
HETATM   29  C3  UNL     1      29.284  -0.603  53.842  1.00  0.00     0.039 A 
HETATM   30  C4  UNL     1      29.367  -1.875  53.349  1.00  0.00     0.003 A 
HETATM   31  C5  UNL     1      28.276  -2.542  52.842  1.00  0.00     0.002 A 
HETATM   32  C6  UNL     1      27.057  -1.893  52.835  1.00  0.00     0.032 A 
BRANCH  28  33
HETATM   33  O1  UNL     1      28.027   1.342  54.348  1.00  0.00    -0.354 OA
HETATM   34  C1  UNL     1      28.603   2.445  53.655  1.00  0.00     0.210 C 
ENDBRANCH  28  33
ENDBRANCH  25  27
ENDBRANCH   1  25
TORSDOF 6
ENDMDL
MODEL 4
REMARK VINA RESULT:      -8.4      1.838      2.436
REMARK  6 active torsions:
REMARK  status: ('A' for Active; 'I' for Inactive)
REMARK    1  A    between atoms: O1_2  and  C2_3 
REMARK    2  A    between atoms: C7_8  and  N1_9 
REMARK    3  A    between atoms: N1_9  and  C8_10 
REMARK    4  A    between atoms: C9_11  and  C10_12 
REMARK       I    between atoms: C10_12  and  N2_14 
REMARK    5  A    between atoms: N2_14  and  C11_15 
REMARK    6  A    between atoms: C14_18  and  N3_19 
ROOT
HETATM    1  C8  UNL     1      24.154   0.035  53.612  1.00  0.00     0.047 A 
HETATM    2  C9  UNL     1      23.018   0.497  53.129  1.00  0.00     0.054 A 
HETATM    3  C21 UNL     1      21.647   0.240  53.627  1.00  0.00     0.165 A 
HETATM    4  N6  UNL     1      21.707  -0.732  54.684  1.00  0.00    -0.394 N 
HETATM    5  C22 UNL     1      22.875  -1.268  55.264  1.00  0.00     0.085 A 
HETATM    6  C23 UNL     1      24.053  -0.893  54.740  1.00  0.00     0.047 A 
HETATM    7  H26 UNL     1      20.701  -0.965  54.944  1.00  0.00     0.159 HD
ENDROOT
BRANCH   2   8
HETATM    8  C10 UNL     1      23.246   1.364  51.960  1.00  0.00     0.256 C 
HETATM    9  O2  UNL     1      23.191   1.551  50.743  1.00  0.00    -0.267 OA
HETATM   10  N2  UNL     1      23.826   2.657  52.337  1.00  0.00    -0.322 N 
HETATM   11  H9  UNL     1      24.098   3.042  53.303  1.00  0.00     0.169 HD
BRANCH  10  12
HETATM   12  C11 UNL     1      24.198   3.788  51.563  1.00  0.00     0.052 A 
HETATM   13  C12 UNL     1      25.202   3.845  50.635  1.00  0.00     0.035 A 
HETATM   14  C13 UNL     1      25.578   4.956  49.916  1.00  0.00     0.052 A 
HETATM   15  C14 UNL     1      24.884   6.124  50.147  1.00  0.00     0.125 A 
HETATM   16  N5  UNL     1      23.864   6.141  51.066  1.00  0.00    -0.241 NA
HETATM   17  C20 UNL     1      23.546   4.999  51.742  1.00  0.00     0.148 A 
BRANCH  15  18
HETATM   18  N3  UNL     1      25.166   7.344  49.445  1.00  0.00    -0.362 N 
HETATM   19  C15 UNL     1      26.413   8.057  49.637  1.00  0.00     0.154 C 
HETATM   20  C16 UNL     1      26.828   8.682  48.336  1.00  0.00     0.291 C 
HETATM   21  N4  UNL     1      25.777   9.271  47.569  1.00  0.00     0.087 N 
HETATM   22  C17 UNL     1      26.055  10.571  47.045  1.00  0.00     0.310 C 
HETATM   23  C18 UNL     1      24.502   9.272  48.248  1.00  0.00     0.291 C 
HETATM   24  C19 UNL     1      24.127   7.854  48.534  1.00  0.00     0.154 C 
ENDBRANCH  15  18
ENDBRANCH  10  12
ENDBRANCH   2   8
BRANCH   1  25
HETATM   25  N1  UNL     1      25.487   0.220  53.229  1.00  0.00    -0.353 N 
HETATM   26  H8  UNL     1      25.807   1.155  52.833  1.00  0.00     0.166 HD
BRANCH  25  27
HETATM   27  C7  UNL     1      26.669  -0.530  53.194  1.00  0.00     0.066 A 
HETATM   28  C2  UNL     1      27.773   0.149  53.733  1.00  0.00     0.094 A 
HETATM   29  C3  UNL     1      29.026  -0.468  53.753  1.00  0.00     0.039 A 
HETATM   30  C4  UNL     1      29.149  -1.731  53.242  1.00  0.00     0.003 A 
HETATM   31  C5  UNL     1      28.082  -2.417  52.708  1.00  0.00     0.002 A 
HETATM   32  C6  UNL     1      26.847  -1.799  52.693  1.00  0.00     0.032 A 
BRANCH  28  33
HETATM   33  O1  UNL     1      27.713   1.436  54.269  1.00  0.00    -0.354 OA
HETATM   34  C1  UNL     1      28.574   2.482  53.832  1.00  0.00     0.210 C 
ENDBRANCH  28  33
ENDBRANCH  25  27
ENDBRANCH   1  25
TORSDOF 6
ENDMDL
MODEL 5
REMARK VINA RESULT:      -8.3      3.456      4.054
REMARK  6 active torsions:
REMARK  status: ('A' for Active; 'I' for Inactive)
REMARK    1  A    between atoms: O1_2  and  C2_3 
REMARK    2  A    between atoms: C7_8  and  N1_9 
REMARK    3  A    between atoms: N1_9  and  C8_10 
REMARK    4  A    between atoms: C9_11  and  C10_12 
REMARK       I    between atoms: C10_12  and  N2_14 
REMARK    5  A    between atoms: N2_14  and  C11_15 
REMARK    6  A    between atoms: C14_18  and  N3_19 
ROOT
HETATM    1  C8  UNL     1      24.323  -0.053  53.720  1.00  0.00     0.047 A 
HETATM    2  C9  UNL     1      23.182   0.524  53.396  1.00  0.00     0.054 A 
HETATM    3  C21 UNL     1      21.844   0.286  53.985  1.00  0.00     0.165 A 
HETATM    4  N6  UNL     1      21.931  -0.804  54.918  1.00  0.00    -0.394 N 
HETATM    5  C22 UNL     1      23.107  -1.466  55.327  1.00  0.00     0.085 A 
HETATM    6  C23 UNL     1      24.258  -1.098  54.743  1.00  0.00     0.047 A 
HETATM    7  H26 UNL     1      20.937  -1.011  55.242  1.00  0.00     0.159 HD
ENDROOT
BRANCH   2   8
HETATM    8  C10 UNL     1      23.367   1.506  52.315  1.00  0.00     0.256 C 
HETATM    9  O2  UNL     1      23.763   1.784  51.181  1.00  0.00    -0.267 OA
HETATM   10  N2  UNL     1      22.866   2.834  52.684  1.00  0.00    -0.322 N 
HETATM   11  H9  UNL     1      22.406   3.175  53.593  1.00  0.00     0.169 HD
BRANCH  10  12
HETATM   12  C11 UNL     1      22.824   4.061  51.969  1.00  0.00     0.052 A 
HETATM   13  C12 UNL     1      23.870   4.921  51.767  1.00  0.00     0.035 A 
HETATM   14  C13 UNL     1      23.811   6.125  51.104  1.00  0.00     0.052 A 
HETATM   15  C14 UNL     1      22.589   6.508  50.595  1.00  0.00     0.125 A 
HETATM   16  N5  UNL     1      21.495   5.695  50.763  1.00  0.00    -0.241 NA
HETATM   17  C20 UNL     1      21.629   4.513  51.431  1.00  0.00     0.148 A 
BRANCH  15  18
HETATM   18  N3  UNL     1      22.403   7.731  49.866  1.00  0.00    -0.362 N 
HETATM   19  C15 UNL     1      23.526   8.561  49.480  1.00  0.00     0.154 C 
HETATM   20  C16 UNL     1      23.240   9.188  48.147  1.00  0.00     0.291 C 
HETATM   21  N4  UNL     1      21.904   9.657  47.957  1.00  0.00     0.087 N 
HETATM   22  C17 UNL     1      21.789  10.964  47.389  1.00  0.00     0.310 C 
HETATM   23  C18 UNL     1      21.087   9.558  49.144  1.00  0.00     0.291 C 
HETATM   24  C19 UNL     1      21.020   8.118  49.541  1.00  0.00     0.154 C 
ENDBRANCH  15  18
ENDBRANCH  10  12
ENDBRANCH   2   8
BRANCH   1  25
HETATM   25  N1  UNL     1      25.629   0.102  53.241  1.00  0.00    -0.353 N 
HETATM   26  H8  UNL     1      25.903   0.983  52.707  1.00  0.00     0.166 HD
BRANCH  25  27
HETATM   27  C7  UNL     1      26.824  -0.625  53.235  1.00  0.00     0.066 A 
HETATM   28  C2  UNL     1      27.909   0.086  53.772  1.00  0.00     0.094 A 
HETATM   29  C3  UNL     1      29.173  -0.507  53.819  1.00  0.00     0.039 A 
HETATM   30  C4  UNL     1      29.325  -1.778  53.338  1.00  0.00     0.003 A 
HETATM   31  C5  UNL     1      28.277  -2.496  52.808  1.00  0.00     0.002 A 
HETATM   32  C6  UNL     1      27.031  -1.901  52.765  1.00  0.00     0.032 A 
BRANCH  28  33
HETATM   33  O1  UNL     1      27.818   1.383  54.279  1.00  0.00    -0.354 OA
HETATM   34  C1  UNL     1      28.456   2.490  53.650  1.00  0.00     0.210 C 
ENDBRANCH  28  33
ENDBRANCH  25  27
ENDBRANCH   1  25
TORSDOF 6
ENDMDL
MODEL 6
REMARK VINA RESULT:      -8.3      1.484      2.205
REMARK  6 active torsions:
REMARK  status: ('A' for Active; 'I' for Inactive)
REMARK    1  A    between atoms: O1_2  and  C2_3 
REMARK    2  A    between atoms: C7_8  and  N1_9 
REMARK    3  A    between atoms: N1_9  and  C8_10 
REMARK    4  A    between atoms: C9_11  and  C10_12 
REMARK       I    between atoms: C10_12  and  N2_14 
REMARK    5  A    between atoms: N2_14  and  C11_15 
REMARK    6  A    between atoms: C14_18  and  N3_19 
ROOT
HETATM    1  C8  UNL     1      24.111   1.247  52.051  1.00  0.00     0.047 A 
HETATM    2  C9  UNL     1      23.283   2.056  51.420  1.00  0.00     0.054 A 
HETATM    3  C21 UNL     1      21.857   2.316  51.726  1.00  0.00     0.165 A 
HETATM    4  N6  UNL     1      21.434   1.429  52.774  1.00  0.00    -0.394 N 
HETATM    5  C22 UNL     1      22.253   0.544  53.505  1.00  0.00     0.085 A 
HETATM    6  C23 UNL     1      23.545   0.461  53.149  1.00  0.00     0.047 A 
HETATM    7  H26 UNL     1      20.385   1.573  52.894  1.00  0.00     0.159 HD
ENDROOT
BRANCH   2   8
HETATM    8  C10 UNL     1      23.951   2.738  50.299  1.00  0.00     0.256 C 
HETATM    9  O2  UNL     1      24.158   2.851  49.089  1.00  0.00    -0.267 OA
HETATM   10  N2  UNL     1      24.819   3.829  50.755  1.00  0.00    -0.322 N 
HETATM   11  H9  UNL     1      25.027   4.182  51.748  1.00  0.00     0.169 HD
BRANCH  10  12
HETATM   12  C11 UNL     1      25.635   4.748  50.043  1.00  0.00     0.052 A 
HETATM   13  C12 UNL     1      26.732   4.444  49.284  1.00  0.00     0.035 A 
HETATM   14  C13 UNL     1      27.538   5.347  48.628  1.00  0.00     0.052 A 
HETATM   15  C14 UNL     1      27.216   6.682  48.742  1.00  0.00     0.125 A 
HETATM   16  N5  UNL     1      26.128   7.060  49.489  1.00  0.00    -0.241 NA
HETATM   17  C20 UNL     1      25.373   6.109  50.112  1.00  0.00     0.148 A 
BRANCH  15  18
HETATM   18  N3  UNL     1      27.965   7.717  48.087  1.00  0.00    -0.362 N 
HETATM   19  C15 UNL     1      28.081   7.770  46.644  1.00  0.00     0.154 C 
HETATM   20  C16 UNL     1      28.107   9.205  46.205  1.00  0.00     0.291 C 
HETATM   21  N4  UNL     1      28.881  10.088  47.019  1.00  0.00     0.087 N 
HETATM   22  C17 UNL     1      29.747  10.976  46.308  1.00  0.00     0.310 C 
HETATM   23  C18 UNL     1      29.615   9.411  48.063  1.00  0.00     0.291 C 
HETATM   24  C19 UNL     1      28.629   8.713  48.944  1.00  0.00     0.154 C 
ENDBRANCH  15  18
ENDBRANCH  10  12
ENDBRANCH   2   8
BRANCH   1  25
HETATM   25  N1  UNL     1      25.462   0.938  51.854  1.00  0.00    -0.353 N 
HETATM   26  H8  UNL     1      25.770   0.412  50.981  1.00  0.00     0.166 HD
BRANCH  25  27
HETATM   27  C7  UNL     1      26.675   1.118  52.528  1.00  0.00     0.066 A 
HETATM   28  C2  UNL     1      27.175  -0.063  53.098  1.00  0.00     0.094 A 
HETATM   29  C3  UNL     1      28.373  -0.035  53.815  1.00  0.00     0.039 A 
HETATM   30  C4  UNL     1      29.037   1.154  53.947  1.00  0.00     0.003 A 
HETATM   31  C5  UNL     1      28.568   2.325  53.398  1.00  0.00     0.002 A 
HETATM   32  C6  UNL     1      27.382   2.287  52.690  1.00  0.00     0.032 A 
BRANCH  28  33
HETATM   33  O1  UNL     1      26.546  -1.305  52.998  1.00  0.00    -0.354 OA
HETATM   34  C1  UNL     1      27.184  -2.434  52.410  1.00  0.00     0.210 C 
ENDBRANCH  28  33
ENDBRANCH  25  27
ENDBRANCH   1  25
TORSDOF 6
ENDMDL
MODEL 7
REMARK VINA RESULT:      -8.2      1.961      2.781
REMARK  6 active torsions:
REMARK  status: ('A' for Active; 'I' for Inactive)
REMARK    1  A    between atoms: O1_2  and  C2_3 
REMARK    2  A    between atoms: C7_8  and  N1_9 
REMARK    3  A    between atoms: N1_9  and  C8_10 
REMARK    4  A    between atoms: C9_11  and  C10_12 
REMARK       I    between atoms: C10_12  and  N2_14 
REMARK    5  A    between atoms: N2_14  and  C11_15 
REMARK    6  A    between atoms: C14_18  and  N3_19 
ROOT
HETATM    1  C8  UNL     1      22.196   1.889  52.137  1.00  0.00     0.047 A 
HETATM    2  C9  UNL     1      21.959   2.906  51.333  1.00  0.00     0.054 A 
HETATM    3  C21 UNL     1      20.723   3.190  50.567  1.00  0.00     0.165 A 
HETATM    4  N6  UNL     1      19.814   2.088  50.720  1.00  0.00    -0.394 N 
HETATM    5  C22 UNL     1      19.985   0.971  51.563  1.00  0.00     0.085 A 
HETATM    6  C23 UNL     1      21.139   0.881  52.243  1.00  0.00     0.047 A 
HETATM    7  H26 UNL     1      18.987   2.281  50.077  1.00  0.00     0.159 HD
ENDROOT
BRANCH   2   8
HETATM    8  C10 UNL     1      23.118   3.812  51.259  1.00  0.00     0.256 C 
HETATM    9  O2  UNL     1      23.840   4.666  51.778  1.00  0.00    -0.267 OA
HETATM   10  N2  UNL     1      23.807   3.722  49.967  1.00  0.00    -0.322 N 
HETATM   11  H9  UNL     1      23.592   3.117  49.106  1.00  0.00     0.169 HD
BRANCH  10  12
HETATM   12  C11 UNL     1      24.955   4.387  49.461  1.00  0.00     0.052 A 
HETATM   13  C12 UNL     1      26.234   3.899  49.439  1.00  0.00     0.035 A 
HETATM   14  C13 UNL     1      27.347   4.566  48.980  1.00  0.00     0.052 A 
HETATM   15  C14 UNL     1      27.165   5.843  48.495  1.00  0.00     0.125 A 
HETATM   16  N5  UNL     1      25.908   6.397  48.488  1.00  0.00    -0.241 NA
HETATM   17  C20 UNL     1      24.850   5.675  48.959  1.00  0.00     0.148 A 
BRANCH  15  18
HETATM   18  N3  UNL     1      28.242   6.632  47.968  1.00  0.00    -0.362 N 
HETATM   19  C15 UNL     1      27.998   7.885  47.282  1.00  0.00     0.154 C 
HETATM   20  C16 UNL     1      29.113   8.841  47.591  1.00  0.00     0.291 C 
HETATM   21  N4  UNL     1      30.426   8.277  47.608  1.00  0.00     0.087 N 
HETATM   22  C17 UNL     1      31.423   9.024  46.908  1.00  0.00     0.310 C 
HETATM   23  C18 UNL     1      30.461   6.894  47.195  1.00  0.00     0.291 C 
HETATM   24  C19 UNL     1      29.607   6.106  48.136  1.00  0.00     0.154 C 
ENDBRANCH  15  18
ENDBRANCH  10  12
ENDBRANCH   2   8
BRANCH   1  25
HETATM   25  N1  UNL     1      23.310   1.534  52.907  1.00  0.00    -0.353 N 
HETATM   26  H8  UNL     1      23.369   1.825  53.930  1.00  0.00     0.166 HD
BRANCH  25  27
HETATM   27  C7  UNL     1      24.514   0.842  52.731  1.00  0.00     0.066 A 
HETATM   28  C2  UNL     1      24.583  -0.348  53.472  1.00  0.00     0.094 A 
HETATM   29  C3  UNL     1      25.732  -1.139  53.409  1.00  0.00     0.039 A 
HETATM   30  C4  UNL     1      26.772  -0.732  52.619  1.00  0.00     0.003 A 
HETATM   31  C5  UNL     1      26.729   0.430  51.884  1.00  0.00     0.002 A 
HETATM   32  C6  UNL     1      25.588   1.206  51.953  1.00  0.00     0.032 A 
BRANCH  28  33
HETATM   33  O1  UNL     1      23.557  -0.817  54.293  1.00  0.00    -0.354 OA
HETATM   34  C1  UNL     1      23.805  -1.336  55.596  1.00  0.00     0.210 C 
ENDBRANCH  28  33
ENDBRANCH  25  27
ENDBRANCH   1  25
TORSDOF 6
ENDMDL
MODEL 8
REMARK VINA RESULT:      -8.2      2.120      3.411
REMARK  6 active torsions:
REMARK  status: ('A' for Active; 'I' for Inactive)
REMARK    1  A    between atoms: O1_2  and  C2_3 
REMARK    2  A    between atoms: C7_8  and  N1_9 
REMARK    3  A    between atoms: N1_9  and  C8_10 
REMARK    4  A    between atoms: C9_11  and  C10_12 
REMARK       I    between atoms: C10_12  and  N2_14 
REMARK    5  A    between atoms: N2_14  and  C11_15 
REMARK    6  A    between atoms: C14_18  and  N3_19 
ROOT
HETATM    1  C8  UNL     1      22.946   2.028  50.560  1.00  0.00     0.047 A 
HETATM    2  C9  UNL     1      23.173   2.949  49.645  1.00  0.00     0.054 A 
HETATM    3  C21 UNL     1      22.452   3.159  48.368  1.00  0.00     0.165 A 
HETATM    4  N6  UNL     1      21.506   2.093  48.184  1.00  0.00    -0.394 N 
HETATM    5  C22 UNL     1      21.196   1.078  49.113  1.00  0.00     0.085 A 
HETATM    6  C23 UNL     1      21.897   1.053  50.257  1.00  0.00     0.047 A 
HETATM    7  H26 UNL     1      21.084   2.221  47.214  1.00  0.00     0.159 HD
ENDROOT
BRANCH   2   8
HETATM    8  C10 UNL     1      24.290   3.826  50.034  1.00  0.00     0.256 C 
HETATM    9  O2  UNL     1      25.081   4.232  50.887  1.00  0.00    -0.267 OA
HETATM   10  N2  UNL     1      24.745   4.666  48.921  1.00  0.00    -0.322 N 
HETATM   11  H9  UNL     1      24.392   4.730  47.908  1.00  0.00     0.169 HD
BRANCH  10  12
HETATM   12  C11 UNL     1      25.780   5.635  48.829  1.00  0.00     0.052 A 
HETATM   13  C12 UNL     1      27.085   5.401  48.488  1.00  0.00     0.035 A 
HETATM   14  C13 UNL     1      28.089   6.341  48.438  1.00  0.00     0.052 A 
HETATM   15  C14 UNL     1      27.758   7.640  48.761  1.00  0.00     0.125 A 
HETATM   16  N5  UNL     1      26.467   7.946  49.115  1.00  0.00    -0.241 NA
HETATM   17  C20 UNL     1      25.522   6.961  49.142  1.00  0.00     0.148 A 
BRANCH  15  18
HETATM   18  N3  UNL     1      28.710   8.713  48.725  1.00  0.00    -0.362 N 
HETATM   19  C15 UNL     1      30.092   8.513  49.111  1.00  0.00     0.154 C 
HETATM   20  C16 UNL     1      30.973   9.372  48.252  1.00  0.00     0.291 C 
HETATM   21  N4  UNL     1      30.487  10.689  47.989  1.00  0.00     0.087 N 
HETATM   22  C17 UNL     1      31.444  11.739  48.147  1.00  0.00     0.310 C 
HETATM   23  C18 UNL     1      29.277  11.009  48.710  1.00  0.00     0.291 C 
HETATM   24  C19 UNL     1      28.220  10.035  48.298  1.00  0.00     0.154 C 
ENDBRANCH  15  18
ENDBRANCH  10  12
ENDBRANCH   2   8
BRANCH   1  25
HETATM   25  N1  UNL     1      23.552   1.750  51.791  1.00  0.00    -0.353 N 
HETATM   26  H8  UNL     1      23.222   2.244  52.675  1.00  0.00     0.166 HD
BRANCH  25  27
HETATM   27  C7  UNL     1      24.581   0.937  52.279  1.00  0.00     0.066 A 
HETATM   28  C2  UNL     1      24.173   0.089  53.320  1.00  0.00     0.094 A 
HETATM   29  C3  UNL     1      25.096  -0.771  53.918  1.00  0.00     0.039 A 
HETATM   30  C4  UNL     1      26.389  -0.767  53.471  1.00  0.00     0.003 A 
HETATM   31  C5  UNL     1      26.814   0.054  52.453  1.00  0.00     0.002 A 
HETATM   32  C6  UNL     1      25.894   0.902  51.867  1.00  0.00     0.032 A 
BRANCH  28  33
HETATM   33  O1  UNL     1      22.870   0.038  53.819  1.00  0.00    -0.354 OA
HETATM   34  C1  UNL     1      22.037  -1.105  53.651  1.00  0.00     0.210 C 
ENDBRANCH  28  33
ENDBRANCH  25  27
ENDBRANCH   1  25
TORSDOF 6
ENDMDL
MODEL 9
REMARK VINA RESULT:      -8.0      3.771      6.123
REMARK  6 active torsions:
REMARK  status: ('A' for Active; 'I' for Inactive)
REMARK    1  A    between atoms: O1_2  and  C2_3 
REMARK    2  A    between atoms: C7_8  and  N1_9 
REMARK    3  A    between atoms: N1_9  and  C8_10 
REMARK    4  A    between atoms: C9_11  and  C10_12 
REMARK       I    between atoms: C10_12  and  N2_14 
REMARK    5  A    between atoms: N2_14  and  C11_15 
REMARK    6  A    between atoms: C14_18  and  N3_19 
ROOT
HETATM    1  C8  UNL     1      26.391   0.563  53.331  1.00  0.00     0.047 A 
HETATM    2  C9  UNL     1      26.955   1.695  52.958  1.00  0.00     0.054 A 
HETATM    3  C21 UNL     1      28.233   2.273  53.434  1.00  0.00     0.165 A 
HETATM    4  N6  UNL     1      28.744   1.462  54.505  1.00  0.00    -0.394 N 
HETATM    5  C22 UNL     1      28.210   0.238  54.958  1.00  0.00     0.085 A 
HETATM    6  C23 UNL     1      27.072  -0.188  54.386  1.00  0.00     0.047 A 
HETATM    7  H26 UNL     1      29.604   1.963  54.887  1.00  0.00     0.159 HD
ENDROOT
BRANCH   2   8
HETATM    8  C10 UNL     1      26.144   2.389  51.944  1.00  0.00     0.256 C 
HETATM    9  O2  UNL     1      25.870   2.606  50.762  1.00  0.00    -0.267 OA
HETATM   10  N2  UNL     1      25.153   3.286  52.549  1.00  0.00    -0.322 N 
HETATM   11  H9  UNL     1      24.947   3.499  53.582  1.00  0.00     0.169 HD
BRANCH  10  12
HETATM   12  C11 UNL     1      24.168   4.131  51.973  1.00  0.00     0.052 A 
HETATM   13  C12 UNL     1      22.850   4.209  52.334  1.00  0.00     0.035 A 
HETATM   14  C13 UNL     1      21.895   5.005  51.745  1.00  0.00     0.052 A 
HETATM   15  C14 UNL     1      22.294   5.800  50.693  1.00  0.00     0.125 A 
HETATM   16  N5  UNL     1      23.602   5.773  50.275  1.00  0.00    -0.241 NA
HETATM   17  C20 UNL     1      24.495   4.958  50.908  1.00  0.00     0.148 A 
BRANCH  15  18
HETATM   18  N3  UNL     1      21.397   6.690  50.011  1.00  0.00    -0.362 N 
HETATM   19  C15 UNL     1      20.507   6.217  48.970  1.00  0.00     0.154 C 
HETATM   20  C16 UNL     1      19.219   6.985  49.038  1.00  0.00     0.291 C 
HETATM   21  N4  UNL     1      19.345   8.385  49.291  1.00  0.00     0.087 N 
HETATM   22  C17 UNL     1      18.557   9.233  48.452  1.00  0.00     0.310 C 
HETATM   23  C18 UNL     1      20.715   8.843  49.311  1.00  0.00     0.291 C 
HETATM   24  C19 UNL     1      21.432   8.110  50.399  1.00  0.00     0.154 C 
ENDBRANCH  15  18
ENDBRANCH  10  12
ENDBRANCH   2   8
BRANCH   1  25
HETATM   25  N1  UNL     1      25.205  -0.072  52.944  1.00  0.00    -0.353 N 
HETATM   26  H8  UNL     1      25.154  -0.590  52.015  1.00  0.00     0.166 HD
BRANCH  25  27
HETATM   27  C7  UNL     1      23.914  -0.257  53.452  1.00  0.00     0.066 A 
HETATM   28  C2  UNL     1      22.915   0.312  52.648  1.00  0.00     0.094 A 
HETATM   29  C3  UNL     1      21.576   0.221  53.035  1.00  0.00     0.039 A 
HETATM   30  C4  UNL     1      21.268  -0.426  54.199  1.00  0.00     0.003 A 
HETATM   31  C5  UNL     1      22.229  -0.993  55.004  1.00  0.00     0.002 A 
HETATM   32  C6  UNL     1      23.550  -0.898  54.614  1.00  0.00     0.032 A 
BRANCH  28  33
HETATM   33  O1  UNL     1      23.165   0.984  51.450  1.00  0.00    -0.354 OA
HETATM   34  C1  UNL     1      22.151   1.198  50.474  1.00  0.00     0.210 C 
ENDBRANCH  28  33
ENDBRANCH  25  27
ENDBRANCH   1  25
TORSDOF 6
ENDMDL
