MODEL 1
REMARK VINA RESULT:      -8.5      0.000      0.000
REMARK  4 active torsions:
REMARK  status: ('A' for Active; 'I' for Inactive)
REMARK    1  A    between atoms: C7_7  and  C8_8 
REMARK    2  A    between atoms: C12_14  and  O1_15 
REMARK    3  A    between atoms: C14_17  and  O2_18 
REMARK    4  A    between atoms: O2_18  and  C15_19 
ROOT
HETATM    1  C1  UNL     1      28.899  -2.819  53.230  1.00  0.00     0.018 C 
HETATM    2  C2  UNL     1      28.712  -1.615  53.268  1.00  0.00    -0.078 C 
HETATM    3  C3  UNL     1      28.484  -0.195  53.294  1.00  0.00     0.017 A 
HETATM    4  C4  UNL     1      29.153   0.635  54.159  1.00  0.00     0.020 A 
HETATM    5  C5  UNL     1      28.883   1.986  54.127  1.00  0.00     0.002 A 
HETATM    6  C6  UNL     1      27.948   2.432  53.217  1.00  0.00     0.014 A 
HETATM    7  C7  UNL     1      27.243   1.620  52.317  1.00  0.00    -0.005 A 
HETATM    8  C19 UNL     1      27.559   0.281  52.399  1.00  0.00     0.034 A 
ENDROOT
BRANCH   7   9
HETATM    9  C8  UNL     1      26.318   2.314  51.435  1.00  0.00     0.081 A 
HETATM   10  N1  UNL     1      26.961   3.067  50.492  1.00  0.00    -0.240 NA
HETATM   11  C9  UNL     1      26.282   3.784  49.585  1.00  0.00     0.234 A 
HETATM   12  N2  UNL     1      24.927   3.786  49.574  1.00  0.00    -0.241 NA
HETATM   13  C10 UNL     1      24.253   3.064  50.478  1.00  0.00     0.073 A 
HETATM   14  C11 UNL     1      22.869   3.001  50.564  1.00  0.00     0.072 A 
HETATM   15  C18 UNL     1      24.960   2.331  51.405  1.00  0.00     0.025 A 
HETATM   16  C12 UNL     1      22.242   2.230  51.545  1.00  0.00     0.103 A 
HETATM   17  C14 UNL     1      22.987   1.499  52.471  1.00  0.00     0.103 A 
HETATM   18  C17 UNL     1      24.360   1.573  52.373  1.00  0.00     0.055 A 
BRANCH  16  19
HETATM   19  O1  UNL     1      20.859   2.174  51.621  1.00  0.00    -0.353 OA
HETATM   20  C13 UNL     1      20.113   3.233  52.159  1.00  0.00     0.210 C 
ENDBRANCH  16  19
BRANCH  17  21
HETATM   21  O2  UNL     1      22.346   0.739  53.440  1.00  0.00    -0.346 OA
BRANCH  21  22
HETATM   22  C15 UNL     1      22.414  -0.669  53.334  1.00  0.00     0.212 C 
HETATM   23  C16 UNL     1      22.571  -1.236  54.693  1.00  0.00     0.417 C 
HETATM   24  O3  UNL     1      22.702  -1.828  55.748  1.00  0.00    -0.428 OA
ENDBRANCH  21  22
ENDBRANCH  17  21
ENDBRANCH   7   9
TORSDOF 4
ENDMDL
MODEL 2
REMARK VINA RESULT:      -8.2      3.418      7.255
REMARK  4 active torsions:
REMARK  status: ('A' for Active; 'I' for Inactive)
REMARK    1  A    between atoms: C7_7  and  C8_8 
REMARK    2  A    between atoms: C12_14  and  O1_15 
REMARK    3  A    between atoms: C14_17  and  O2_18 
REMARK    4  A    between atoms: O2_18  and  C15_19 
ROOT
HETATM    1  C1  UNL     1      21.292   1.784  48.394  1.00  0.00     0.018 C 
HETATM    2  C2  UNL     1      21.142   1.302  49.503  1.00  0.00    -0.078 C 
HETATM    3  C3  UNL     1      20.984   0.726  50.812  1.00  0.00     0.017 A 
HETATM    4  C4  UNL     1      19.750   0.415  51.328  1.00  0.00     0.020 A 
HETATM    5  C5  UNL     1      19.676  -0.135  52.589  1.00  0.00     0.002 A 
HETATM    6  C6  UNL     1      20.858  -0.345  53.268  1.00  0.00     0.014 A 
HETATM    7  C7  UNL     1      22.136  -0.042  52.779  1.00  0.00    -0.005 A 
HETATM    8  C19 UNL     1      22.143   0.503  51.514  1.00  0.00     0.034 A 
ENDROOT
BRANCH   7   9
HETATM    9  C8  UNL     1      23.242  -0.370  53.665  1.00  0.00     0.081 A 
HETATM   10  N1  UNL     1      22.845  -1.106  54.747  1.00  0.00    -0.240 NA
HETATM   11  C9  UNL     1      23.719  -1.506  55.682  1.00  0.00     0.234 A 
HETATM   12  N2  UNL     1      25.033  -1.190  55.584  1.00  0.00    -0.241 NA
HETATM   13  C10 UNL     1      25.470  -0.471  54.543  1.00  0.00     0.073 A 
HETATM   14  C11 UNL     1      26.789  -0.085  54.349  1.00  0.00     0.072 A 
HETATM   15  C18 UNL     1      24.564  -0.065  53.588  1.00  0.00     0.025 A 
HETATM   16  C12 UNL     1      27.161   0.676  53.239  1.00  0.00     0.103 A 
HETATM   17  C14 UNL     1      26.219   1.073  52.290  1.00  0.00     0.103 A 
HETATM   18  C17 UNL     1      24.914   0.681  52.497  1.00  0.00     0.055 A 
BRANCH  16  19
HETATM   19  O1  UNL     1      28.481   1.056  53.055  1.00  0.00    -0.353 OA
HETATM   20  C13 UNL     1      29.532   0.387  53.699  1.00  0.00     0.210 C 
ENDBRANCH  16  19
BRANCH  17  21
HETATM   21  O2  UNL     1      26.607   1.830  51.193  1.00  0.00    -0.346 OA
BRANCH  21  22
HETATM   22  C15 UNL     1      25.793   2.922  50.814  1.00  0.00     0.212 C 
HETATM   23  C16 UNL     1      26.519   3.721  49.801  1.00  0.00     0.417 C 
HETATM   24  O3  UNL     1      27.003   4.463  48.967  1.00  0.00    -0.428 OA
ENDBRANCH  21  22
ENDBRANCH  17  21
ENDBRANCH   7   9
TORSDOF 4
ENDMDL
MODEL 3
REMARK VINA RESULT:      -8.1      2.801      5.761
REMARK  4 active torsions:
REMARK  status: ('A' for Active; 'I' for Inactive)
REMARK    1  A    between atoms: C7_7  and  C8_8 
REMARK    2  A    between atoms: C12_14  and  O1_15 
REMARK    3  A    between atoms: C14_17  and  O2_18 
REMARK    4  A    between atoms: O2_18  and  C15_19 
ROOT
HETATM    1  C1  UNL     1      29.109   5.216  48.049  1.00  0.00     0.018 C 
HETATM    2  C2  UNL     1      28.010   5.262  48.572  1.00  0.00    -0.078 C 
HETATM    3  C3  UNL     1      26.709   5.296  49.184  1.00  0.00     0.017 A 
HETATM    4  C4  UNL     1      25.992   6.460  49.310  1.00  0.00     0.020 A 
HETATM    5  C5  UNL     1      24.751   6.417  49.907  1.00  0.00     0.002 A 
HETATM    6  C6  UNL     1      24.295   5.193  50.350  1.00  0.00     0.014 A 
HETATM    7  C7  UNL     1      24.993   3.982  50.243  1.00  0.00    -0.005 A 
HETATM    8  C19 UNL     1      26.225   4.093  49.635  1.00  0.00     0.034 A 
ENDROOT
BRANCH   7   9
HETATM    9  C8  UNL     1      24.305   2.811  50.763  1.00  0.00     0.081 A 
HETATM   10  N1  UNL     1      23.153   2.535  50.079  1.00  0.00    -0.240 NA
HETATM   11  C9  UNL     1      22.375   1.494  50.409  1.00  0.00     0.234 A 
HETATM   12  N2  UNL     1      22.707   0.676  51.437  1.00  0.00    -0.241 NA
HETATM   13  C10 UNL     1      23.826   0.906  52.136  1.00  0.00     0.073 A 
HETATM   14  C11 UNL     1      24.256   0.140  53.211  1.00  0.00     0.072 A 
HETATM   15  C18 UNL     1      24.619   1.978  51.790  1.00  0.00     0.025 A 
HETATM   16  C12 UNL     1      25.432   0.454  53.895  1.00  0.00     0.103 A 
HETATM   17  C14 UNL     1      26.212   1.548  53.520  1.00  0.00     0.103 A 
HETATM   18  C17 UNL     1      25.772   2.299  52.451  1.00  0.00     0.055 A 
BRANCH  16  19
HETATM   19  O1  UNL     1      25.852  -0.318  54.967  1.00  0.00    -0.353 OA
HETATM   20  C13 UNL     1      24.946  -1.082  55.717  1.00  0.00     0.210 C 
ENDBRANCH  16  19
BRANCH  17  21
HETATM   21  O2  UNL     1      27.378   1.845  54.212  1.00  0.00    -0.346 OA
BRANCH  21  22
HETATM   22  C15 UNL     1      28.590   1.899  53.485  1.00  0.00     0.212 C 
HETATM   23  C16 UNL     1      29.306   0.615  53.668  1.00  0.00     0.417 C 
HETATM   24  O3  UNL     1      29.994  -0.386  53.736  1.00  0.00    -0.428 OA
ENDBRANCH  21  22
ENDBRANCH  17  21
ENDBRANCH   7   9
TORSDOF 4
ENDMDL
MODEL 4
REMARK VINA RESULT:      -7.9      2.532      5.860
REMARK  4 active torsions:
REMARK  status: ('A' for Active; 'I' for Inactive)
REMARK    1  A    between atoms: C7_7  and  C8_8 
REMARK    2  A    between atoms: C12_14  and  O1_15 
REMARK    3  A    between atoms: C14_17  and  O2_18 
REMARK    4  A    between atoms: O2_18  and  C15_19 
ROOT
HETATM    1  C1  UNL     1      18.614   0.016  51.923  1.00  0.00     0.018 C 
HETATM    2  C2  UNL     1      19.652  -0.202  52.524  1.00  0.00    -0.078 C 
HETATM    3  C3  UNL     1      20.887  -0.457  53.216  1.00  0.00     0.017 A 
HETATM    4  C4  UNL     1      20.930  -1.149  54.401  1.00  0.00     0.020 A 
HETATM    5  C5  UNL     1      22.149  -1.357  55.007  1.00  0.00     0.002 A 
HETATM    6  C6  UNL     1      23.270  -0.852  54.382  1.00  0.00     0.014 A 
HETATM    7  C7  UNL     1      23.271  -0.141  53.174  1.00  0.00    -0.005 A 
HETATM    8  C19 UNL     1      22.022   0.031  52.618  1.00  0.00     0.034 A 
ENDROOT
BRANCH   7   9
HETATM    9  C8  UNL     1      24.578   0.278  52.692  1.00  0.00     0.081 A 
HETATM   10  N1  UNL     1      25.567  -0.606  53.027  1.00  0.00    -0.240 NA
HETATM   11  C9  UNL     1      26.844  -0.396  52.674  1.00  0.00     0.234 A 
HETATM   12  N2  UNL     1      27.197   0.706  51.970  1.00  0.00    -0.241 NA
HETATM   13  C10 UNL     1      26.265   1.601  51.619  1.00  0.00     0.073 A 
HETATM   14  C11 UNL     1      26.517   2.766  50.908  1.00  0.00     0.072 A 
HETATM   15  C18 UNL     1      24.956   1.376  51.986  1.00  0.00     0.025 A 
HETATM   16  C12 UNL     1      25.487   3.653  50.590  1.00  0.00     0.103 A 
HETATM   17  C14 UNL     1      24.172   3.397  50.978  1.00  0.00     0.103 A 
HETATM   18  C17 UNL     1      23.938   2.237  51.683  1.00  0.00     0.055 A 
BRANCH  16  19
HETATM   19  O1  UNL     1      25.750   4.814  49.879  1.00  0.00    -0.353 OA
HETATM   20  C13 UNL     1      26.846   4.906  49.009  1.00  0.00     0.210 C 
ENDBRANCH  16  19
BRANCH  17  21
HETATM   21  O2  UNL     1      23.161   4.292  50.653  1.00  0.00    -0.346 OA
BRANCH  21  22
HETATM   22  C15 UNL     1      22.484   4.944  51.710  1.00  0.00     0.212 C 
HETATM   23  C16 UNL     1      21.281   4.153  52.057  1.00  0.00     0.417 C 
HETATM   24  O3  UNL     1      20.267   3.601  52.440  1.00  0.00    -0.428 OA
ENDBRANCH  21  22
ENDBRANCH  17  21
ENDBRANCH   7   9
TORSDOF 4
ENDMDL
MODEL 5
REMARK VINA RESULT:      -7.9      2.838      4.589
REMARK  4 active torsions:
REMARK  status: ('A' for Active; 'I' for Inactive)
REMARK    1  A    between atoms: C7_7  and  C8_8 
REMARK    2  A    between atoms: C12_14  and  O1_15 
REMARK    3  A    between atoms: C14_17  and  O2_18 
REMARK    4  A    between atoms: O2_18  and  C15_19 
ROOT
HETATM    1  C1  UNL     1      29.782   2.109  54.601  1.00  0.00     0.018 C 
HETATM    2  C2  UNL     1      28.994   1.273  54.197  1.00  0.00    -0.078 C 
HETATM    3  C3  UNL     1      28.048   0.293  53.733  1.00  0.00     0.017 A 
HETATM    4  C4  UNL     1      28.445  -0.904  53.190  1.00  0.00     0.020 A 
HETATM    5  C5  UNL     1      27.483  -1.795  52.767  1.00  0.00     0.002 A 
HETATM    6  C6  UNL     1      26.161  -1.429  52.914  1.00  0.00     0.014 A 
HETATM    7  C7  UNL     1      25.713  -0.219  53.461  1.00  0.00    -0.005 A 
HETATM    8  C19 UNL     1      26.723   0.627  53.866  1.00  0.00     0.034 A 
ENDROOT
BRANCH   7   9
HETATM    9  C8  UNL     1      24.269  -0.058  53.535  1.00  0.00     0.081 A 
HETATM   10  N1  UNL     1      23.700  -0.872  54.476  1.00  0.00    -0.240 NA
HETATM   11  C9  UNL     1      22.377  -0.872  54.694  1.00  0.00     0.234 A 
HETATM   12  N2  UNL     1      21.556  -0.061  53.985  1.00  0.00    -0.241 NA
HETATM   13  C10 UNL     1      22.066   0.754  53.052  1.00  0.00     0.073 A 
HETATM   14  C11 UNL     1      21.318   1.617  52.264  1.00  0.00     0.072 A 
HETATM   15  C18 UNL     1      23.427   0.747  52.835  1.00  0.00     0.025 A 
HETATM   16  C12 UNL     1      21.928   2.428  51.304  1.00  0.00     0.103 A 
HETATM   17  C14 UNL     1      23.309   2.396  51.108  1.00  0.00     0.103 A 
HETATM   18  C17 UNL     1      24.037   1.534  51.899  1.00  0.00     0.055 A 
BRANCH  16  19
HETATM   19  O1  UNL     1      21.171   3.286  50.522  1.00  0.00    -0.353 OA
HETATM   20  C13 UNL     1      20.782   4.550  50.988  1.00  0.00     0.210 C 
ENDBRANCH  16  19
BRANCH  17  21
HETATM   21  O2  UNL     1      23.897   3.209  50.149  1.00  0.00    -0.346 OA
BRANCH  21  22
HETATM   22  C15 UNL     1      24.839   4.172  50.579  1.00  0.00     0.212 C 
HETATM   23  C16 UNL     1      26.107   3.950  49.846  1.00  0.00     0.417 C 
HETATM   24  O3  UNL     1      27.200   3.876  49.316  1.00  0.00    -0.428 OA
ENDBRANCH  21  22
ENDBRANCH  17  21
ENDBRANCH   7   9
TORSDOF 4
ENDMDL
MODEL 6
REMARK VINA RESULT:      -7.7      2.375      5.233
REMARK  4 active torsions:
REMARK  status: ('A' for Active; 'I' for Inactive)
REMARK    1  A    between atoms: C7_7  and  C8_8 
REMARK    2  A    between atoms: C12_14  and  O1_15 
REMARK    3  A    between atoms: C14_17  and  O2_18 
REMARK    4  A    between atoms: O2_18  and  C15_19 
ROOT
HETATM    1  C1  UNL     1      29.183   5.370  48.159  1.00  0.00     0.018 C 
HETATM    2  C2  UNL     1      28.015   5.499  48.484  1.00  0.00    -0.078 C 
HETATM    3  C3  UNL     1      26.633   5.633  48.858  1.00  0.00     0.017 A 
HETATM    4  C4  UNL     1      26.054   6.857  49.086  1.00  0.00     0.020 A 
HETATM    5  C5  UNL     1      24.724   6.909  49.440  1.00  0.00     0.002 A 
HETATM    6  C6  UNL     1      24.042   5.715  49.547  1.00  0.00     0.014 A 
HETATM    7  C7  UNL     1      24.593   4.446  49.324  1.00  0.00    -0.005 A 
HETATM    8  C19 UNL     1      25.925   4.462  48.971  1.00  0.00     0.034 A 
ENDROOT
BRANCH   7   9
HETATM    9  C8  UNL     1      23.676   3.326  49.475  1.00  0.00     0.081 A 
HETATM   10  N1  UNL     1      22.895   3.137  48.369  1.00  0.00    -0.240 NA
HETATM   11  C9  UNL     1      21.984   2.154  48.314  1.00  0.00     0.234 A 
HETATM   12  N2  UNL     1      21.807   1.312  49.360  1.00  0.00    -0.241 NA
HETATM   13  C10 UNL     1      22.548   1.458  50.466  1.00  0.00     0.073 A 
HETATM   14  C11 UNL     1      22.444   0.659  51.596  1.00  0.00     0.072 A 
HETATM   15  C18 UNL     1      23.481   2.470  50.512  1.00  0.00     0.025 A 
HETATM   16  C12 UNL     1      23.250   0.885  52.714  1.00  0.00     0.103 A 
HETATM   17  C14 UNL     1      24.184   1.920  52.731  1.00  0.00     0.103 A 
HETATM   18  C17 UNL     1      24.276   2.704  51.600  1.00  0.00     0.055 A 
BRANCH  16  19
HETATM   19  O1  UNL     1      23.136   0.082  53.838  1.00  0.00    -0.353 OA
HETATM   20  C13 UNL     1      21.891  -0.182  54.427  1.00  0.00     0.210 C 
ENDBRANCH  16  19
BRANCH  17  21
HETATM   21  O2  UNL     1      24.976   2.130  53.852  1.00  0.00    -0.346 OA
BRANCH  21  22
HETATM   22  C15 UNL     1      26.355   1.831  53.759  1.00  0.00     0.212 C 
HETATM   23  C16 UNL     1      26.620   0.591  54.524  1.00  0.00     0.417 C 
HETATM   24  O3  UNL     1      26.972  -0.413  55.115  1.00  0.00    -0.428 OA
ENDBRANCH  21  22
ENDBRANCH  17  21
ENDBRANCH   7   9
TORSDOF 4
ENDMDL
MODEL 7
REMARK VINA RESULT:      -7.6      2.629      5.488
REMARK  4 active torsions:
REMARK  status: ('A' for Active; 'I' for Inactive)
REMARK    1  A    between atoms: C7_7  and  C8_8 
REMARK    2  A    between atoms: C12_14  and  O1_15 
REMARK    3  A    between atoms: C14_17  and  O2_18 
REMARK    4  A    between atoms: O2_18  and  C15_19 
ROOT
HETATM    1  C1  UNL     1      27.453   4.419  48.792  1.00  0.00     0.018 C 
HETATM    2  C2  UNL     1      26.483   4.853  49.387  1.00  0.00    -0.078 C 
HETATM    3  C3  UNL     1      25.327   5.349  50.084  1.00  0.00     0.017 A 
HETATM    4  C4  UNL     1      25.153   6.685  50.350  1.00  0.00     0.020 A 
HETATM    5  C5  UNL     1      24.020   7.088  51.022  1.00  0.00     0.002 A 
HETATM    6  C6  UNL     1      23.115   6.115  51.394  1.00  0.00     0.014 A 
HETATM    7  C7  UNL     1      23.253   4.744  51.143  1.00  0.00    -0.005 A 
HETATM    8  C19 UNL     1      24.406   4.406  50.467  1.00  0.00     0.034 A 
ENDROOT
BRANCH   7   9
HETATM    9  C8  UNL     1      22.161   3.905  51.611  1.00  0.00     0.081 A 
HETATM   10  N1  UNL     1      20.935   4.465  51.376  1.00  0.00    -0.240 NA
HETATM   11  C9  UNL     1      19.801   3.846  51.736  1.00  0.00     0.234 A 
HETATM   12  N2  UNL     1      19.834   2.638  52.349  1.00  0.00    -0.241 NA
HETATM   13  C10 UNL     1      21.010   2.050  52.601  1.00  0.00     0.073 A 
HETATM   14  C11 UNL     1      21.159   0.821  53.229  1.00  0.00     0.072 A 
HETATM   15  C18 UNL     1      22.169   2.694  52.227  1.00  0.00     0.025 A 
HETATM   16  C12 UNL     1      22.426   0.282  53.464  1.00  0.00     0.103 A 
HETATM   17  C14 UNL     1      23.581   0.960  53.074  1.00  0.00     0.103 A 
HETATM   18  C17 UNL     1      23.415   2.178  52.451  1.00  0.00     0.055 A 
BRANCH  16  19
HETATM   19  O1  UNL     1      22.563  -0.946  54.093  1.00  0.00    -0.353 OA
HETATM   20  C13 UNL     1      21.456  -1.772  54.335  1.00  0.00     0.210 C 
ENDBRANCH  16  19
BRANCH  17  21
HETATM   21  O2  UNL     1      24.831   0.407  53.317  1.00  0.00    -0.346 OA
BRANCH  21  22
HETATM   22  C15 UNL     1      25.824   1.234  53.892  1.00  0.00     0.212 C 
HETATM   23  C16 UNL     1      26.848   0.369  54.522  1.00  0.00     0.417 C 
HETATM   24  O3  UNL     1      27.755  -0.223  55.077  1.00  0.00    -0.428 OA
ENDBRANCH  21  22
ENDBRANCH  17  21
ENDBRANCH   7   9
TORSDOF 4
ENDMDL
MODEL 8
REMARK VINA RESULT:      -7.6      2.000      4.982
REMARK  4 active torsions:
REMARK  status: ('A' for Active; 'I' for Inactive)
REMARK    1  A    between atoms: C7_7  and  C8_8 
REMARK    2  A    between atoms: C12_14  and  O1_15 
REMARK    3  A    between atoms: C14_17  and  O2_18 
REMARK    4  A    between atoms: O2_18  and  C15_19 
ROOT
HETATM    1  C1  UNL     1      28.598   5.495  48.217  1.00  0.00     0.018 C 
HETATM    2  C2  UNL     1      27.586   5.029  48.711  1.00  0.00    -0.078 C 
HETATM    3  C3  UNL     1      26.401   4.460  49.296  1.00  0.00     0.017 A 
HETATM    4  C4  UNL     1      25.148   4.962  49.040  1.00  0.00     0.020 A 
HETATM    5  C5  UNL     1      24.058   4.366  49.636  1.00  0.00     0.002 A 
HETATM    6  C6  UNL     1      24.290   3.288  50.464  1.00  0.00     0.014 A 
HETATM    7  C7  UNL     1      25.550   2.745  50.752  1.00  0.00    -0.005 A 
HETATM    8  C19 UNL     1      26.597   3.384  50.125  1.00  0.00     0.034 A 
ENDROOT
BRANCH   7   9
HETATM    9  C8  UNL     1      25.550   1.592  51.639  1.00  0.00     0.081 A 
HETATM   10  N1  UNL     1      26.777   0.993  51.718  1.00  0.00    -0.240 NA
HETATM   11  C9  UNL     1      26.982  -0.089  52.484  1.00  0.00     0.234 A 
HETATM   12  N2  UNL     1      25.972  -0.626  53.209  1.00  0.00    -0.241 NA
HETATM   13  C10 UNL     1      24.753  -0.076  53.165  1.00  0.00     0.073 A 
HETATM   14  C11 UNL     1      23.647  -0.549  53.859  1.00  0.00     0.072 A 
HETATM   15  C18 UNL     1      24.552   1.035  52.375  1.00  0.00     0.025 A 
HETATM   16  C12 UNL     1      22.405   0.079  53.749  1.00  0.00     0.103 A 
HETATM   17  C14 UNL     1      22.235   1.201  52.939  1.00  0.00     0.103 A 
HETATM   18  C17 UNL     1      23.342   1.659  52.257  1.00  0.00     0.055 A 
BRANCH  16  19
HETATM   19  O1  UNL     1      21.308  -0.403  54.446  1.00  0.00    -0.353 OA
HETATM   20  C13 UNL     1      20.886  -1.734  54.317  1.00  0.00     0.210 C 
ENDBRANCH  16  19
BRANCH  17  21
HETATM   21  O2  UNL     1      20.992   1.812  52.843  1.00  0.00    -0.346 OA
BRANCH  21  22
HETATM   22  C15 UNL     1      20.272   1.671  51.633  1.00  0.00     0.212 C 
HETATM   23  C16 UNL     1      19.321   0.546  51.780  1.00  0.00     0.417 C 
HETATM   24  O3  UNL     1      18.500  -0.352  51.769  1.00  0.00    -0.428 OA
ENDBRANCH  21  22
ENDBRANCH  17  21
ENDBRANCH   7   9
TORSDOF 4
ENDMDL
MODEL 9
REMARK VINA RESULT:      -7.6      2.917      5.430
REMARK  4 active torsions:
REMARK  status: ('A' for Active; 'I' for Inactive)
REMARK    1  A    between atoms: C7_7  and  C8_8 
REMARK    2  A    between atoms: C12_14  and  O1_15 
REMARK    3  A    between atoms: C14_17  and  O2_18 
REMARK    4  A    between atoms: O2_18  and  C15_19 
ROOT
HETATM    1  C1  UNL     1      24.652   4.307  49.477  1.00  0.00     0.018 C 
HETATM    2  C2  UNL     1      24.998   3.411  50.226  1.00  0.00    -0.078 C 
HETATM    3  C3  UNL     1      25.390   2.356  51.122  1.00  0.00     0.017 A 
HETATM    4  C4  UNL     1      26.703   1.995  51.294  1.00  0.00     0.020 A 
HETATM    5  C5  UNL     1      27.004   0.975  52.169  1.00  0.00     0.002 A 
HETATM    6  C6  UNL     1      25.957   0.368  52.831  1.00  0.00     0.014 A 
HETATM    7  C7  UNL     1      24.604   0.705  52.686  1.00  0.00    -0.005 A 
HETATM    8  C19 UNL     1      24.370   1.732  51.798  1.00  0.00     0.034 A 
ENDROOT
BRANCH   7   9
HETATM    9  C8  UNL     1      23.674  -0.059  53.503  1.00  0.00     0.081 A 
HETATM   10  N1  UNL     1      24.292  -0.687  54.550  1.00  0.00    -0.240 NA
HETATM   11  C9  UNL     1      23.604  -1.443  55.418  1.00  0.00     0.234 A 
HETATM   12  N2  UNL     1      22.266  -1.610  55.285  1.00  0.00    -0.241 NA
HETATM   13  C10 UNL     1      21.617  -1.017  54.275  1.00  0.00     0.073 A 
HETATM   14  C11 UNL     1      20.254  -1.128  54.040  1.00  0.00     0.072 A 
HETATM   15  C18 UNL     1      22.333  -0.242  53.389  1.00  0.00     0.025 A 
HETATM   16  C12 UNL     1      19.655  -0.483  52.956  1.00  0.00     0.103 A 
HETATM   17  C14 UNL     1      20.408   0.293  52.075  1.00  0.00     0.103 A 
HETATM   18  C17 UNL     1      21.760   0.394  52.322  1.00  0.00     0.055 A 
BRANCH  16  19
HETATM   19  O1  UNL     1      18.293  -0.601  52.730  1.00  0.00    -0.353 OA
HETATM   20  C13 UNL     1      17.541  -1.632  53.312  1.00  0.00     0.210 C 
ENDBRANCH  16  19
BRANCH  17  21
HETATM   21  O2  UNL     1      19.795   0.927  51.002  1.00  0.00    -0.346 OA
BRANCH  21  22
HETATM   22  C15 UNL     1      20.559   1.846  50.246  1.00  0.00     0.212 C 
HETATM   23  C16 UNL     1      20.284   3.211  50.748  1.00  0.00     0.417 C 
HETATM   24  O3  UNL     1      20.148   4.379  51.063  1.00  0.00    -0.428 OA
ENDBRANCH  21  22
ENDBRANCH  17  21
ENDBRANCH   7   9
TORSDOF 4
ENDMDL
