MODEL 1
REMARK VINA RESULT:      -9.2      0.000      0.000
REMARK  4 active torsions:
REMARK  status: ('A' for Active; 'I' for Inactive)
REMARK    1  A    between atoms: C2_2  and  S1_3 
REMARK    2  A    between atoms: S1_3  and  C3_5 
REMARK    3  A    between atoms: C6_8  and  C7_9 
REMARK    4  A    between atoms: C12_15  and  C13_16 
ROOT
HETATM    1  C7  UNL     1      24.647   3.418  50.518  1.00  0.00     0.009 A 
HETATM    2  C8  UNL     1      23.268   3.523  50.504  1.00  0.00     0.155 A 
HETATM    3  O2  UNL     1      22.797   2.538  51.224  1.00  0.00    -0.321 OA
HETATM    4  C9  UNL     1      23.755   1.797  51.707  1.00  0.00     0.086 A 
HETATM    5  C10 UNL     1      23.771   0.671  52.503  1.00  0.00     0.039 A 
HETATM    6  C11 UNL     1      24.954   0.068  52.878  1.00  0.00     0.017 A 
HETATM    7  C12 UNL     1      26.186   0.569  52.469  1.00  0.00    -0.002 A 
HETATM    8  C18 UNL     1      26.130   1.690  51.676  1.00  0.00     0.029 A 
HETATM    9  C19 UNL     1      24.962   2.315  51.284  1.00  0.00     0.012 A 
ENDROOT
BRANCH   1  10
HETATM   10  C6  UNL     1      25.603   4.295  49.852  1.00  0.00    -0.023 A 
HETATM   11  C5  UNL     1      26.792   3.922  49.261  1.00  0.00     0.014 A 
HETATM   12  C4  UNL     1      27.617   4.849  48.661  1.00  0.00     0.022 A 
HETATM   13  C3  UNL     1      27.275   6.188  48.634  1.00  0.00     0.031 A 
HETATM   14  C21 UNL     1      26.086   6.569  49.225  1.00  0.00     0.022 A 
HETATM   15  C20 UNL     1      25.251   5.647  49.830  1.00  0.00     0.014 A 
BRANCH  13  16
HETATM   16  S1  UNL     1      28.422   7.260  47.834  1.00  0.00     0.049 S 
HETATM   17  O1  UNL     1      29.649   6.496  47.355  1.00  0.00    -0.253 OA
BRANCH  16  18
HETATM   18  C2  UNL     1      28.891   8.651  48.848  1.00  0.00     0.109 C 
HETATM   19  C1  UNL     1      30.402   8.660  48.991  1.00  0.00     0.019 C 
ENDBRANCH  16  18
ENDBRANCH  13  16
ENDBRANCH   1  10
BRANCH   7  20
HETATM   20  C13 UNL     1      27.432  -0.075  52.869  1.00  0.00     0.079 A 
HETATM   21  C14 UNL     1      27.648  -1.381  52.859  1.00  0.00     0.037 A 
HETATM   22  C15 UNL     1      28.913  -1.989  53.268  1.00  0.00     0.001 A 
HETATM   23  C16 UNL     1      29.885  -1.217  53.664  1.00  0.00    -0.000 A 
HETATM   24  C17 UNL     1      29.729   0.257  53.706  1.00  0.00     0.203 A 
HETATM   25  O3  UNL     1      28.479   0.719  53.294  1.00  0.00    -0.347 OA
ENDBRANCH   7  20
TORSDOF 4
ENDMDL
MODEL 2
REMARK VINA RESULT:      -9.2      1.138      1.565
REMARK  4 active torsions:
REMARK  status: ('A' for Active; 'I' for Inactive)
REMARK    1  A    between atoms: C2_2  and  S1_3 
REMARK    2  A    between atoms: S1_3  and  C3_5 
REMARK    3  A    between atoms: C6_8  and  C7_9 
REMARK    4  A    between atoms: C12_15  and  C13_16 
ROOT
HETATM    1  C7  UNL     1      25.379   4.537  49.436  1.00  0.00     0.009 A 
HETATM    2  C8  UNL     1      24.065   4.772  49.076  1.00  0.00     0.155 A 
HETATM    3  O2  UNL     1      23.332   3.867  49.671  1.00  0.00    -0.321 OA
HETATM    4  C9  UNL     1      24.059   3.060  50.391  1.00  0.00     0.086 A 
HETATM    5  C10 UNL     1      23.762   1.972  51.186  1.00  0.00     0.039 A 
HETATM    6  C11 UNL     1      24.747   1.276  51.855  1.00  0.00     0.017 A 
HETATM    7  C12 UNL     1      26.087   1.639  51.760  1.00  0.00    -0.002 A 
HETATM    8  C18 UNL     1      26.344   2.726  50.958  1.00  0.00     0.029 A 
HETATM    9  C19 UNL     1      25.380   3.442  50.276  1.00  0.00     0.012 A 
ENDROOT
BRANCH   1  10
HETATM   10  C6  UNL     1      26.555   5.290  49.016  1.00  0.00    -0.023 A 
HETATM   11  C5  UNL     1      27.763   4.770  48.599  1.00  0.00     0.014 A 
HETATM   12  C4  UNL     1      28.806   5.589  48.227  1.00  0.00     0.022 A 
HETATM   13  C3  UNL     1      28.673   6.965  48.260  1.00  0.00     0.031 A 
HETATM   14  C21 UNL     1      27.467   7.492  48.677  1.00  0.00     0.022 A 
HETATM   15  C20 UNL     1      26.413   6.680  49.053  1.00  0.00     0.014 A 
BRANCH  13  16
HETATM   16  S1  UNL     1      30.087   7.888  47.757  1.00  0.00     0.049 S 
HETATM   17  O1  UNL     1      30.949   7.092  46.786  1.00  0.00    -0.253 OA
BRANCH  16  18
HETATM   18  C2  UNL     1      31.054   8.477  49.135  1.00  0.00     0.109 C 
HETATM   19  C1  UNL     1      30.572   9.868  49.507  1.00  0.00     0.019 C 
ENDBRANCH  16  18
ENDBRANCH  13  16
ENDBRANCH   1  10
BRANCH   7  20
HETATM   20  C13 UNL     1      27.122   0.898  52.470  1.00  0.00     0.079 A 
HETATM   21  C14 UNL     1      27.202  -0.422  52.533  1.00  0.00     0.037 A 
HETATM   22  C15 UNL     1      28.257  -1.129  53.257  1.00  0.00     0.001 A 
HETATM   23  C16 UNL     1      29.171  -0.437  53.876  1.00  0.00    -0.000 A 
HETATM   24  C17 UNL     1      29.158   1.045  53.857  1.00  0.00     0.203 A 
HETATM   25  O3  UNL     1      28.103   1.606  53.135  1.00  0.00    -0.347 OA
ENDBRANCH   7  20
TORSDOF 4
ENDMDL
MODEL 3
REMARK VINA RESULT:      -8.9      3.279      6.208
REMARK  4 active torsions:
REMARK  status: ('A' for Active; 'I' for Inactive)
REMARK    1  A    between atoms: C2_2  and  S1_3 
REMARK    2  A    between atoms: S1_3  and  C3_5 
REMARK    3  A    between atoms: C6_8  and  C7_9 
REMARK    4  A    between atoms: C12_15  and  C13_16 
ROOT
HETATM    1  C7  UNL     1      25.128   0.456  53.568  1.00  0.00     0.009 A 
HETATM    2  C8  UNL     1      25.993  -0.059  54.515  1.00  0.00     0.155 A 
HETATM    3  O2  UNL     1      25.302  -0.873  55.270  1.00  0.00    -0.321 OA
HETATM    4  C9  UNL     1      24.055  -0.932  54.894  1.00  0.00     0.086 A 
HETATM    5  C10 UNL     1      22.959  -1.627  55.358  1.00  0.00     0.039 A 
HETATM    6  C11 UNL     1      21.720  -1.504  54.762  1.00  0.00     0.017 A 
HETATM    7  C12 UNL     1      21.521  -0.673  53.665  1.00  0.00    -0.002 A 
HETATM    8  C18 UNL     1      22.636   0.004  53.232  1.00  0.00     0.029 A 
HETATM    9  C19 UNL     1      23.887  -0.098  53.808  1.00  0.00     0.012 A 
ENDROOT
BRANCH   1  10
HETATM   10  C6  UNL     1      25.446   1.409  52.510  1.00  0.00    -0.023 A 
HETATM   11  C5  UNL     1      26.478   1.316  51.599  1.00  0.00     0.014 A 
HETATM   12  C4  UNL     1      26.678   2.286  50.641  1.00  0.00     0.022 A 
HETATM   13  C3  UNL     1      25.846   3.387  50.564  1.00  0.00     0.031 A 
HETATM   14  C21 UNL     1      24.811   3.487  51.472  1.00  0.00     0.022 A 
HETATM   15  C20 UNL     1      24.601   2.519  52.438  1.00  0.00     0.014 A 
BRANCH  13  16
HETATM   16  S1  UNL     1      26.219   4.547  49.290  1.00  0.00     0.049 S 
HETATM   17  O1  UNL     1      27.687   4.475  48.892  1.00  0.00    -0.253 OA
BRANCH  16  18
HETATM   18  C2  UNL     1      25.753   6.215  49.717  1.00  0.00     0.109 C 
HETATM   19  C1  UNL     1      25.713   7.048  48.448  1.00  0.00     0.019 C 
ENDBRANCH  16  18
ENDBRANCH  13  16
ENDBRANCH   1  10
BRANCH   7  20
HETATM   20  C13 UNL     1      20.209  -0.549  53.041  1.00  0.00     0.079 A 
HETATM   21  C14 UNL     1      19.941   0.199  51.982  1.00  0.00     0.037 A 
HETATM   22  C15 UNL     1      18.609   0.298  51.385  1.00  0.00     0.001 A 
HETATM   23  C16 UNL     1      17.629  -0.380  51.911  1.00  0.00    -0.000 A 
HETATM   24  C17 UNL     1      17.842  -1.242  53.099  1.00  0.00     0.203 A 
HETATM   25  O3  UNL     1      19.152  -1.255  53.579  1.00  0.00    -0.347 OA
ENDBRANCH   7  20
TORSDOF 4
ENDMDL
MODEL 4
REMARK VINA RESULT:      -8.9      4.229      5.600
REMARK  4 active torsions:
REMARK  status: ('A' for Active; 'I' for Inactive)
REMARK    1  A    between atoms: C2_2  and  S1_3 
REMARK    2  A    between atoms: S1_3  and  C3_5 
REMARK    3  A    between atoms: C6_8  and  C7_9 
REMARK    4  A    between atoms: C12_15  and  C13_16 
ROOT
HETATM    1  C7  UNL     1      21.568  -0.022  53.106  1.00  0.00     0.009 A 
HETATM    2  C8  UNL     1      20.595  -0.709  53.808  1.00  0.00     0.155 A 
HETATM    3  O2  UNL     1      21.192  -1.321  54.798  1.00  0.00    -0.321 OA
HETATM    4  C9  UNL     1      22.474  -1.092  54.800  1.00  0.00     0.086 A 
HETATM    5  C10 UNL     1      23.508  -1.500  55.616  1.00  0.00     0.039 A 
HETATM    6  C11 UNL     1      24.810  -1.101  55.389  1.00  0.00     0.017 A 
HETATM    7  C12 UNL     1      25.139  -0.267  54.325  1.00  0.00    -0.002 A 
HETATM    8  C18 UNL     1      24.083   0.117  53.533  1.00  0.00     0.029 A 
HETATM    9  C19 UNL     1      22.771  -0.266  53.735  1.00  0.00     0.012 A 
ENDROOT
BRANCH   1  10
HETATM   10  C6  UNL     1      21.379   0.805  51.919  1.00  0.00    -0.023 A 
HETATM   11  C5  UNL     1      21.418   0.385  50.606  1.00  0.00     0.014 A 
HETATM   12  C4  UNL     1      21.223   1.268  49.565  1.00  0.00     0.022 A 
HETATM   13  C3  UNL     1      20.983   2.607  49.808  1.00  0.00     0.031 A 
HETATM   14  C21 UNL     1      20.943   3.034  51.121  1.00  0.00     0.022 A 
HETATM   15  C20 UNL     1      21.136   2.158  52.172  1.00  0.00     0.014 A 
BRANCH  13  16
HETATM   16  S1  UNL     1      20.753   3.619  48.384  1.00  0.00     0.049 S 
HETATM   17  O1  UNL     1      19.866   2.930  47.355  1.00  0.00    -0.253 OA
BRANCH  16  18
HETATM   18  C2  UNL     1      22.293   4.141  47.652  1.00  0.00     0.109 C 
HETATM   19  C1  UNL     1      23.352   4.199  48.738  1.00  0.00     0.019 C 
ENDBRANCH  16  18
ENDBRANCH  13  16
ENDBRANCH   1  10
BRANCH   7  20
HETATM   20  C13 UNL     1      26.516   0.149  54.091  1.00  0.00     0.079 A 
HETATM   21  C14 UNL     1      26.906   1.398  53.889  1.00  0.00     0.037 A 
HETATM   22  C15 UNL     1      28.300   1.776  53.658  1.00  0.00     0.001 A 
HETATM   23  C16 UNL     1      29.213   0.847  53.648  1.00  0.00    -0.000 A 
HETATM   24  C17 UNL     1      28.863  -0.577  53.866  1.00  0.00     0.203 A 
HETATM   25  O3  UNL     1      27.504  -0.815  54.075  1.00  0.00    -0.347 OA
ENDBRANCH   7  20
TORSDOF 4
ENDMDL
MODEL 5
REMARK VINA RESULT:      -8.9      1.995      2.771
REMARK  4 active torsions:
REMARK  status: ('A' for Active; 'I' for Inactive)
REMARK    1  A    between atoms: C2_2  and  S1_3 
REMARK    2  A    between atoms: S1_3  and  C3_5 
REMARK    3  A    between atoms: C6_8  and  C7_9 
REMARK    4  A    between atoms: C12_15  and  C13_16 
ROOT
HETATM    1  C7  UNL     1      22.652   2.563  52.103  1.00  0.00     0.009 A 
HETATM    2  C8  UNL     1      21.311   2.300  52.312  1.00  0.00     0.155 A 
HETATM    3  O2  UNL     1      21.237   1.189  52.999  1.00  0.00    -0.321 OA
HETATM    4  C9  UNL     1      22.419   0.705  53.256  1.00  0.00     0.086 A 
HETATM    5  C10 UNL     1      22.858  -0.414  53.931  1.00  0.00     0.039 A 
HETATM    6  C11 UNL     1      24.201  -0.701  54.060  1.00  0.00     0.017 A 
HETATM    7  C12 UNL     1      25.177   0.129  53.515  1.00  0.00    -0.002 A 
HETATM    8  C18 UNL     1      24.701   1.234  52.849  1.00  0.00     0.029 A 
HETATM    9  C19 UNL     1      23.363   1.546  52.704  1.00  0.00     0.012 A 
ENDROOT
BRANCH   1  10
HETATM   10  C6  UNL     1      23.225   3.696  51.383  1.00  0.00    -0.023 A 
HETATM   11  C5  UNL     1      23.536   4.933  51.907  1.00  0.00     0.014 A 
HETATM   12  C4  UNL     1      24.076   5.929  51.121  1.00  0.00     0.022 A 
HETATM   13  C3  UNL     1      24.321   5.716  49.778  1.00  0.00     0.031 A 
HETATM   14  C21 UNL     1      24.011   4.479  49.247  1.00  0.00     0.022 A 
HETATM   15  C20 UNL     1      23.470   3.473  50.026  1.00  0.00     0.014 A 
BRANCH  13  16
HETATM   16  S1  UNL     1      25.013   7.075  48.896  1.00  0.00     0.049 S 
HETATM   17  O1  UNL     1      24.538   7.094  47.449  1.00  0.00    -0.253 OA
BRANCH  16  18
HETATM   18  C2  UNL     1      26.794   7.122  48.984  1.00  0.00     0.109 C 
HETATM   19  C1  UNL     1      27.338   5.779  48.528  1.00  0.00     0.019 C 
ENDBRANCH  16  18
ENDBRANCH  13  16
ENDBRANCH   1  10
BRANCH   7  20
HETATM   20  C13 UNL     1      26.594  -0.180  53.655  1.00  0.00     0.079 A 
HETATM   21  C14 UNL     1      27.243  -1.099  52.955  1.00  0.00     0.037 A 
HETATM   22  C15 UNL     1      28.668  -1.380  53.126  1.00  0.00     0.001 A 
HETATM   23  C16 UNL     1      29.345  -0.699  54.007  1.00  0.00    -0.000 A 
HETATM   24  C17 UNL     1      28.697   0.347  54.833  1.00  0.00     0.203 A 
HETATM   25  O3  UNL     1      27.336   0.525  54.582  1.00  0.00    -0.347 OA
ENDBRANCH   7  20
TORSDOF 4
ENDMDL
MODEL 6
REMARK VINA RESULT:      -8.4      4.254      8.487
REMARK  4 active torsions:
REMARK  status: ('A' for Active; 'I' for Inactive)
REMARK    1  A    between atoms: C2_2  and  S1_3 
REMARK    2  A    between atoms: S1_3  and  C3_5 
REMARK    3  A    between atoms: C6_8  and  C7_9 
REMARK    4  A    between atoms: C12_15  and  C13_16 
ROOT
HETATM    1  C7  UNL     1      23.454  -0.187  53.388  1.00  0.00     0.009 A 
HETATM    2  C8  UNL     1      23.983  -1.039  54.339  1.00  0.00     0.155 A 
HETATM    3  O2  UNL     1      25.258  -0.764  54.438  1.00  0.00    -0.321 OA
HETATM    4  C9  UNL     1      25.605   0.198  53.630  1.00  0.00     0.086 A 
HETATM    5  C10 UNL     1      26.803   0.830  53.371  1.00  0.00     0.039 A 
HETATM    6  C11 UNL     1      26.897   1.845  52.441  1.00  0.00     0.017 A 
HETATM    7  C12 UNL     1      25.787   2.279  51.722  1.00  0.00    -0.002 A 
HETATM    8  C18 UNL     1      24.612   1.624  52.008  1.00  0.00     0.029 A 
HETATM    9  C19 UNL     1      24.487   0.605  52.932  1.00  0.00     0.012 A 
ENDROOT
BRANCH   1  10
HETATM   10  C6  UNL     1      22.068  -0.123  52.937  1.00  0.00    -0.023 A 
HETATM   11  C5  UNL     1      21.624   0.236  51.681  1.00  0.00     0.014 A 
HETATM   12  C4  UNL     1      20.281   0.259  51.374  1.00  0.00     0.022 A 
HETATM   13  C3  UNL     1      19.333  -0.077  52.322  1.00  0.00     0.031 A 
HETATM   14  C21 UNL     1      19.769  -0.436  53.582  1.00  0.00     0.022 A 
HETATM   15  C20 UNL     1      21.115  -0.463  53.900  1.00  0.00     0.014 A 
BRANCH  13  16
HETATM   16  S1  UNL     1      17.654  -0.003  51.791  1.00  0.00     0.049 S 
HETATM   17  O1  UNL     1      16.894  -1.262  52.189  1.00  0.00    -0.253 OA
BRANCH  16  18
HETATM   18  C2  UNL     1      17.495   0.313  50.043  1.00  0.00     0.109 C 
HETATM   19  C1  UNL     1      16.368  -0.544  49.495  1.00  0.00     0.019 C 
ENDBRANCH  16  18
ENDBRANCH  13  16
ENDBRANCH   1  10
BRANCH   7  20
HETATM   20  C13 UNL     1      25.895   3.351  50.742  1.00  0.00     0.079 A 
HETATM   21  C14 UNL     1      26.871   3.473  49.856  1.00  0.00     0.037 A 
HETATM   22  C15 UNL     1      26.944   4.566  48.886  1.00  0.00     0.001 A 
HETATM   23  C16 UNL     1      26.008   5.472  48.884  1.00  0.00    -0.000 A 
HETATM   24  C17 UNL     1      24.878   5.411  49.842  1.00  0.00     0.203 A 
HETATM   25  O3  UNL     1      24.917   4.325  50.717  1.00  0.00    -0.347 OA
ENDBRANCH   7  20
TORSDOF 4
ENDMDL
MODEL 7
REMARK VINA RESULT:      -8.3      2.929      5.477
REMARK  4 active torsions:
REMARK  status: ('A' for Active; 'I' for Inactive)
REMARK    1  A    between atoms: C2_2  and  S1_3 
REMARK    2  A    between atoms: S1_3  and  C3_5 
REMARK    3  A    between atoms: C6_8  and  C7_9 
REMARK    4  A    between atoms: C12_15  and  C13_16 
ROOT
HETATM    1  C7  UNL     1      27.972   6.778  47.994  1.00  0.00     0.009 A 
HETATM    2  C8  UNL     1      27.392   7.834  47.317  1.00  0.00     0.155 A 
HETATM    3  O2  UNL     1      26.096   7.720  47.458  1.00  0.00    -0.321 OA
HETATM    4  C9  UNL     1      25.782   6.676  48.171  1.00  0.00     0.086 A 
HETATM    5  C10 UNL     1      24.582   6.140  48.589  1.00  0.00     0.039 A 
HETATM    6  C11 UNL     1      24.530   4.994  49.357  1.00  0.00     0.017 A 
HETATM    7  C12 UNL     1      25.687   4.327  49.746  1.00  0.00    -0.002 A 
HETATM    8  C18 UNL     1      26.863   4.890  49.310  1.00  0.00     0.029 A 
HETATM    9  C19 UNL     1      26.947   6.034  48.541  1.00  0.00     0.012 A 
ENDROOT
BRANCH   1  10
HETATM   10  C6  UNL     1      29.396   6.487  48.117  1.00  0.00    -0.023 A 
HETATM   11  C5  UNL     1      30.027   5.303  47.795  1.00  0.00     0.014 A 
HETATM   12  C4  UNL     1      31.387   5.148  47.957  1.00  0.00     0.022 A 
HETATM   13  C3  UNL     1      32.163   6.180  48.450  1.00  0.00     0.031 A 
HETATM   14  C21 UNL     1      31.538   7.368  48.774  1.00  0.00     0.022 A 
HETATM   15  C20 UNL     1      30.174   7.534  48.616  1.00  0.00     0.014 A 
BRANCH  13  16
HETATM   16  S1  UNL     1      33.885   5.842  48.604  1.00  0.00     0.049 S 
HETATM   17  O1  UNL     1      34.691   7.128  48.726  1.00  0.00    -0.253 OA
BRANCH  16  18
HETATM   18  C2  UNL     1      34.510   4.820  47.282  1.00  0.00     0.109 C 
HETATM   19  C1  UNL     1      34.756   3.422  47.823  1.00  0.00     0.019 C 
ENDBRANCH  16  18
ENDBRANCH  13  16
ENDBRANCH   1  10
BRANCH   7  20
HETATM   20  C13 UNL     1      25.624   3.118  50.557  1.00  0.00     0.079 A 
HETATM   21  C14 UNL     1      26.674   2.427  50.972  1.00  0.00     0.037 A 
HETATM   22  C15 UNL     1      26.569   1.216  51.786  1.00  0.00     0.001 A 
HETATM   23  C16 UNL     1      25.387   0.785  52.127  1.00  0.00    -0.000 A 
HETATM   24  C17 UNL     1      24.158   1.499  51.705  1.00  0.00     0.203 A 
HETATM   25  O3  UNL     1      24.385   2.638  50.933  1.00  0.00    -0.347 OA
ENDBRANCH   7  20
TORSDOF 4
ENDMDL
MODEL 8
REMARK VINA RESULT:      -8.3      4.799      7.989
REMARK  4 active torsions:
REMARK  status: ('A' for Active; 'I' for Inactive)
REMARK    1  A    between atoms: C2_2  and  S1_3 
REMARK    2  A    between atoms: S1_3  and  C3_5 
REMARK    3  A    between atoms: C6_8  and  C7_9 
REMARK    4  A    between atoms: C12_15  and  C13_16 
ROOT
HETATM    1  C7  UNL     1      21.901  -0.196  53.311  1.00  0.00     0.009 A 
HETATM    2  C8  UNL     1      21.046  -0.869  54.164  1.00  0.00     0.155 A 
HETATM    3  O2  UNL     1      19.858  -0.850  53.616  1.00  0.00    -0.321 OA
HETATM    4  C9  UNL     1      19.867  -0.219  52.475  1.00  0.00     0.086 A 
HETATM    5  C10 UNL     1      18.892   0.064  51.542  1.00  0.00     0.039 A 
HETATM    6  C11 UNL     1      19.177   0.767  50.390  1.00  0.00     0.017 A 
HETATM    7  C12 UNL     1      20.463   1.223  50.115  1.00  0.00    -0.002 A 
HETATM    8  C18 UNL     1      21.407   0.923  51.069  1.00  0.00     0.029 A 
HETATM    9  C19 UNL     1      21.151   0.222  52.231  1.00  0.00     0.012 A 
ENDROOT
BRANCH   1  10
HETATM   10  C6  UNL     1      23.328   0.039  53.501  1.00  0.00    -0.023 A 
HETATM   11  C5  UNL     1      24.103   0.976  52.850  1.00  0.00     0.014 A 
HETATM   12  C4  UNL     1      25.449   1.103  53.117  1.00  0.00     0.022 A 
HETATM   13  C3  UNL     1      26.066   0.291  54.050  1.00  0.00     0.031 A 
HETATM   14  C21 UNL     1      25.296  -0.650  54.705  1.00  0.00     0.022 A 
HETATM   15  C20 UNL     1      23.944  -0.786  54.446  1.00  0.00     0.014 A 
BRANCH  13  16
HETATM   16  S1  UNL     1      27.790   0.564  54.290  1.00  0.00     0.049 S 
HETATM   17  O1  UNL     1      28.099   2.048  54.432  1.00  0.00    -0.253 OA
BRANCH  16  18
HETATM   18  C2  UNL     1      28.791  -0.177  53.012  1.00  0.00     0.109 C 
HETATM   19  C1  UNL     1      29.279  -1.529  53.501  1.00  0.00     0.019 C 
ENDBRANCH  16  18
ENDBRANCH  13  16
ENDBRANCH   1  10
BRANCH   7  20
HETATM   20  C13 UNL     1      20.756   1.965  48.896  1.00  0.00     0.079 A 
HETATM   21  C14 UNL     1      21.960   2.101  48.361  1.00  0.00     0.037 A 
HETATM   22  C15 UNL     1      22.213   2.855  47.134  1.00  0.00     0.001 A 
HETATM   23  C16 UNL     1      21.213   3.427  46.526  1.00  0.00    -0.000 A 
HETATM   24  C17 UNL     1      19.832   3.325  47.056  1.00  0.00     0.203 A 
HETATM   25  O3  UNL     1      19.715   2.582  48.231  1.00  0.00    -0.347 OA
ENDBRANCH   7  20
TORSDOF 4
ENDMDL
MODEL 9
REMARK VINA RESULT:      -8.2      3.625      7.562
REMARK  4 active torsions:
REMARK  status: ('A' for Active; 'I' for Inactive)
REMARK    1  A    between atoms: C2_2  and  S1_3 
REMARK    2  A    between atoms: S1_3  and  C3_5 
REMARK    3  A    between atoms: C6_8  and  C7_9 
REMARK    4  A    between atoms: C12_15  and  C13_16 
ROOT
HETATM    1  C7  UNL     1      27.583   6.621  48.091  1.00  0.00     0.009 A 
HETATM    2  C8  UNL     1      27.057   7.810  47.623  1.00  0.00     0.155 A 
HETATM    3  O2  UNL     1      28.016   8.436  46.990  1.00  0.00    -0.321 OA
HETATM    4  C9  UNL     1      29.125   7.753  47.007  1.00  0.00     0.086 A 
HETATM    5  C10 UNL     1      30.384   7.980  46.493  1.00  0.00     0.039 A 
HETATM    6  C11 UNL     1      31.408   7.070  46.658  1.00  0.00     0.017 A 
HETATM    7  C12 UNL     1      31.216   5.878  47.351  1.00  0.00    -0.002 A 
HETATM    8  C18 UNL     1      29.949   5.688  47.850  1.00  0.00     0.029 A 
HETATM    9  C19 UNL     1      28.906   6.581  47.701  1.00  0.00     0.012 A 
ENDROOT
BRANCH   1  10
HETATM   10  C6  UNL     1      26.889   5.592  48.857  1.00  0.00    -0.023 A 
HETATM   11  C5  UNL     1      27.228   4.257  48.943  1.00  0.00     0.014 A 
HETATM   12  C4  UNL     1      26.488   3.377  49.703  1.00  0.00     0.022 A 
HETATM   13  C3  UNL     1      25.379   3.808  50.406  1.00  0.00     0.031 A 
HETATM   14  C21 UNL     1      25.034   5.142  50.324  1.00  0.00     0.022 A 
HETATM   15  C20 UNL     1      25.768   6.034  49.565  1.00  0.00     0.014 A 
BRANCH  13  16
HETATM   16  S1  UNL     1      24.530   2.575  51.335  1.00  0.00     0.049 S 
HETATM   17  O1  UNL     1      25.455   1.420  51.695  1.00  0.00    -0.253 OA
BRANCH  16  18
HETATM   18  C2  UNL     1      23.059   1.984  50.517  1.00  0.00     0.109 C 
HETATM   19  C1  UNL     1      22.971   2.634  49.147  1.00  0.00     0.019 C 
ENDBRANCH  16  18
ENDBRANCH  13  16
ENDBRANCH   1  10
BRANCH   7  20
HETATM   20  C13 UNL     1      32.302   4.922  47.522  1.00  0.00     0.079 A 
HETATM   21  C14 UNL     1      32.209   3.620  47.296  1.00  0.00     0.037 A 
HETATM   22  C15 UNL     1      33.324   2.692  47.478  1.00  0.00     0.001 A 
HETATM   23  C16 UNL     1      34.472   3.155  47.884  1.00  0.00    -0.000 A 
HETATM   24  C17 UNL     1      34.663   4.599  48.160  1.00  0.00     0.203 A 
HETATM   25  O3  UNL     1      33.530   5.385  47.951  1.00  0.00    -0.347 OA
ENDBRANCH   7  20
TORSDOF 4
ENDMDL
