MODEL 1
REMARK VINA RESULT:      -8.6      0.000      0.000
REMARK  6 active torsions:
REMARK  status: ('A' for Active; 'I' for Inactive)
REMARK    1  A    between atoms: C2_2  and  C3_3 
REMARK    2  A    between atoms: C3_3  and  C4_4 
REMARK    3  A    between atoms: C4_4  and  N1_5 
REMARK    4  A    between atoms: C11_13  and  N2_14 
REMARK    5  A    between atoms: N2_14  and  C12_15 
REMARK    6  A    between atoms: C21_29  and  C22_30 
ROOT
HETATM    1  N1  UNL     1      26.559   0.568  53.378  1.00  0.00     0.104 N 
HETATM    2  C5  UNL     1      26.602   0.366  51.938  1.00  0.00     0.366 C 
HETATM    3  C6  UNL     1      26.593   1.534  51.173  1.00  0.00    -0.068 C 
HETATM    4  C7  UNL     1      26.567   2.490  50.553  1.00  0.00    -0.020 C 
HETATM    5  C8  UNL     1      26.515   3.666  49.808  1.00  0.00     0.253 C 
HETATM    6  O1  UNL     1      27.446   4.277  49.263  1.00  0.00    -0.276 OA
HETATM    7  C9  UNL     1      25.130   4.103  49.759  1.00  0.00     0.115 C 
HETATM    8  C10 UNL     1      24.032   3.768  49.115  1.00  0.00     0.062 C 
HETATM    9  C11 UNL     1      22.732   3.821  49.849  1.00  0.00     0.119 C 
HETATM   10  C18 UNL     1      22.608   4.971  50.797  1.00  0.00     0.104 C 
HETATM   11  C19 UNL     1      23.859   5.756  50.852  1.00  0.00     0.095 C 
HETATM   12  N3  UNL     1      25.004   5.158  50.669  1.00  0.00    -0.261 NA
HETATM   13  N4  UNL     1      22.716   2.596  50.638  1.00  0.00    -0.393 NA
HETATM   14  C20 UNL     1      23.389   2.452  51.699  1.00  0.00     0.439 C 
HETATM   15  N5  UNL     1      23.322   1.226  52.415  1.00  0.00    -0.265 NA
HETATM   16  C21 UNL     1      24.206   0.810  53.254  1.00  0.00     0.037 C 
HETATM   17  C24 UNL     1      25.462   1.468  53.682  1.00  0.00     0.327 C 
ENDROOT
BRANCH   9  18
HETATM   18  N2  UNL     1      21.642   3.792  48.888  1.00  0.00    -0.361 N 
HETATM   19  H13 UNL     1      20.728   3.355  49.219  1.00  0.00     0.162 HD
BRANCH  18  20
HETATM   20  C12 UNL     1      21.656   4.275  47.578  1.00  0.00     0.031 A 
HETATM   21  C13 UNL     1      21.701   3.501  46.440  1.00  0.00     0.032 A 
HETATM   22  C14 UNL     1      21.720   3.950  45.138  1.00  0.00     0.046 A 
HETATM   23  C15 UNL     1      21.692   5.327  44.949  1.00  0.00     0.138 A 
HETATM   24  F1  UNL     1      21.707   5.875  43.720  1.00  0.00    -0.204 F 
HETATM   25  C16 UNL     1      21.646   6.163  46.040  1.00  0.00     0.074 A 
HETATM   26 CL1  UNL     1      21.611   7.882  45.811  1.00  0.00    -0.081 Cl
HETATM   27  C17 UNL     1      21.629   5.626  47.308  1.00  0.00     0.056 A 
ENDBRANCH  18  20
ENDBRANCH   9  18
BRANCH  16  28
HETATM   28  C22 UNL     1      23.991  -0.490  53.918  1.00  0.00     0.051 C 
HETATM   29  C23 UNL     1      22.506  -0.811  54.037  1.00  0.00     0.011 C 
ENDBRANCH  16  28
BRANCH   1  30
HETATM   30  C4  UNL     1      27.838   1.141  53.733  1.00  0.00     0.274 C 
BRANCH  30  31
HETATM   31  C3  UNL     1      28.683   0.277  54.618  1.00  0.00     0.030 C 
BRANCH  31  32
HETATM   32  C2  UNL     1      29.762  -0.351  53.742  1.00  0.00    -0.003 C 
HETATM   33  C1  UNL     1      29.403  -1.747  53.331  1.00  0.00     0.005 C 
ENDBRANCH  31  32
ENDBRANCH  30  31
ENDBRANCH   1  30
TORSDOF 6
ENDMDL
MODEL 2
REMARK VINA RESULT:      -8.5      2.926      3.329
REMARK  6 active torsions:
REMARK  status: ('A' for Active; 'I' for Inactive)
REMARK    1  A    between atoms: C2_2  and  C3_3 
REMARK    2  A    between atoms: C3_3  and  C4_4 
REMARK    3  A    between atoms: C4_4  and  N1_5 
REMARK    4  A    between atoms: C11_13  and  N2_14 
REMARK    5  A    between atoms: N2_14  and  C12_15 
REMARK    6  A    between atoms: C21_29  and  C22_30 
ROOT
HETATM    1  N1  UNL     1      26.666   0.551  53.381  1.00  0.00     0.104 N 
HETATM    2  C5  UNL     1      26.630   0.328  51.944  1.00  0.00     0.366 C 
HETATM    3  C6  UNL     1      26.575   1.485  51.163  1.00  0.00    -0.068 C 
HETATM    4  C7  UNL     1      26.513   2.432  50.532  1.00  0.00    -0.020 C 
HETATM    5  C8  UNL     1      26.416   3.597  49.775  1.00  0.00     0.253 C 
HETATM    6  O1  UNL     1      27.313   4.203  49.170  1.00  0.00    -0.276 OA
HETATM    7  C9  UNL     1      25.029   4.030  49.796  1.00  0.00     0.115 C 
HETATM    8  C10 UNL     1      23.898   3.683  49.218  1.00  0.00     0.062 C 
HETATM    9  C11 UNL     1      22.640   3.744  50.022  1.00  0.00     0.119 C 
HETATM   10  C18 UNL     1      22.565   4.907  50.959  1.00  0.00     0.104 C 
HETATM   11  C19 UNL     1      23.815   5.695  50.934  1.00  0.00     0.095 C 
HETATM   12  N3  UNL     1      24.949   5.097  50.697  1.00  0.00    -0.261 NA
HETATM   13  N4  UNL     1      22.672   2.530  50.828  1.00  0.00    -0.393 NA
HETATM   14  C20 UNL     1      23.402   2.403  51.852  1.00  0.00     0.439 C 
HETATM   15  N5  UNL     1      23.379   1.187  52.587  1.00  0.00    -0.265 NA
HETATM   16  C21 UNL     1      24.309   0.786  53.383  1.00  0.00     0.037 C 
HETATM   17  C24 UNL     1      25.584   1.452  53.732  1.00  0.00     0.327 C 
ENDROOT
BRANCH   9  18
HETATM   18  N2  UNL     1      21.499   3.698  49.123  1.00  0.00    -0.361 N 
HETATM   19  H13 UNL     1      21.705   3.838  48.086  1.00  0.00     0.162 HD
BRANCH  18  20
HETATM   20  C12 UNL     1      20.161   3.488  49.463  1.00  0.00     0.031 A 
HETATM   21  C13 UNL     1      19.241   4.475  49.738  1.00  0.00     0.032 A 
HETATM   22  C14 UNL     1      17.919   4.296  50.081  1.00  0.00     0.046 A 
HETATM   23  C15 UNL     1      17.462   2.985  50.156  1.00  0.00     0.138 A 
HETATM   24  F1  UNL     1      16.189   2.694  50.482  1.00  0.00    -0.204 F 
HETATM   25  C16 UNL     1      18.325   1.947  49.893  1.00  0.00     0.074 A 
HETATM   26 CL1  UNL     1      17.762   0.309  49.987  1.00  0.00    -0.081 Cl
HETATM   27  C17 UNL     1      19.633   2.219  49.558  1.00  0.00     0.056 A 
ENDBRANCH  18  20
ENDBRANCH   9  18
BRANCH  16  28
HETATM   28  C22 UNL     1      24.135  -0.506  54.076  1.00  0.00     0.051 C 
HETATM   29  C23 UNL     1      22.660  -0.858  54.227  1.00  0.00     0.011 C 
ENDBRANCH  16  28
BRANCH   1  30
HETATM   30  C4  UNL     1      27.960   1.132  53.656  1.00  0.00     0.274 C 
BRANCH  30  31
HETATM   31  C3  UNL     1      28.841   0.300  54.539  1.00  0.00     0.030 C 
BRANCH  31  32
HETATM   32  C2  UNL     1      29.852  -0.402  53.638  1.00  0.00    -0.003 C 
HETATM   33  C1  UNL     1      29.444  -1.812  53.337  1.00  0.00     0.005 C 
ENDBRANCH  31  32
ENDBRANCH  30  31
ENDBRANCH   1  30
TORSDOF 6
ENDMDL
MODEL 3
REMARK VINA RESULT:      -8.3      4.272      8.253
REMARK  6 active torsions:
REMARK  status: ('A' for Active; 'I' for Inactive)
REMARK    1  A    between atoms: C2_2  and  C3_3 
REMARK    2  A    between atoms: C3_3  and  C4_4 
REMARK    3  A    between atoms: C4_4  and  N1_5 
REMARK    4  A    between atoms: C11_13  and  N2_14 
REMARK    5  A    between atoms: N2_14  and  C12_15 
REMARK    6  A    between atoms: C21_29  and  C22_30 
ROOT
HETATM    1  N1  UNL     1      19.467   3.497  49.758  1.00  0.00     0.104 N 
HETATM    2  C5  UNL     1      19.733   3.928  51.122  1.00  0.00     0.366 C 
HETATM    3  C6  UNL     1      21.021   4.416  51.352  1.00  0.00    -0.068 C 
HETATM    4  C7  UNL     1      22.079   4.798  51.537  1.00  0.00    -0.020 C 
HETATM    5  C8  UNL     1      23.382   5.242  51.754  1.00  0.00     0.253 C 
HETATM    6  O1  UNL     1      23.800   6.407  51.819  1.00  0.00    -0.276 OA
HETATM    7  C9  UNL     1      24.233   4.074  51.899  1.00  0.00     0.115 C 
HETATM    8  C10 UNL     1      24.496   3.176  52.826  1.00  0.00     0.062 C 
HETATM    9  C11 UNL     1      24.729   1.763  52.402  1.00  0.00     0.119 C 
HETATM   10  C18 UNL     1      25.490   1.622  51.123  1.00  0.00     0.104 C 
HETATM   11  C19 UNL     1      25.768   2.941  50.517  1.00  0.00     0.095 C 
HETATM   12  N3  UNL     1      24.923   3.920  50.691  1.00  0.00    -0.261 NA
HETATM   13  N4  UNL     1      23.390   1.232  52.179  1.00  0.00    -0.393 NA
HETATM   14  C20 UNL     1      22.706   1.500  51.150  1.00  0.00     0.439 C 
HETATM   15  N5  UNL     1      21.406   0.943  51.003  1.00  0.00    -0.265 NA
HETATM   16  C21 UNL     1      20.482   1.412  50.239  1.00  0.00     0.037 C 
HETATM   17  C24 UNL     1      20.526   2.594  49.348  1.00  0.00     0.327 C 
ENDROOT
BRANCH   9  18
HETATM   18  N2  UNL     1      25.362   1.039  53.492  1.00  0.00    -0.361 N 
HETATM   19  H13 UNL     1      24.743   0.800  54.326  1.00  0.00     0.162 HD
BRANCH  18  20
HETATM   20  C12 UNL     1      26.691   0.618  53.569  1.00  0.00     0.031 A 
HETATM   21  C13 UNL     1      27.765   1.413  53.901  1.00  0.00     0.032 A 
HETATM   22  C14 UNL     1      29.084   1.025  53.979  1.00  0.00     0.046 A 
HETATM   23  C15 UNL     1      29.365  -0.306  53.695  1.00  0.00     0.138 A 
HETATM   24  F1  UNL     1      30.619  -0.793  53.741  1.00  0.00    -0.204 F 
HETATM   25  C16 UNL     1      28.342  -1.160  53.355  1.00  0.00     0.074 A 
HETATM   26 CL1  UNL     1      28.685  -2.822  52.997  1.00  0.00    -0.081 Cl
HETATM   27  C17 UNL     1      27.050  -0.685  53.301  1.00  0.00     0.056 A 
ENDBRANCH  18  20
ENDBRANCH   9  18
BRANCH  16  28
HETATM   28  C22 UNL     1      19.181   0.717  50.197  1.00  0.00     0.051 C 
HETATM   29  C23 UNL     1      18.847   0.089  51.545  1.00  0.00     0.011 C 
ENDBRANCH  16  28
BRANCH   1  30
HETATM   30  C4  UNL     1      19.451   4.704  48.962  1.00  0.00     0.274 C 
BRANCH  30  31
HETATM   31  C3  UNL     1      20.248   4.625  47.696  1.00  0.00     0.030 C 
BRANCH  31  32
HETATM   32  C2  UNL     1      21.244   5.780  47.714  1.00  0.00    -0.003 C 
HETATM   33  C1  UNL     1      22.653   5.297  47.886  1.00  0.00     0.005 C 
ENDBRANCH  31  32
ENDBRANCH  30  31
ENDBRANCH   1  30
TORSDOF 6
ENDMDL
MODEL 4
REMARK VINA RESULT:      -8.0      6.555      9.867
REMARK  6 active torsions:
REMARK  status: ('A' for Active; 'I' for Inactive)
REMARK    1  A    between atoms: C2_2  and  C3_3 
REMARK    2  A    between atoms: C3_3  and  C4_4 
REMARK    3  A    between atoms: C4_4  and  N1_5 
REMARK    4  A    between atoms: C11_13  and  N2_14 
REMARK    5  A    between atoms: N2_14  and  C12_15 
REMARK    6  A    between atoms: C21_29  and  C22_30 
ROOT
HETATM    1  N1  UNL     1      24.991   7.492  49.288  1.00  0.00     0.104 N 
HETATM    2  C5  UNL     1      25.929   7.844  50.343  1.00  0.00     0.366 C 
HETATM    3  C6  UNL     1      27.022   8.611  49.936  1.00  0.00    -0.068 C 
HETATM    4  C7  UNL     1      27.922   9.222  49.595  1.00  0.00    -0.020 C 
HETATM    5  C8  UNL     1      29.026   9.951  49.159  1.00  0.00     0.253 C 
HETATM    6  O1  UNL     1      29.226  11.172  49.239  1.00  0.00    -0.276 OA
HETATM    7  C9  UNL     1      29.967   9.021  48.559  1.00  0.00     0.115 C 
HETATM    8  C10 UNL     1      30.847   8.132  48.972  1.00  0.00     0.062 C 
HETATM    9  C11 UNL     1      30.999   6.866  48.194  1.00  0.00     0.119 C 
HETATM   10  C18 UNL     1      30.891   7.039  46.712  1.00  0.00     0.104 C 
HETATM   11  C19 UNL     1      30.568   8.437  46.358  1.00  0.00     0.095 C 
HETATM   12  N3  UNL     1      29.846   9.157  47.172  1.00  0.00    -0.261 NA
HETATM   13  N4  UNL     1      29.875   6.045  48.624  1.00  0.00    -0.393 NA
HETATM   14  C20 UNL     1      28.691   6.232  48.221  1.00  0.00     0.439 C 
HETATM   15  N5  UNL     1      27.646   5.389  48.686  1.00  0.00    -0.265 NA
HETATM   16  C21 UNL     1      26.393   5.686  48.671  1.00  0.00     0.037 C 
HETATM   17  C24 UNL     1      25.737   6.921  48.183  1.00  0.00     0.327 C 
ENDROOT
BRANCH   9  18
HETATM   18  N2  UNL     1      32.244   6.221  48.575  1.00  0.00    -0.361 N 
HETATM   19  H13 UNL     1      32.652   6.497  49.520  1.00  0.00     0.162 HD
BRANCH  18  20
HETATM   20  C12 UNL     1      32.967   5.277  47.843  1.00  0.00     0.031 A 
HETATM   21  C13 UNL     1      34.132   5.521  47.151  1.00  0.00     0.032 A 
HETATM   22  C14 UNL     1      34.861   4.612  46.418  1.00  0.00     0.046 A 
HETATM   23  C15 UNL     1      34.374   3.310  46.369  1.00  0.00     0.138 A 
HETATM   24  F1  UNL     1      35.007   2.341  45.683  1.00  0.00    -0.204 F 
HETATM   25  C16 UNL     1      33.215   2.992  47.037  1.00  0.00     0.074 A 
HETATM   26 CL1  UNL     1      32.601   1.371  46.980  1.00  0.00    -0.081 Cl
HETATM   27  C17 UNL     1      32.550   3.967  47.746  1.00  0.00     0.056 A 
ENDBRANCH  18  20
ENDBRANCH   9  18
BRANCH  16  28
HETATM   28  C22 UNL     1      25.428   4.698  49.192  1.00  0.00     0.051 C 
HETATM   29  C23 UNL     1      26.135   3.442  49.686  1.00  0.00     0.011 C 
ENDBRANCH  16  28
BRANCH   1  30
HETATM   30  C4  UNL     1      24.339   8.727  48.915  1.00  0.00     0.274 C 
BRANCH  30  31
HETATM   31  C3  UNL     1      24.435   9.066  47.459  1.00  0.00     0.030 C 
BRANCH  31  32
HETATM   32  C2  UNL     1      24.975  10.489  47.360  1.00  0.00    -0.003 C 
HETATM   33  C1  UNL     1      26.226  10.554  46.537  1.00  0.00     0.005 C 
ENDBRANCH  31  32
ENDBRANCH  30  31
ENDBRANCH   1  30
TORSDOF 6
ENDMDL
MODEL 5
REMARK VINA RESULT:      -7.8      3.520      6.167
REMARK  6 active torsions:
REMARK  status: ('A' for Active; 'I' for Inactive)
REMARK    1  A    between atoms: C2_2  and  C3_3 
REMARK    2  A    between atoms: C3_3  and  C4_4 
REMARK    3  A    between atoms: C4_4  and  N1_5 
REMARK    4  A    between atoms: C11_13  and  N2_14 
REMARK    5  A    between atoms: N2_14  and  C12_15 
REMARK    6  A    between atoms: C21_29  and  C22_30 
ROOT
HETATM    1  N1  UNL     1      20.751  -0.149  53.179  1.00  0.00     0.104 N 
HETATM    2  C5  UNL     1      20.627   1.207  53.690  1.00  0.00     0.366 C 
HETATM    3  C6  UNL     1      20.195   2.156  52.760  1.00  0.00    -0.068 C 
HETATM    4  C7  UNL     1      19.860   2.929  51.993  1.00  0.00    -0.020 C 
HETATM    5  C8  UNL     1      19.469   3.866  51.039  1.00  0.00     0.253 C 
HETATM    6  O1  UNL     1      18.344   4.352  50.848  1.00  0.00    -0.276 OA
HETATM    7  C9  UNL     1      20.637   4.213  50.248  1.00  0.00     0.115 C 
HETATM    8  C10 UNL     1      21.714   4.958  50.388  1.00  0.00     0.062 C 
HETATM    9  C11 UNL     1      23.001   4.464  49.812  1.00  0.00     0.119 C 
HETATM   10  C18 UNL     1      22.857   3.763  48.499  1.00  0.00     0.104 C 
HETATM   11  C19 UNL     1      21.437   3.645  48.108  1.00  0.00     0.095 C 
HETATM   12  N3  UNL     1      20.522   3.533  49.031  1.00  0.00    -0.261 NA
HETATM   13  N4  UNL     1      23.476   3.486  50.783  1.00  0.00    -0.393 NA
HETATM   14  C20 UNL     1      22.992   2.322  50.880  1.00  0.00     0.439 C 
HETATM   15  N5  UNL     1      23.508   1.424  51.854  1.00  0.00    -0.265 NA
HETATM   16  C21 UNL     1      22.887   0.393  52.312  1.00  0.00     0.037 C 
HETATM   17  C24 UNL     1      21.539  -0.111  51.962  1.00  0.00     0.327 C 
ENDROOT
BRANCH   9  18
HETATM   18  N2  UNL     1      23.943   5.568  49.737  1.00  0.00    -0.361 N 
HETATM   19  H13 UNL     1      23.586   6.519  50.060  1.00  0.00     0.162 HD
BRANCH  18  20
HETATM   20  C12 UNL     1      25.265   5.524  49.290  1.00  0.00     0.031 A 
HETATM   21  C13 UNL     1      26.121   4.455  49.428  1.00  0.00     0.032 A 
HETATM   22  C14 UNL     1      27.429   4.387  49.003  1.00  0.00     0.046 A 
HETATM   23  C15 UNL     1      27.942   5.512  48.367  1.00  0.00     0.138 A 
HETATM   24  F1  UNL     1      29.208   5.555  47.911  1.00  0.00    -0.204 F 
HETATM   25  C16 UNL     1      27.144   6.618  48.193  1.00  0.00     0.074 A 
HETATM   26 CL1  UNL     1      27.778   8.026  47.402  1.00  0.00    -0.081 Cl
HETATM   27  C17 UNL     1      25.846   6.598  48.651  1.00  0.00     0.056 A 
ENDBRANCH  18  20
ENDBRANCH   9  18
BRANCH  16  28
HETATM   28  C22 UNL     1      23.561  -0.443  53.324  1.00  0.00     0.051 C 
HETATM   29  C23 UNL     1      25.072  -0.251  53.283  1.00  0.00     0.011 C 
ENDBRANCH  16  28
BRANCH   1  30
HETATM   30  C4  UNL     1      19.400  -0.600  52.931  1.00  0.00     0.274 C 
BRANCH  30  31
HETATM   31  C3  UNL     1      18.974  -1.775  53.757  1.00  0.00     0.030 C 
BRANCH  31  32
HETATM   32  C2  UNL     1      17.537  -2.106  53.367  1.00  0.00    -0.003 C 
HETATM   33  C1  UNL     1      17.273  -3.581  53.411  1.00  0.00     0.005 C 
ENDBRANCH  31  32
ENDBRANCH  30  31
ENDBRANCH   1  30
TORSDOF 6
ENDMDL
MODEL 6
REMARK VINA RESULT:      -7.5      2.193      2.429
REMARK  6 active torsions:
REMARK  status: ('A' for Active; 'I' for Inactive)
REMARK    1  A    between atoms: C2_2  and  C3_3 
REMARK    2  A    between atoms: C3_3  and  C4_4 
REMARK    3  A    between atoms: C4_4  and  N1_5 
REMARK    4  A    between atoms: C11_13  and  N2_14 
REMARK    5  A    between atoms: N2_14  and  C12_15 
REMARK    6  A    between atoms: C21_29  and  C22_30 
ROOT
HETATM    1  N1  UNL     1      25.867   1.440  52.984  1.00  0.00     0.104 N 
HETATM    2  C5  UNL     1      25.892   1.215  51.547  1.00  0.00     0.366 C 
HETATM    3  C6  UNL     1      26.207   2.334  50.774  1.00  0.00    -0.068 C 
HETATM    4  C7  UNL     1      26.447   3.256  50.148  1.00  0.00    -0.020 C 
HETATM    5  C8  UNL     1      26.721   4.394  49.394  1.00  0.00     0.253 C 
HETATM    6  O1  UNL     1      27.792   4.735  48.871  1.00  0.00    -0.276 OA
HETATM    7  C9  UNL     1      25.499   5.175  49.304  1.00  0.00     0.115 C 
HETATM    8  C10 UNL     1      24.368   5.129  48.631  1.00  0.00     0.062 C 
HETATM    9  C11 UNL     1      23.109   5.529  49.329  1.00  0.00     0.119 C 
HETATM   10  C18 UNL     1      23.265   6.684  50.266  1.00  0.00     0.104 C 
HETATM   11  C19 UNL     1      24.675   7.117  50.350  1.00  0.00     0.095 C 
HETATM   12  N3  UNL     1      25.629   6.239  50.203  1.00  0.00    -0.261 NA
HETATM   13  N4  UNL     1      22.755   4.361  50.125  1.00  0.00    -0.393 NA
HETATM   14  C20 UNL     1      23.340   4.061  51.205  1.00  0.00     0.439 C 
HETATM   15  N5  UNL     1      22.938   2.904  51.926  1.00  0.00    -0.265 NA
HETATM   16  C21 UNL     1      23.662   2.284  52.793  1.00  0.00     0.037 C 
HETATM   17  C24 UNL     1      25.035   2.598  53.252  1.00  0.00     0.327 C 
ENDROOT
BRANCH   9  18
HETATM   18  N2  UNL     1      22.074   5.771  48.338  1.00  0.00    -0.361 N 
HETATM   19  H13 UNL     1      22.172   6.658  47.756  1.00  0.00     0.162 HD
BRANCH  18  20
HETATM   20  C12 UNL     1      20.964   4.970  48.059  1.00  0.00     0.031 A 
HETATM   21  C13 UNL     1      20.895   4.015  47.069  1.00  0.00     0.032 A 
HETATM   22  C14 UNL     1      19.814   3.216  46.770  1.00  0.00     0.046 A 
HETATM   23  C15 UNL     1      18.673   3.387  47.546  1.00  0.00     0.138 A 
HETATM   24  F1  UNL     1      17.559   2.660  47.341  1.00  0.00    -0.204 F 
HETATM   25  C16 UNL     1      18.669   4.323  48.554  1.00  0.00     0.074 A 
HETATM   26 CL1  UNL     1      17.249   4.543  49.525  1.00  0.00    -0.081 Cl
HETATM   27  C17 UNL     1      19.797   5.079  48.783  1.00  0.00     0.056 A 
ENDBRANCH  18  20
ENDBRANCH   9  18
BRANCH  16  28
HETATM   28  C22 UNL     1      23.099   1.094  53.459  1.00  0.00     0.051 C 
HETATM   29  C23 UNL     1      21.751   0.711  52.860  1.00  0.00     0.011 C 
ENDBRANCH  16  28
BRANCH   1  30
HETATM   30  C4  UNL     1      27.241   1.666  53.371  1.00  0.00     0.274 C 
BRANCH  30  31
HETATM   31  C3  UNL     1      27.890   0.509  54.068  1.00  0.00     0.030 C 
BRANCH  31  32
HETATM   32  C2  UNL     1      29.376   0.550  53.729  1.00  0.00    -0.003 C 
HETATM   33  C1  UNL     1      29.968  -0.825  53.654  1.00  0.00     0.005 C 
ENDBRANCH  31  32
ENDBRANCH  30  31
ENDBRANCH   1  30
TORSDOF 6
ENDMDL
MODEL 7
REMARK VINA RESULT:      -7.3      4.390      6.804
REMARK  6 active torsions:
REMARK  status: ('A' for Active; 'I' for Inactive)
REMARK    1  A    between atoms: C2_2  and  C3_3 
REMARK    2  A    between atoms: C3_3  and  C4_4 
REMARK    3  A    between atoms: C4_4  and  N1_5 
REMARK    4  A    between atoms: C11_13  and  N2_14 
REMARK    5  A    between atoms: N2_14  and  C12_15 
REMARK    6  A    between atoms: C21_29  and  C22_30 
ROOT
HETATM    1  N1  UNL     1      21.404   2.457  51.210  1.00  0.00     0.104 N 
HETATM    2  C5  UNL     1      21.429   3.596  52.114  1.00  0.00     0.366 C 
HETATM    3  C6  UNL     1      21.425   4.847  51.495  1.00  0.00    -0.068 C 
HETATM    4  C7  UNL     1      21.440   5.866  50.983  1.00  0.00    -0.020 C 
HETATM    5  C8  UNL     1      21.478   7.103  50.344  1.00  0.00     0.253 C 
HETATM    6  O1  UNL     1      20.548   7.898  50.144  1.00  0.00    -0.276 OA
HETATM    7  C9  UNL     1      22.846   7.343  49.917  1.00  0.00     0.115 C 
HETATM    8  C10 UNL     1      23.983   7.710  50.470  1.00  0.00     0.062 C 
HETATM    9  C11 UNL     1      25.247   7.082  49.982  1.00  0.00     0.119 C 
HETATM   10  C18 UNL     1      25.286   6.846  48.506  1.00  0.00     0.104 C 
HETATM   11  C19 UNL     1      24.005   7.217  47.871  1.00  0.00     0.095 C 
HETATM   12  N3  UNL     1      22.893   7.091  48.541  1.00  0.00    -0.261 NA
HETATM   13  N4  UNL     1      25.277   5.781  50.637  1.00  0.00    -0.393 NA
HETATM   14  C20 UNL     1      24.566   4.805  50.263  1.00  0.00     0.439 C 
HETATM   15  N5  UNL     1      24.650   3.566  50.953  1.00  0.00    -0.265 NA
HETATM   16  C21 UNL     1      23.748   2.647  50.936  1.00  0.00     0.037 C 
HETATM   17  C24 UNL     1      22.451   2.632  50.222  1.00  0.00     0.327 C 
ENDROOT
BRANCH   9  18
HETATM   18  N2  UNL     1      26.377   7.878  50.433  1.00  0.00    -0.361 N 
HETATM   19  H13 UNL     1      26.774   7.638  51.393  1.00  0.00     0.162 HD
BRANCH  18  20
HETATM   20  C12 UNL     1      27.005   8.921  49.749  1.00  0.00     0.031 A 
HETATM   21  C13 UNL     1      26.371  10.010  49.194  1.00  0.00     0.032 A 
HETATM   22  C14 UNL     1      26.964  11.048  48.511  1.00  0.00     0.046 A 
HETATM   23  C15 UNL     1      28.346  10.996  48.365  1.00  0.00     0.138 A 
HETATM   24  F1  UNL     1      29.029  11.957  47.716  1.00  0.00    -0.204 F 
HETATM   25  C16 UNL     1      29.047   9.937  48.894  1.00  0.00     0.074 A 
HETATM   26 CL1  UNL     1      30.770   9.865  48.716  1.00  0.00    -0.081 Cl
HETATM   27  C17 UNL     1      28.370   8.941  49.563  1.00  0.00     0.056 A 
ENDBRANCH  18  20
ENDBRANCH   9  18
BRANCH  16  28
HETATM   28  C22 UNL     1      23.985   1.412  51.708  1.00  0.00     0.051 C 
HETATM   29  C23 UNL     1      24.566   1.723  53.083  1.00  0.00     0.011 C 
ENDBRANCH  16  28
BRANCH   1  30
HETATM   30  C4  UNL     1      20.089   2.463  50.608  1.00  0.00     0.274 C 
BRANCH  30  31
HETATM   31  C3  UNL     1      19.175   1.382  51.098  1.00  0.00     0.030 C 
BRANCH  31  32
HETATM   32  C2  UNL     1      20.051   0.236  51.593  1.00  0.00    -0.003 C 
HETATM   33  C1  UNL     1      19.694  -0.175  52.989  1.00  0.00     0.005 C 
ENDBRANCH  31  32
ENDBRANCH  30  31
ENDBRANCH   1  30
TORSDOF 6
ENDMDL
MODEL 8
REMARK VINA RESULT:      -7.3      3.728      6.256
REMARK  6 active torsions:
REMARK  status: ('A' for Active; 'I' for Inactive)
REMARK    1  A    between atoms: C2_2  and  C3_3 
REMARK    2  A    between atoms: C3_3  and  C4_4 
REMARK    3  A    between atoms: C4_4  and  N1_5 
REMARK    4  A    between atoms: C11_13  and  N2_14 
REMARK    5  A    between atoms: N2_14  and  C12_15 
REMARK    6  A    between atoms: C21_29  and  C22_30 
ROOT
HETATM    1  N1  UNL     1      20.510   0.497  52.500  1.00  0.00     0.104 N 
HETATM    2  C5  UNL     1      20.481   1.798  53.149  1.00  0.00     0.366 C 
HETATM    3  C6  UNL     1      20.454   2.894  52.284  1.00  0.00    -0.068 C 
HETATM    4  C7  UNL     1      20.449   3.786  51.574  1.00  0.00    -0.020 C 
HETATM    5  C8  UNL     1      20.465   4.865  50.693  1.00  0.00     0.253 C 
HETATM    6  O1  UNL     1      19.516   5.570  50.318  1.00  0.00    -0.276 OA
HETATM    7  C9  UNL     1      21.834   5.058  50.247  1.00  0.00     0.115 C 
HETATM    8  C10 UNL     1      22.947   5.570  50.731  1.00  0.00     0.062 C 
HETATM    9  C11 UNL     1      24.240   4.898  50.403  1.00  0.00     0.119 C 
HETATM   10  C18 UNL     1      24.319   4.364  49.009  1.00  0.00     0.104 C 
HETATM   11  C19 UNL     1      23.042   4.553  48.290  1.00  0.00     0.095 C 
HETATM   12  N3  UNL     1      21.920   4.530  48.955  1.00  0.00    -0.261 NA
HETATM   13  N4  UNL     1      24.294   3.762  51.314  1.00  0.00    -0.393 NA
HETATM   14  C20 UNL     1      23.621   2.706  51.138  1.00  0.00     0.439 C 
HETATM   15  N5  UNL     1      23.727   1.639  52.071  1.00  0.00    -0.265 NA
HETATM   16  C21 UNL     1      22.853   0.706  52.229  1.00  0.00     0.037 C 
HETATM   17  C24 UNL     1      21.573   0.500  51.513  1.00  0.00     0.327 C 
ENDROOT
BRANCH   9  18
HETATM   18  N2  UNL     1      25.335   5.807  50.698  1.00  0.00    -0.361 N 
HETATM   19  H13 UNL     1      25.879   5.620  51.596  1.00  0.00     0.162 HD
BRANCH  18  20
HETATM   20  C12 UNL     1      25.759   6.898  49.936  1.00  0.00     0.031 A 
HETATM   21  C13 UNL     1      25.280   8.184  50.044  1.00  0.00     0.032 A 
HETATM   22  C14 UNL     1      25.675   9.275  49.303  1.00  0.00     0.046 A 
HETATM   23  C15 UNL     1      26.660   9.060  48.346  1.00  0.00     0.138 A 
HETATM   24  F1  UNL     1      27.121  10.055  47.566  1.00  0.00    -0.204 F 
HETATM   25  C16 UNL     1      27.186   7.801  48.181  1.00  0.00     0.074 A 
HETATM   26 CL1  UNL     1      28.415   7.525  46.989  1.00  0.00    -0.081 Cl
HETATM   27  C17 UNL     1      26.730   6.766  48.968  1.00  0.00     0.056 A 
ENDBRANCH  18  20
ENDBRANCH   9  18
BRANCH  16  28
HETATM   28  C22 UNL     1      23.109  -0.335  53.244  1.00  0.00     0.051 C 
HETATM   29  C23 UNL     1      24.570  -0.334  53.680  1.00  0.00     0.011 C 
ENDBRANCH  16  28
BRANCH   1  30
HETATM   30  C4  UNL     1      19.210   0.334  51.888  1.00  0.00     0.274 C 
BRANCH  30  31
HETATM   31  C3  UNL     1      19.209   0.426  50.393  1.00  0.00     0.030 C 
BRANCH  31  32
HETATM   32  C2  UNL     1      17.826   0.907  49.969  1.00  0.00    -0.003 C 
HETATM   33  C1  UNL     1      16.863  -0.233  49.816  1.00  0.00     0.005 C 
ENDBRANCH  31  32
ENDBRANCH  30  31
ENDBRANCH   1  30
TORSDOF 6
ENDMDL
MODEL 9
REMARK VINA RESULT:      -7.3      5.079      8.808
REMARK  6 active torsions:
REMARK  status: ('A' for Active; 'I' for Inactive)
REMARK    1  A    between atoms: C2_2  and  C3_3 
REMARK    2  A    between atoms: C3_3  and  C4_4 
REMARK    3  A    between atoms: C4_4  and  N1_5 
REMARK    4  A    between atoms: C11_13  and  N2_14 
REMARK    5  A    between atoms: N2_14  and  C12_15 
REMARK    6  A    between atoms: C21_29  and  C22_30 
ROOT
HETATM    1  N1  UNL     1      16.978   1.461  50.798  1.00  0.00     0.104 N 
HETATM    2  C5  UNL     1      17.327   2.475  51.781  1.00  0.00     0.366 C 
HETATM    3  C6  UNL     1      18.410   3.288  51.439  1.00  0.00    -0.068 C 
HETATM    4  C7  UNL     1      19.306   3.936  51.162  1.00  0.00    -0.020 C 
HETATM    5  C8  UNL     1      20.415   4.707  50.820  1.00  0.00     0.253 C 
HETATM    6  O1  UNL     1      20.442   5.851  50.343  1.00  0.00    -0.276 OA
HETATM    7  C9  UNL     1      21.607   3.932  51.117  1.00  0.00     0.115 C 
HETATM    8  C10 UNL     1      22.301   3.594  52.183  1.00  0.00     0.062 C 
HETATM    9  C11 UNL     1      22.896   2.224  52.241  1.00  0.00     0.119 C 
HETATM   10  C18 UNL     1      23.425   1.729  50.933  1.00  0.00     0.104 C 
HETATM   11  C19 UNL     1      23.155   2.693  49.847  1.00  0.00     0.095 C 
HETATM   12  N3  UNL     1      22.086   3.439  49.898  1.00  0.00    -0.261 NA
HETATM   13  N4  UNL     1      21.780   1.366  52.618  1.00  0.00    -0.393 NA
HETATM   14  C20 UNL     1      20.877   1.014  51.807  1.00  0.00     0.439 C 
HETATM   15  N5  UNL     1      19.819   0.175  52.250  1.00  0.00    -0.265 NA
HETATM   16  C21 UNL     1      18.675   0.058  51.671  1.00  0.00     0.037 C 
HETATM   17  C24 UNL     1      18.180   0.729  50.447  1.00  0.00     0.327 C 
ENDROOT
BRANCH   9  18
HETATM   18  N2  UNL     1      23.908   2.190  53.283  1.00  0.00    -0.361 N 
HETATM   19  H13 UNL     1      23.709   2.766  54.158  1.00  0.00     0.162 HD
BRANCH  18  20
HETATM   20  C12 UNL     1      25.112   1.484  53.270  1.00  0.00     0.031 A 
HETATM   21  C13 UNL     1      25.247   0.134  53.032  1.00  0.00     0.032 A 
HETATM   22  C14 UNL     1      26.420  -0.587  53.018  1.00  0.00     0.046 A 
HETATM   23  C15 UNL     1      27.593   0.117  53.270  1.00  0.00     0.138 A 
HETATM   24  F1  UNL     1      28.795  -0.487  53.281  1.00  0.00    -0.204 F 
HETATM   25  C16 UNL     1      27.536   1.469  53.516  1.00  0.00     0.074 A 
HETATM   26 CL1  UNL     1      28.994   2.353  53.832  1.00  0.00    -0.081 Cl
HETATM   27  C17 UNL     1      26.316   2.109  53.510  1.00  0.00     0.056 A 
ENDBRANCH  18  20
ENDBRANCH   9  18
BRANCH  16  28
HETATM   28  C22 UNL     1      17.678  -0.859  52.258  1.00  0.00     0.051 C 
HETATM   29  C23 UNL     1      18.267  -1.642  53.425  1.00  0.00     0.011 C 
ENDBRANCH  16  28
BRANCH   1  30
HETATM   30  C4  UNL     1      16.437   2.181  49.667  1.00  0.00     0.274 C 
BRANCH  30  31
HETATM   31  C3  UNL     1      15.385   1.437  48.901  1.00  0.00     0.030 C 
BRANCH  31  32
HETATM   32  C2  UNL     1      14.335   2.455  48.470  1.00  0.00    -0.003 C 
HETATM   33  C1  UNL     1      14.316   2.641  46.983  1.00  0.00     0.005 C 
ENDBRANCH  31  32
ENDBRANCH  30  31
ENDBRANCH   1  30
TORSDOF 6
ENDMDL
