MODEL 1
REMARK VINA RESULT:      -7.6      0.000      0.000
REMARK  1 active torsions:
REMARK  status: ('A' for Active; 'I' for Inactive)
REMARK    1  A    between atoms: N1_1  and  C1_2 
ROOT
HETATM    1  C1  UNL     1      23.627   4.638  52.214  1.00  0.00     0.278 A 
HETATM    2  N2  UNL     1      24.413   4.750  51.142  1.00  0.00    -0.184 NA
HETATM    3  C2  UNL     1      24.164   4.064  50.055  1.00  0.00     0.147 A 
HETATM    4  C3  UNL     1      23.128   3.220  49.926  1.00  0.00     0.070 A 
HETATM    5  C4  UNL     1      22.620   2.444  48.935  1.00  0.00     0.037 A 
HETATM    6  C5  UNL     1      21.507   1.843  49.452  1.00  0.00     0.095 A 
HETATM    7  N3  UNL     1      21.152   2.097  50.710  1.00  0.00    -0.331 N 
HETATM    8  C6  UNL     1      22.241   2.992  50.926  1.00  0.00     0.199 A 
HETATM    9  N4  UNL     1      22.941   3.827  51.584  1.00  0.00    -0.350 NA
HETATM   10  C7  UNL     1      20.626   2.267  52.093  1.00  0.00     0.136 C 
HETATM   11  C8  UNL     1      21.540   1.288  52.825  1.00  0.00     0.015 C 
HETATM   12  C9  UNL     1      22.289   0.336  53.558  1.00  0.00     0.032 C 
HETATM   13  C10 UNL     1      23.721   0.677  53.014  1.00  0.00    -0.001 C 
HETATM   14  C11 UNL     1      25.092   0.530  52.926  1.00  0.00    -0.026 C 
HETATM   15  C12 UNL     1      26.414   0.876  52.375  1.00  0.00    -0.007 C 
HETATM   16  C13 UNL     1      26.758   1.710  51.467  1.00  0.00    -0.016 C 
HETATM   17  C14 UNL     1      26.465   2.694  50.494  1.00  0.00     0.059 C 
HETATM   18  C15 UNL     1      26.372   3.593  49.581  1.00  0.00     0.072 C 
HETATM   19  N5  UNL     1      25.195   4.221  49.095  1.00  0.00    -0.353 N 
HETATM   20  H15 UNL     1      24.590   4.722  48.455  1.00  0.00     0.166 HD
ENDROOT
BRANCH   1  21
HETATM   21  N1  UNL     1      23.637   5.234  53.500  1.00  0.00    -0.358 N 
HETATM   22  H1  UNL     1      23.896   4.461  54.188  1.00  0.00     0.160 HD
HETATM   23  H2  UNL     1      23.401   6.270  53.528  1.00  0.00     0.160 HD
ENDBRANCH   1  21
TORSDOF 1
ENDMDL
MODEL 2
REMARK VINA RESULT:      -7.3      1.308      2.683
REMARK  1 active torsions:
REMARK  status: ('A' for Active; 'I' for Inactive)
REMARK    1  A    between atoms: N1_1  and  C1_2 
ROOT
HETATM    1  C1  UNL     1      23.246   4.755  52.555  1.00  0.00     0.278 A 
HETATM    2  N2  UNL     1      22.825   5.299  51.412  1.00  0.00    -0.184 NA
HETATM    3  C2  UNL     1      22.325   4.551  50.461  1.00  0.00     0.147 A 
HETATM    4  C3  UNL     1      22.194   3.219  50.549  1.00  0.00     0.070 A 
HETATM    5  C4  UNL     1      21.685   2.235  49.765  1.00  0.00     0.037 A 
HETATM    6  C5  UNL     1      21.832   1.071  50.467  1.00  0.00     0.095 A 
HETATM    7  N3  UNL     1      22.391   1.104  51.675  1.00  0.00    -0.331 N 
HETATM    8  C6  UNL     1      22.581   2.516  51.643  1.00  0.00     0.199 A 
HETATM    9  N4  UNL     1      22.920   3.651  52.111  1.00  0.00    -0.350 NA
HETATM   10  C7  UNL     1      23.001   0.966  53.027  1.00  0.00     0.136 C 
HETATM   11  C8  UNL     1      24.475   0.956  52.632  1.00  0.00     0.015 C 
HETATM   12  C9  UNL     1      25.856   0.851  52.338  1.00  0.00     0.032 C 
HETATM   13  C10 UNL     1      25.986   2.046  51.330  1.00  0.00    -0.001 C 
HETATM   14  C11 UNL     1      26.663   2.886  50.467  1.00  0.00    -0.026 C 
HETATM   15  C12 UNL     1      26.732   4.009  49.516  1.00  0.00    -0.007 C 
HETATM   16  C13 UNL     1      25.820   4.776  49.047  1.00  0.00    -0.016 C 
HETATM   17  C14 UNL     1      24.476   5.202  48.939  1.00  0.00     0.059 C 
HETATM   18  C15 UNL     1      23.315   5.711  48.729  1.00  0.00     0.072 C 
HETATM   19  N5  UNL     1      22.074   5.306  49.287  1.00  0.00    -0.353 N 
HETATM   20  H15 UNL     1      21.070   5.196  49.372  1.00  0.00     0.166 HD
ENDROOT
BRANCH   1  21
HETATM   21  N1  UNL     1      23.817   5.287  53.739  1.00  0.00    -0.358 N 
HETATM   22  H1  UNL     1      24.208   6.246  53.481  1.00  0.00     0.160 HD
HETATM   23  H2  UNL     1      23.748   4.668  54.600  1.00  0.00     0.160 HD
ENDBRANCH   1  21
TORSDOF 1
ENDMDL
MODEL 3
REMARK VINA RESULT:      -7.1      1.521      4.469
REMARK  1 active torsions:
REMARK  status: ('A' for Active; 'I' for Inactive)
REMARK    1  A    between atoms: N1_1  and  C1_2 
ROOT
HETATM    1  C1  UNL     1      23.346   4.446  52.450  1.00  0.00     0.278 A 
HETATM    2  N2  UNL     1      23.852   3.392  53.093  1.00  0.00    -0.184 NA
HETATM    3  C2  UNL     1      24.834   2.700  52.572  1.00  0.00     0.147 A 
HETATM    4  C3  UNL     1      25.400   2.981  51.388  1.00  0.00     0.070 A 
HETATM    5  C4  UNL     1      26.427   2.481  50.655  1.00  0.00     0.037 A 
HETATM    6  C5  UNL     1      26.511   3.258  49.534  1.00  0.00     0.095 A 
HETATM    7  N3  UNL     1      25.658   4.268  49.374  1.00  0.00    -0.331 N 
HETATM    8  C6  UNL     1      24.996   4.016  50.611  1.00  0.00     0.199 A 
HETATM    9  N4  UNL     1      24.157   4.239  51.542  1.00  0.00    -0.350 NA
HETATM   10  C7  UNL     1      24.781   5.424  49.041  1.00  0.00     0.136 C 
HETATM   11  C8  UNL     1      23.584   4.668  48.470  1.00  0.00     0.015 C 
HETATM   12  C9  UNL     1      22.476   4.043  47.848  1.00  0.00     0.032 C 
HETATM   13  C10 UNL     1      22.221   2.898  48.889  1.00  0.00    -0.001 C 
HETATM   14  C11 UNL     1      21.564   1.794  49.397  1.00  0.00    -0.026 C 
HETATM   15  C12 UNL     1      21.373   0.727  50.395  1.00  0.00    -0.007 C 
HETATM   16  C13 UNL     1      22.045   0.418  51.440  1.00  0.00    -0.016 C 
HETATM   17  C14 UNL     1      23.120   0.608  52.339  1.00  0.00     0.059 C 
HETATM   18  C15 UNL     1      24.032   0.643  53.244  1.00  0.00     0.072 C 
HETATM   19  N5  UNL     1      25.122   1.547  53.345  1.00  0.00    -0.353 N 
HETATM   20  H15 UNL     1      26.031   1.900  53.622  1.00  0.00     0.166 HD
ENDROOT
BRANCH   1  21
HETATM   21  N1  UNL     1      22.312   5.369  52.749  1.00  0.00    -0.358 N 
HETATM   22  H1  UNL     1      21.646   4.870  53.416  1.00  0.00     0.160 HD
HETATM   23  H2  UNL     1      22.396   6.319  52.280  1.00  0.00     0.160 HD
ENDBRANCH   1  21
TORSDOF 1
ENDMDL
MODEL 4
REMARK VINA RESULT:      -6.9      1.545      4.539
REMARK  1 active torsions:
REMARK  status: ('A' for Active; 'I' for Inactive)
REMARK    1  A    between atoms: N1_1  and  C1_2 
ROOT
HETATM    1  C1  UNL     1      22.550   2.468  48.924  1.00  0.00     0.278 A 
HETATM    2  N2  UNL     1      22.032   2.049  50.079  1.00  0.00    -0.184 NA
HETATM    3  C2  UNL     1      21.984   2.844  51.118  1.00  0.00     0.147 A 
HETATM    4  C3  UNL     1      22.433   4.108  51.112  1.00  0.00     0.070 A 
HETATM    5  C4  UNL     1      22.465   5.136  51.998  1.00  0.00     0.037 A 
HETATM    6  C5  UNL     1      23.040   6.189  51.343  1.00  0.00     0.095 A 
HETATM    7  N3  UNL     1      23.429   6.037  50.078  1.00  0.00    -0.331 N 
HETATM    8  C6  UNL     1      22.993   4.681  50.017  1.00  0.00     0.199 A 
HETATM    9  N4  UNL     1      22.770   3.560  49.457  1.00  0.00    -0.350 NA
HETATM   10  C7  UNL     1      23.924   6.031  48.674  1.00  0.00     0.136 C 
HETATM   11  C8  UNL     1      25.286   5.378  48.896  1.00  0.00     0.015 C 
HETATM   12  C9  UNL     1      26.597   4.860  49.034  1.00  0.00     0.032 C 
HETATM   13  C10 UNL     1      26.281   3.632  49.959  1.00  0.00    -0.001 C 
HETATM   14  C11 UNL     1      26.599   2.507  50.694  1.00  0.00    -0.026 C 
HETATM   15  C12 UNL     1      26.255   1.376  51.574  1.00  0.00    -0.007 C 
HETATM   16  C13 UNL     1      25.145   1.027  52.107  1.00  0.00    -0.016 C 
HETATM   17  C14 UNL     1      23.762   1.202  52.347  1.00  0.00     0.059 C 
HETATM   18  C15 UNL     1      22.517   1.216  52.664  1.00  0.00     0.072 C 
HETATM   19  N5  UNL     1      21.530   2.159  52.274  1.00  0.00    -0.353 N 
HETATM   20  H15 UNL     1      20.669   2.692  52.311  1.00  0.00     0.166 HD
ENDROOT
BRANCH   1  21
HETATM   21  N1  UNL     1      22.736   1.859  47.657  1.00  0.00    -0.358 N 
HETATM   22  H1  UNL     1      23.744   1.511  47.635  1.00  0.00     0.160 HD
HETATM   23  H2  UNL     1      21.887   1.866  47.016  1.00  0.00     0.160 HD
ENDBRANCH   1  21
TORSDOF 1
ENDMDL
MODEL 5
REMARK VINA RESULT:      -6.8      5.556      7.537
REMARK  1 active torsions:
REMARK  status: ('A' for Active; 'I' for Inactive)
REMARK    1  A    between atoms: N1_1  and  C1_2 
ROOT
HETATM    1  C1  UNL     1      28.017   9.019  49.553  1.00  0.00     0.278 A 
HETATM    2  N2  UNL     1      29.020   8.345  48.988  1.00  0.00    -0.184 NA
HETATM    3  C2  UNL     1      29.022   8.103  47.701  1.00  0.00     0.147 A 
HETATM    4  C3  UNL     1      28.050   8.499  46.866  1.00  0.00     0.070 A 
HETATM    5  C4  UNL     1      27.825   8.430  45.529  1.00  0.00     0.037 A 
HETATM    6  C5  UNL     1      26.637   9.070  45.307  1.00  0.00     0.095 A 
HETATM    7  N3  UNL     1      25.977   9.596  46.337  1.00  0.00    -0.331 N 
HETATM    8  C6  UNL     1      26.959   9.189  47.286  1.00  0.00     0.199 A 
HETATM    9  N4  UNL     1      27.493   9.106  48.439  1.00  0.00    -0.350 NA
HETATM   10  C7  UNL     1      25.114  10.227  47.373  1.00  0.00     0.136 C 
HETATM   11  C8  UNL     1      24.390   8.983  47.882  1.00  0.00     0.015 C 
HETATM   12  C9  UNL     1      23.616   7.892  48.345  1.00  0.00     0.032 C 
HETATM   13  C10 UNL     1      24.764   6.841  48.544  1.00  0.00    -0.001 C 
HETATM   14  C11 UNL     1      25.285   5.610  48.890  1.00  0.00    -0.026 C 
HETATM   15  C12 UNL     1      26.395   4.654  49.048  1.00  0.00    -0.007 C 
HETATM   16  C13 UNL     1      27.642   4.754  48.774  1.00  0.00    -0.016 C 
HETATM   17  C14 UNL     1      28.763   5.465  48.287  1.00  0.00     0.059 C 
HETATM   18  C15 UNL     1      29.875   5.967  47.883  1.00  0.00     0.072 C 
HETATM   19  N5  UNL     1      30.099   7.257  47.335  1.00  0.00    -0.353 N 
HETATM   20  H15 UNL     1      30.558   7.989  46.806  1.00  0.00     0.166 HD
ENDROOT
BRANCH   1  21
HETATM   21  N1  UNL     1      27.740   9.428  50.882  1.00  0.00    -0.358 N 
HETATM   22  H1  UNL     1      27.322   8.580  51.377  1.00  0.00     0.160 HD
HETATM   23  H2  UNL     1      27.988  10.435  51.113  1.00  0.00     0.160 HD
ENDBRANCH   1  21
TORSDOF 1
ENDMDL
MODEL 6
REMARK VINA RESULT:      -6.8      5.286      7.244
REMARK  1 active torsions:
REMARK  status: ('A' for Active; 'I' for Inactive)
REMARK    1  A    between atoms: N1_1  and  C1_2 
ROOT
HETATM    1  C1  UNL     1      27.500   9.311  49.553  1.00  0.00     0.278 A 
HETATM    2  N2  UNL     1      28.271   9.765  48.563  1.00  0.00    -0.184 NA
HETATM    3  C2  UNL     1      27.910   9.615  47.313  1.00  0.00     0.147 A 
HETATM    4  C3  UNL     1      26.772   9.015  46.931  1.00  0.00     0.070 A 
HETATM    5  C4  UNL     1      26.146   8.772  45.751  1.00  0.00     0.037 A 
HETATM    6  C5  UNL     1      24.977   8.136  46.062  1.00  0.00     0.095 A 
HETATM    7  N3  UNL     1      24.686   7.891  47.338  1.00  0.00    -0.331 N 
HETATM    8  C6  UNL     1      25.885   8.496  47.816  1.00  0.00     0.199 A 
HETATM    9  N4  UNL     1      26.702   8.908  48.702  1.00  0.00    -0.350 NA
HETATM   10  C7  UNL     1      24.217   7.537  48.706  1.00  0.00     0.136 C 
HETATM   11  C8  UNL     1      25.014   6.252  48.914  1.00  0.00     0.015 C 
HETATM   12  C9  UNL     1      25.650   5.008  49.145  1.00  0.00     0.032 C 
HETATM   13  C10 UNL     1      27.102   5.383  48.681  1.00  0.00    -0.001 C 
HETATM   14  C11 UNL     1      28.440   5.138  48.441  1.00  0.00    -0.026 C 
HETATM   15  C12 UNL     1      29.783   5.534  47.982  1.00  0.00    -0.007 C 
HETATM   16  C13 UNL     1      30.211   6.623  47.464  1.00  0.00    -0.016 C 
HETATM   17  C14 UNL     1      30.025   7.944  46.995  1.00  0.00     0.059 C 
HETATM   18  C15 UNL     1      30.028   9.142  46.530  1.00  0.00     0.072 C 
HETATM   19  N5  UNL     1      28.931  10.037  46.425  1.00  0.00    -0.353 N 
HETATM   20  H15 UNL     1      28.382  10.819  46.087  1.00  0.00     0.166 HD
ENDROOT
BRANCH   1  21
HETATM   21  N1  UNL     1      27.616   9.324  50.966  1.00  0.00    -0.358 N 
HETATM   22  H1  UNL     1      28.378   8.619  51.213  1.00  0.00     0.160 HD
HETATM   23  H2  UNL     1      26.962   9.991  51.474  1.00  0.00     0.160 HD
ENDBRANCH   1  21
TORSDOF 1
ENDMDL
MODEL 7
REMARK VINA RESULT:      -6.7      2.873      3.998
REMARK  1 active torsions:
REMARK  status: ('A' for Active; 'I' for Inactive)
REMARK    1  A    between atoms: N1_1  and  C1_2 
ROOT
HETATM    1  C1  UNL     1      24.292   6.994  50.990  1.00  0.00     0.278 A 
HETATM    2  N2  UNL     1      24.923   7.735  50.078  1.00  0.00    -0.184 NA
HETATM    3  C2  UNL     1      24.595   7.661  48.812  1.00  0.00     0.147 A 
HETATM    4  C3  UNL     1      23.626   6.862  48.338  1.00  0.00     0.070 A 
HETATM    5  C4  UNL     1      23.063   6.627  47.126  1.00  0.00     0.037 A 
HETATM    6  C5  UNL     1      22.080   5.700  47.334  1.00  0.00     0.095 A 
HETATM    7  N3  UNL     1      21.869   5.238  48.565  1.00  0.00    -0.331 N 
HETATM    8  C6  UNL     1      22.896   6.043  49.136  1.00  0.00     0.199 A 
HETATM    9  N4  UNL     1      23.602   6.523  50.081  1.00  0.00    -0.350 NA
HETATM   10  C7  UNL     1      21.511   4.616  49.870  1.00  0.00     0.136 C 
HETATM   11  C8  UNL     1      22.590   3.539  49.934  1.00  0.00     0.015 C 
HETATM   12  C9  UNL     1      23.505   2.461  50.022  1.00  0.00     0.032 C 
HETATM   13  C10 UNL     1      24.821   3.222  49.636  1.00  0.00    -0.001 C 
HETATM   14  C11 UNL     1      26.177   3.330  49.393  1.00  0.00    -0.026 C 
HETATM   15  C12 UNL     1      27.384   4.084  49.011  1.00  0.00    -0.007 C 
HETATM   16  C13 UNL     1      27.538   5.299  48.639  1.00  0.00    -0.016 C 
HETATM   17  C14 UNL     1      27.041   6.587  48.332  1.00  0.00     0.059 C 
HETATM   18  C15 UNL     1      26.756   7.800  48.018  1.00  0.00     0.072 C 
HETATM   19  N5  UNL     1      25.478   8.418  48.003  1.00  0.00    -0.353 N 
HETATM   20  H15 UNL     1      24.756   9.084  47.753  1.00  0.00     0.166 HD
ENDROOT
BRANCH   1  21
HETATM   21  N1  UNL     1      24.416   6.859  52.396  1.00  0.00    -0.358 N 
HETATM   22  H1  UNL     1      24.049   7.767  52.820  1.00  0.00     0.160 HD
HETATM   23  H2  UNL     1      24.824   5.937  52.734  1.00  0.00     0.160 HD
ENDBRANCH   1  21
TORSDOF 1
ENDMDL
MODEL 8
REMARK VINA RESULT:      -6.7      1.354      4.563
REMARK  1 active torsions:
REMARK  status: ('A' for Active; 'I' for Inactive)
REMARK    1  A    between atoms: N1_1  and  C1_2 
ROOT
HETATM    1  C1  UNL     1      22.102   2.581  49.054  1.00  0.00     0.278 A 
HETATM    2  N2  UNL     1      21.098   2.754  49.915  1.00  0.00    -0.184 NA
HETATM    3  C2  UNL     1      21.161   3.681  50.838  1.00  0.00     0.147 A 
HETATM    4  C3  UNL     1      22.203   4.512  50.992  1.00  0.00     0.070 A 
HETATM    5  C4  UNL     1      22.505   5.559  51.802  1.00  0.00     0.037 A 
HETATM    6  C5  UNL     1      23.739   6.001  51.413  1.00  0.00     0.095 A 
HETATM    7  N3  UNL     1      24.364   5.390  50.409  1.00  0.00    -0.331 N 
HETATM    8  C6  UNL     1      23.304   4.461  50.200  1.00  0.00     0.199 A 
HETATM    9  N4  UNL     1      22.698   3.506  49.615  1.00  0.00    -0.350 NA
HETATM   10  C7  UNL     1      25.198   4.816  49.316  1.00  0.00     0.136 C 
HETATM   11  C8  UNL     1      25.816   3.642  50.070  1.00  0.00     0.015 C 
HETATM   12  C9  UNL     1      26.497   2.586  50.724  1.00  0.00     0.032 C 
HETATM   13  C10 UNL     1      25.280   1.930  51.467  1.00  0.00    -0.001 C 
HETATM   14  C11 UNL     1      24.670   1.000  52.285  1.00  0.00    -0.026 C 
HETATM   15  C12 UNL     1      23.499   0.428  52.973  1.00  0.00    -0.007 C 
HETATM   16  C13 UNL     1      22.279   0.812  53.026  1.00  0.00    -0.016 C 
HETATM   17  C14 UNL     1      21.232   1.704  52.696  1.00  0.00     0.059 C 
HETATM   18  C15 UNL     1      20.177   2.409  52.493  1.00  0.00     0.072 C 
HETATM   19  N5  UNL     1      20.061   3.601  51.729  1.00  0.00    -0.353 N 
HETATM   20  H15 UNL     1      19.678   4.484  51.413  1.00  0.00     0.166 HD
ENDROOT
BRANCH   1  21
HETATM   21  N1  UNL     1      22.321   1.689  47.974  1.00  0.00    -0.358 N 
HETATM   22  H1  UNL     1      22.575   2.293  47.131  1.00  0.00     0.160 HD
HETATM   23  H2  UNL     1      22.200   0.658  48.199  1.00  0.00     0.160 HD
ENDBRANCH   1  21
TORSDOF 1
ENDMDL
MODEL 9
REMARK VINA RESULT:      -6.6      9.058     11.794
REMARK  1 active torsions:
REMARK  status: ('A' for Active; 'I' for Inactive)
REMARK    1  A    between atoms: N1_1  and  C1_2 
ROOT
HETATM    1  C1  UNL     1      34.536   6.396  48.271  1.00  0.00     0.278 A 
HETATM    2  N2  UNL     1      33.350   6.595  48.847  1.00  0.00    -0.184 NA
HETATM    3  C2  UNL     1      32.339   5.805  48.586  1.00  0.00     0.147 A 
HETATM    4  C3  UNL     1      32.405   4.760  47.748  1.00  0.00     0.070 A 
HETATM    5  C4  UNL     1      31.558   3.780  47.342  1.00  0.00     0.037 A 
HETATM    6  C5  UNL     1      32.270   2.990  46.482  1.00  0.00     0.095 A 
HETATM    7  N3  UNL     1      33.540   3.290  46.221  1.00  0.00    -0.331 N 
HETATM    8  C6  UNL     1      33.538   4.428  47.080  1.00  0.00     0.199 A 
HETATM    9  N4  UNL     1      34.050   5.426  47.682  1.00  0.00    -0.350 NA
HETATM   10  C7  UNL     1      34.960   3.491  45.817  1.00  0.00     0.136 C 
HETATM   11  C8  UNL     1      34.761   4.550  44.737  1.00  0.00     0.015 C 
HETATM   12  C9  UNL     1      34.649   5.467  43.664  1.00  0.00     0.032 C 
HETATM   13  C10 UNL     1      33.671   6.501  44.324  1.00  0.00    -0.001 C 
HETATM   14  C11 UNL     1      32.907   7.652  44.360  1.00  0.00    -0.026 C 
HETATM   15  C12 UNL     1      31.976   8.587  45.017  1.00  0.00    -0.007 C 
HETATM   16  C13 UNL     1      31.394   8.538  46.156  1.00  0.00    -0.016 C 
HETATM   17  C14 UNL     1      31.113   7.912  47.393  1.00  0.00     0.059 C 
HETATM   18  C15 UNL     1      30.755   7.482  48.550  1.00  0.00     0.072 C 
HETATM   19  N5  UNL     1      31.145   6.276  49.188  1.00  0.00    -0.353 N 
HETATM   20  H15 UNL     1      31.098   5.489  49.825  1.00  0.00     0.166 HD
ENDROOT
BRANCH   1  21
HETATM   21  N1  UNL     1      35.787   7.061  48.351  1.00  0.00    -0.358 N 
HETATM   22  H1  UNL     1      36.471   6.364  48.781  1.00  0.00     0.160 HD
HETATM   23  H2  UNL     1      35.798   8.060  47.989  1.00  0.00     0.160 HD
ENDBRANCH   1  21
TORSDOF 1
ENDMDL
