MODEL 1
REMARK VINA RESULT:      -9.1      0.000      0.000
REMARK  0 active torsions:
REMARK  status: ('A' for Active; 'I' for Inactive)
ROOT
HETATM    1  O1  UNL     1      20.974  -0.308  52.615  1.00  0.00    -0.258 OA
HETATM    2  C1  UNL     1      21.355   0.252  51.639  1.00  0.00     0.302 C 
HETATM    3  C2  UNL     1      21.597   0.904  50.443  1.00  0.00    -0.005 C 
HETATM    4  C3  UNL     1      21.811   1.428  49.495  1.00  0.00    -0.096 C 
HETATM    5  C4  UNL     1      22.102   2.081  48.313  1.00  0.00     0.099 C 
HETATM    6  C5  UNL     1      22.923   3.353  48.509  1.00  0.00     0.058 C 
HETATM    7  C6  UNL     1      24.084   3.206  49.378  1.00  0.00    -0.013 C 
HETATM    8 BR1  UNL     1      23.170   3.314  51.080  1.00  0.00    -0.056 Br
HETATM    9  C7  UNL     1      25.288   3.088  49.983  1.00  0.00     0.007 C 
HETATM   10  C8  UNL     1      25.933   2.907  51.339  1.00  0.00     0.149 C 
HETATM   11  N1  UNL     1      26.625   1.637  51.351  1.00  0.00    -0.372 N 
HETATM   12  C9  UNL     1      27.135   1.070  52.571  1.00  0.00     0.111 A 
HETATM   13  C10 UNL     1      26.204   0.407  53.271  1.00  0.00     0.041 A 
HETATM   14  C11 UNL     1      25.008   0.390  52.714  1.00  0.00     0.068 A 
HETATM   15  C12 UNL     1      23.781  -0.129  53.121  1.00  0.00     0.131 A 
HETATM   16  N2  UNL     1      23.858  -0.711  54.284  1.00  0.00    -0.241 NA
HETATM   17  C13 UNL     1      25.045  -0.753  54.946  1.00  0.00     0.151 A 
HETATM   18  C14 UNL     1      26.248  -0.206  54.479  1.00  0.00     0.084 A 
HETATM   19  N3  UNL     1      27.382  -0.183  55.054  1.00  0.00    -0.268 NA
HETATM   20  C15 UNL     1      28.551   0.437  54.494  1.00  0.00     0.272 A 
HETATM   21  N4  UNL     1      28.373   1.022  53.204  1.00  0.00    -0.358 N 
HETATM   22  N5  UNL     1      22.590   0.062  52.386  1.00  0.00    -0.301 N 
HETATM   23  H8  UNL     1      26.994   0.820  50.845  1.00  0.00     0.161 HD
HETATM   24  H13 UNL     1      28.979   1.486  52.484  1.00  0.00     0.162 HD
HETATM   25  H14 UNL     1      23.283   0.368  51.710  1.00  0.00     0.171 HD
ENDROOT
TORSDOF 0
ENDMDL
MODEL 2
REMARK VINA RESULT:      -8.8      1.021      1.195
REMARK  0 active torsions:
REMARK  status: ('A' for Active; 'I' for Inactive)
ROOT
HETATM    1  O1  UNL     1      21.679  -1.236  53.921  1.00  0.00    -0.258 OA
HETATM    2  C1  UNL     1      21.709  -0.671  52.876  1.00  0.00     0.302 C 
HETATM    3  C2  UNL     1      21.542  -0.067  51.643  1.00  0.00    -0.005 C 
HETATM    4  C3  UNL     1      21.428   0.424  50.662  1.00  0.00    -0.096 C 
HETATM    5  C4  UNL     1      21.310   1.043  49.432  1.00  0.00     0.099 C 
HETATM    6  C5  UNL     1      21.807   2.486  49.428  1.00  0.00     0.058 C 
HETATM    7  C6  UNL     1      23.114   2.686  50.041  1.00  0.00    -0.013 C 
HETATM    8 BR1  UNL     1      22.552   2.691  51.893  1.00  0.00    -0.056 Br
HETATM    9  C7  UNL     1      24.403   2.907  50.386  1.00  0.00     0.007 C 
HETATM   10  C8  UNL     1      25.325   2.983  51.583  1.00  0.00     0.149 C 
HETATM   11  N1  UNL     1      26.302   1.923  51.477  1.00  0.00    -0.372 N 
HETATM   12  C9  UNL     1      27.166   1.583  52.577  1.00  0.00     0.111 A 
HETATM   13  C10 UNL     1      26.587   0.767  53.467  1.00  0.00     0.041 A 
HETATM   14  C11 UNL     1      25.348   0.421  53.171  1.00  0.00     0.068 A 
HETATM   15  C12 UNL     1      24.395  -0.348  53.832  1.00  0.00     0.131 A 
HETATM   16  N2  UNL     1      24.841  -0.811  54.965  1.00  0.00    -0.241 NA
HETATM   17  C13 UNL     1      26.105  -0.517  55.368  1.00  0.00     0.151 A 
HETATM   18  C14 UNL     1      27.018   0.270  54.652  1.00  0.00     0.084 A 
HETATM   19  N3  UNL     1      28.200   0.607  54.979  1.00  0.00    -0.268 NA
HETATM   20  C15 UNL     1      29.042   1.450  54.178  1.00  0.00     0.272 A 
HETATM   21  N4  UNL     1      28.475   1.881  52.941  1.00  0.00    -0.358 N 
HETATM   22  N5  UNL     1      23.074  -0.504  53.356  1.00  0.00    -0.301 N 
HETATM   23  H8  UNL     1      26.759   1.185  50.923  1.00  0.00     0.161 HD
HETATM   24  H13 UNL     1      28.793   2.426  52.102  1.00  0.00     0.162 HD
HETATM   25  H14 UNL     1      23.522  -0.089  52.545  1.00  0.00     0.171 HD
ENDROOT
TORSDOF 0
ENDMDL
MODEL 3
REMARK VINA RESULT:      -8.5      2.180      2.751
REMARK  0 active torsions:
REMARK  status: ('A' for Active; 'I' for Inactive)
ROOT
HETATM    1  O1  UNL     1      18.738  -1.297  53.838  1.00  0.00    -0.258 OA
HETATM    2  C1  UNL     1      18.917  -0.633  52.869  1.00  0.00     0.302 C 
HETATM    3  C2  UNL     1      18.919   0.127  51.713  1.00  0.00    -0.005 C 
HETATM    4  C3  UNL     1      18.941   0.738  50.795  1.00  0.00    -0.096 C 
HETATM    5  C4  UNL     1      18.993   1.502  49.645  1.00  0.00     0.099 C 
HETATM    6  C5  UNL     1      19.744   2.819  49.825  1.00  0.00     0.058 C 
HETATM    7  C6  UNL     1      21.036   2.703  50.489  1.00  0.00    -0.013 C 
HETATM    8 BR1  UNL     1      20.401   2.603  52.314  1.00  0.00    -0.056 Br
HETATM    9  C7  UNL     1      22.327   2.639  50.888  1.00  0.00     0.007 C 
HETATM   10  C8  UNL     1      23.192   2.408  52.107  1.00  0.00     0.149 C 
HETATM   11  N1  UNL     1      23.963   1.203  51.899  1.00  0.00    -0.372 N 
HETATM   12  C9  UNL     1      24.700   0.587  52.971  1.00  0.00     0.111 A 
HETATM   13  C10 UNL     1      23.943  -0.203  53.744  1.00  0.00     0.041 A 
HETATM   14  C11 UNL     1      22.676  -0.276  53.378  1.00  0.00     0.068 A 
HETATM   15  C12 UNL     1      21.570  -0.925  53.921  1.00  0.00     0.131 A 
HETATM   16  N2  UNL     1      21.873  -1.586  55.001  1.00  0.00    -0.241 NA
HETATM   17  C13 UNL     1      23.150  -1.581  55.466  1.00  0.00     0.151 A 
HETATM   18  C14 UNL     1      24.222  -0.901  54.871  1.00  0.00     0.084 A 
HETATM   19  N3  UNL     1      25.429  -0.829  55.264  1.00  0.00    -0.268 NA
HETATM   20  C15 UNL     1      26.447  -0.072  54.589  1.00  0.00     0.272 A 
HETATM   21  N4  UNL     1      26.024   0.593  53.398  1.00  0.00    -0.358 N 
HETATM   22  N5  UNL     1      20.266  -0.777  53.398  1.00  0.00    -0.301 N 
HETATM   23  H8  UNL     1      24.303   0.460  51.272  1.00  0.00     0.161 HD
HETATM   24  H13 UNL     1      26.473   1.161  52.639  1.00  0.00     0.162 HD
HETATM   25  H14 UNL     1      20.819  -0.364  52.653  1.00  0.00     0.171 HD
ENDROOT
TORSDOF 0
ENDMDL
MODEL 4
REMARK VINA RESULT:      -8.4      2.195      5.533
REMARK  0 active torsions:
REMARK  status: ('A' for Active; 'I' for Inactive)
ROOT
HETATM    1  O1  UNL     1      22.307  -1.220  53.152  1.00  0.00    -0.258 OA
HETATM    2  C1  UNL     1      23.346  -0.842  53.588  1.00  0.00     0.302 C 
HETATM    3  C2  UNL     1      24.546  -0.572  54.220  1.00  0.00    -0.005 C 
HETATM    4  C3  UNL     1      25.508  -0.341  54.709  1.00  0.00    -0.096 C 
HETATM    5  C4  UNL     1      26.712  -0.029  55.311  1.00  0.00     0.099 C 
HETATM    6  C5  UNL     1      27.837   0.236  54.314  1.00  0.00     0.058 C 
HETATM    7  C6  UNL     1      27.493   1.145  53.228  1.00  0.00    -0.013 C 
HETATM    8 BR1  UNL     1      26.547  -0.115  52.104  1.00  0.00    -0.056 Br
HETATM    9  C7  UNL     1      27.316   2.143  52.333  1.00  0.00     0.007 C 
HETATM   10  C8  UNL     1      26.598   2.482  51.046  1.00  0.00     0.149 C 
HETATM   11  N1  UNL     1      25.656   3.546  51.313  1.00  0.00    -0.372 N 
HETATM   12  C9  UNL     1      24.656   3.926  50.350  1.00  0.00     0.111 A 
HETATM   13  C10 UNL     1      23.567   3.147  50.388  1.00  0.00     0.041 A 
HETATM   14  C11 UNL     1      23.608   2.190  51.297  1.00  0.00     0.068 A 
HETATM   15  C12 UNL     1      22.734   1.159  51.626  1.00  0.00     0.131 A 
HETATM   16  N2  UNL     1      21.669   1.163  50.876  1.00  0.00    -0.241 NA
HETATM   17  C13 UNL     1      21.523   2.106  49.908  1.00  0.00     0.151 A 
HETATM   18  C14 UNL     1      22.447   3.121  49.625  1.00  0.00     0.084 A 
HETATM   19  N3  UNL     1      22.390   4.014  48.722  1.00  0.00    -0.268 NA
HETATM   20  C15 UNL     1      23.418   4.993  48.498  1.00  0.00     0.272 A 
HETATM   21  N4  UNL     1      24.530   4.926  49.391  1.00  0.00    -0.358 N 
HETATM   22  N5  UNL     1      23.041   0.176  52.594  1.00  0.00    -0.301 N 
HETATM   23  H8  UNL     1      25.295   4.280  51.940  1.00  0.00     0.161 HD
HETATM   24  H13 UNL     1      25.401   5.482  49.571  1.00  0.00     0.162 HD
HETATM   25  H14 UNL     1      23.772   0.857  52.773  1.00  0.00     0.171 HD
ENDROOT
TORSDOF 0
ENDMDL
MODEL 5
REMARK VINA RESULT:      -8.3      1.865      2.611
REMARK  0 active torsions:
REMARK  status: ('A' for Active; 'I' for Inactive)
ROOT
HETATM    1  O1  UNL     1      19.087   0.381  50.876  1.00  0.00    -0.258 OA
HETATM    2  C1  UNL     1      20.005   0.837  50.273  1.00  0.00     0.302 C 
HETATM    3  C2  UNL     1      20.929   1.429  49.431  1.00  0.00    -0.005 C 
HETATM    4  C3  UNL     1      21.681   1.899  48.774  1.00  0.00    -0.096 C 
HETATM    5  C4  UNL     1      22.641   2.476  47.966  1.00  0.00     0.099 C 
HETATM    6  C5  UNL     1      23.563   3.437  48.712  1.00  0.00     0.058 C 
HETATM    7  C6  UNL     1      24.109   2.919  49.960  1.00  0.00    -0.013 C 
HETATM    8 BR1  UNL     1      22.568   3.234  51.087  1.00  0.00    -0.056 Br
HETATM    9  C7  UNL     1      24.822   2.425  50.999  1.00  0.00     0.007 C 
HETATM   10  C8  UNL     1      24.694   2.011  52.447  1.00  0.00     0.149 C 
HETATM   11  N1  UNL     1      24.961   0.593  52.543  1.00  0.00    -0.372 N 
HETATM   12  C9  UNL     1      24.685  -0.144  53.748  1.00  0.00     0.111 A 
HETATM   13  C10 UNL     1      23.404  -0.523  53.851  1.00  0.00     0.041 A 
HETATM   14  C11 UNL     1      22.642  -0.162  52.835  1.00  0.00     0.068 A 
HETATM   15  C12 UNL     1      21.282  -0.305  52.574  1.00  0.00     0.131 A 
HETATM   16  N2  UNL     1      20.662  -0.925  53.537  1.00  0.00    -0.241 NA
HETATM   17  C13 UNL     1      21.352  -1.343  54.631  1.00  0.00     0.151 A 
HETATM   18  C14 UNL     1      22.727  -1.165  54.835  1.00  0.00     0.084 A 
HETATM   19  N3  UNL     1      23.429  -1.502  55.839  1.00  0.00    -0.268 NA
HETATM   20  C15 UNL     1      24.836  -1.239  55.958  1.00  0.00     0.272 A 
HETATM   21  N4  UNL     1      25.431  -0.583  54.838  1.00  0.00    -0.358 N 
HETATM   22  N5  UNL     1      20.659   0.260  51.439  1.00  0.00    -0.301 N 
HETATM   23  H8  UNL     1      25.306  -0.279  52.118  1.00  0.00     0.161 HD
HETATM   24  H13 UNL     1      26.396  -0.295  54.544  1.00  0.00     0.162 HD
HETATM   25  H14 UNL     1      21.638   0.368  51.194  1.00  0.00     0.171 HD
ENDROOT
TORSDOF 0
ENDMDL
MODEL 6
REMARK VINA RESULT:      -8.2      3.646      6.037
REMARK  0 active torsions:
REMARK  status: ('A' for Active; 'I' for Inactive)
ROOT
HETATM    1  O1  UNL     1      18.601   1.772  51.533  1.00  0.00    -0.258 OA
HETATM    2  C1  UNL     1      19.479   1.333  52.204  1.00  0.00     0.302 C 
HETATM    3  C2  UNL     1      20.381   0.651  53.000  1.00  0.00    -0.005 C 
HETATM    4  C3  UNL     1      21.115   0.123  53.633  1.00  0.00    -0.096 C 
HETATM    5  C4  UNL     1      22.047  -0.518  54.426  1.00  0.00     0.099 C 
HETATM    6  C5  UNL     1      23.453  -0.520  53.829  1.00  0.00     0.058 C 
HETATM    7  C6  UNL     1      23.915   0.774  53.342  1.00  0.00    -0.013 C 
HETATM    8 BR1  UNL     1      22.993   0.773  51.640  1.00  0.00    -0.056 Br
HETATM    9  C7  UNL     1      24.487   1.971  53.081  1.00  0.00     0.007 C 
HETATM   10  C8  UNL     1      24.471   3.114  52.092  1.00  0.00     0.149 C 
HETATM   11  N1  UNL     1      24.019   4.306  52.776  1.00  0.00    -0.372 N 
HETATM   12  C9  UNL     1      23.669   5.500  52.054  1.00  0.00     0.111 A 
HETATM   13  C10 UNL     1      22.419   5.476  51.573  1.00  0.00     0.041 A 
HETATM   14  C11 UNL     1      21.744   4.377  51.854  1.00  0.00     0.068 A 
HETATM   15  C12 UNL     1      20.469   3.935  51.512  1.00  0.00     0.131 A 
HETATM   16  N2  UNL     1      19.835   4.798  50.770  1.00  0.00    -0.241 NA
HETATM   17  C13 UNL     1      20.437   5.966  50.422  1.00  0.00     0.151 A 
HETATM   18  C14 UNL     1      21.731   6.351  50.799  1.00  0.00     0.084 A 
HETATM   19  N3  UNL     1      22.364   7.409  50.489  1.00  0.00    -0.268 NA
HETATM   20  C15 UNL     1      23.709   7.689  50.908  1.00  0.00     0.272 A 
HETATM   21  N4  UNL     1      24.307   6.697  51.744  1.00  0.00    -0.358 N 
HETATM   22  N5  UNL     1      19.987   2.652  51.856  1.00  0.00    -0.301 N 
HETATM   23  H8  UNL     1      23.797   4.799  53.652  1.00  0.00     0.161 HD
HETATM   24  H13 UNL     1      25.206   6.583  52.272  1.00  0.00     0.162 HD
HETATM   25  H14 UNL     1      20.820   2.706  52.434  1.00  0.00     0.171 HD
ENDROOT
TORSDOF 0
ENDMDL
MODEL 7
REMARK VINA RESULT:      -7.9      2.462      4.616
REMARK  0 active torsions:
REMARK  status: ('A' for Active; 'I' for Inactive)
ROOT
HETATM    1  O1  UNL     1      27.066   2.544  50.885  1.00  0.00    -0.258 OA
HETATM    2  C1  UNL     1      26.192   3.259  50.514  1.00  0.00     0.302 C 
HETATM    3  C2  UNL     1      25.323   4.189  49.972  1.00  0.00    -0.005 C 
HETATM    4  C3  UNL     1      24.614   4.920  49.548  1.00  0.00    -0.096 C 
HETATM    5  C4  UNL     1      23.709   5.827  49.032  1.00  0.00     0.099 C 
HETATM    6  C5  UNL     1      22.486   5.169  48.397  1.00  0.00     0.058 C 
HETATM    7  C6  UNL     1      21.855   4.135  49.208  1.00  0.00    -0.013 C 
HETATM    8 BR1  UNL     1      23.073   2.687  48.804  1.00  0.00    -0.056 Br
HETATM    9  C7  UNL     1      21.095   3.336  49.992  1.00  0.00     0.007 C 
HETATM   10  C8  UNL     1      21.054   1.957  50.611  1.00  0.00     0.149 C 
HETATM   11  N1  UNL     1      21.086   2.100  52.049  1.00  0.00    -0.372 N 
HETATM   12  C9  UNL     1      21.299   0.968  52.913  1.00  0.00     0.111 A 
HETATM   13  C10 UNL     1      22.594   0.655  53.059  1.00  0.00     0.041 A 
HETATM   14  C11 UNL     1      23.426   1.439  52.398  1.00  0.00     0.068 A 
HETATM   15  C12 UNL     1      24.809   1.433  52.240  1.00  0.00     0.131 A 
HETATM   16  N2  UNL     1      25.370   0.450  52.886  1.00  0.00    -0.241 NA
HETATM   17  C13 UNL     1      24.606  -0.417  53.601  1.00  0.00     0.151 A 
HETATM   18  C14 UNL     1      23.210  -0.356  53.718  1.00  0.00     0.084 A 
HETATM   19  N3  UNL     1      22.433  -1.144  54.343  1.00  0.00    -0.268 NA
HETATM   20  C15 UNL     1      21.004  -1.005  54.370  1.00  0.00     0.272 A 
HETATM   21  N4  UNL     1      20.486   0.119  53.658  1.00  0.00    -0.358 N 
HETATM   22  N5  UNL     1      25.484   2.335  51.388  1.00  0.00    -0.301 N 
HETATM   23  H8  UNL     1      21.015   2.694  52.887  1.00  0.00     0.161 HD
HETATM   24  H13 UNL     1      19.549   0.565  53.509  1.00  0.00     0.162 HD
HETATM   25  H14 UNL     1      24.562   2.759  51.425  1.00  0.00     0.171 HD
ENDROOT
TORSDOF 0
ENDMDL
MODEL 8
REMARK VINA RESULT:      -7.9      2.913      6.916
REMARK  0 active torsions:
REMARK  status: ('A' for Active; 'I' for Inactive)
ROOT
HETATM    1  O1  UNL     1      26.603   3.957  49.935  1.00  0.00    -0.258 OA
HETATM    2  C1  UNL     1      26.474   2.940  50.536  1.00  0.00     0.302 C 
HETATM    3  C2  UNL     1      26.525   1.783  51.292  1.00  0.00    -0.005 C 
HETATM    4  C3  UNL     1      26.545   0.857  51.893  1.00  0.00    -0.096 C 
HETATM    5  C4  UNL     1      26.547  -0.307  52.636  1.00  0.00     0.099 C 
HETATM    6  C5  UNL     1      25.389  -0.397  53.627  1.00  0.00     0.058 C 
HETATM    7  C6  UNL     1      24.079  -0.081  53.070  1.00  0.00    -0.013 C 
HETATM    8 BR1  UNL     1      24.217   1.849  53.123  1.00  0.00    -0.056 Br
HETATM    9  C7  UNL     1      22.823  -0.021  52.574  1.00  0.00     0.007 C 
HETATM   10  C8  UNL     1      21.796   0.946  52.031  1.00  0.00     0.149 C 
HETATM   11  N1  UNL     1      21.540   0.614  50.647  1.00  0.00    -0.372 N 
HETATM   12  C9  UNL     1      20.792   1.494  49.788  1.00  0.00     0.111 A 
HETATM   13  C10 UNL     1      21.537   2.476  49.265  1.00  0.00     0.041 A 
HETATM   14  C11 UNL     1      22.808   2.451  49.623  1.00  0.00     0.068 A 
HETATM   15  C12 UNL     1      23.884   3.293  49.355  1.00  0.00     0.131 A 
HETATM   16  N2  UNL     1      23.544   4.294  48.595  1.00  0.00    -0.241 NA
HETATM   17  C13 UNL     1      22.260   4.416  48.166  1.00  0.00     0.151 A 
HETATM   18  C14 UNL     1      21.218   3.531  48.475  1.00  0.00     0.084 A 
HETATM   19  N3  UNL     1      19.995   3.598  48.135  1.00  0.00    -0.268 NA
HETATM   20  C15 UNL     1      18.998   2.645  48.538  1.00  0.00     0.272 A 
HETATM   21  N4  UNL     1      19.475   1.568  49.345  1.00  0.00    -0.358 N 
HETATM   22  N5  UNL     1      25.158   3.113  49.940  1.00  0.00    -0.301 N 
HETATM   23  H8  UNL     1      21.635  -0.038  49.856  1.00  0.00     0.161 HD
HETATM   24  H13 UNL     1      19.079   0.689  49.759  1.00  0.00     0.162 HD
HETATM   25  H14 UNL     1      24.713   2.231  50.174  1.00  0.00     0.171 HD
ENDROOT
TORSDOF 0
ENDMDL
MODEL 9
REMARK VINA RESULT:      -7.7      2.937      6.731
REMARK  0 active torsions:
REMARK  status: ('A' for Active; 'I' for Inactive)
ROOT
HETATM    1  O1  UNL     1      25.238   1.591  52.914  1.00  0.00    -0.258 OA
HETATM    2  C1  UNL     1      24.334   0.839  53.089  1.00  0.00     0.302 C 
HETATM    3  C2  UNL     1      23.385  -0.093  53.467  1.00  0.00    -0.005 C 
HETATM    4  C3  UNL     1      22.614  -0.829  53.753  1.00  0.00    -0.096 C 
HETATM    5  C4  UNL     1      21.639  -1.748  54.089  1.00  0.00     0.099 C 
HETATM    6  C5  UNL     1      20.229  -1.163  54.087  1.00  0.00     0.058 C 
HETATM    7  C6  UNL     1      19.890  -0.382  52.904  1.00  0.00    -0.013 C 
HETATM    8 BR1  UNL     1      20.771   1.267  53.402  1.00  0.00    -0.056 Br
HETATM    9  C7  UNL     1      19.436   0.157  51.750  1.00  0.00     0.007 C 
HETATM   10  C8  UNL     1      19.547   1.389  50.880  1.00  0.00     0.149 C 
HETATM   11  N1  UNL     1      20.130   1.005  49.614  1.00  0.00    -0.372 N 
HETATM   12  C9  UNL     1      20.585   1.988  48.666  1.00  0.00     0.111 A 
HETATM   13  C10 UNL     1      21.816   2.445  48.931  1.00  0.00     0.041 A 
HETATM   14  C11 UNL     1      22.382   1.909  49.997  1.00  0.00     0.068 A 
HETATM   15  C12 UNL     1      23.599   2.131  50.636  1.00  0.00     0.131 A 
HETATM   16  N2  UNL     1      24.301   3.054  50.042  1.00  0.00    -0.241 NA
HETATM   17  C13 UNL     1      23.813   3.671  48.934  1.00  0.00     0.151 A 
HETATM   18  C14 UNL     1      22.572   3.401  48.339  1.00  0.00     0.084 A 
HETATM   19  N3  UNL     1      22.043   3.955  47.325  1.00  0.00    -0.268 NA
HETATM   20  C15 UNL     1      20.742   3.619  46.817  1.00  0.00     0.272 A 
HETATM   21  N4  UNL     1      20.064   2.575  47.517  1.00  0.00    -0.358 N 
HETATM   22  N5  UNL     1      23.955   1.491  51.844  1.00  0.00    -0.301 N 
HETATM   23  H8  UNL     1      20.419   0.270  48.953  1.00  0.00     0.161 HD
HETATM   24  H13 UNL     1      19.170   2.038  47.410  1.00  0.00     0.162 HD
HETATM   25  H14 UNL     1      23.144   0.946  51.570  1.00  0.00     0.171 HD
ENDROOT
TORSDOF 0
ENDMDL
