MODEL 1
REMARK VINA RESULT:      -7.5      0.000      0.000
REMARK  2 active torsions:
REMARK  status: ('A' for Active; 'I' for Inactive)
REMARK    1  A    between atoms: C6_6  and  N1_7 
REMARK    2  A    between atoms: N1_7  and  C7_8 
ROOT
HETATM    1  C7  UNL     1      30.350   6.022  48.218  1.00  0.00     0.427 C 
HETATM    2  N2  UNL     1      30.849   5.979  49.545  1.00  0.00     0.136 N 
HETATM    3  C8  UNL     1      31.962   6.891  49.793  1.00  0.00     0.302 C 
HETATM    4  C9  UNL     1      31.625   8.281  49.509  1.00  0.00     0.016 C 
HETATM    5  C10 UNL     1      30.684   8.279  48.635  1.00  0.00     0.015 C 
HETATM    6  C11 UNL     1      29.545   9.236  48.409  1.00  0.00     0.137 C 
HETATM    7  N3  UNL     1      29.726   9.820  47.278  1.00  0.00    -0.224 NA
HETATM    8  C12 UNL     1      30.540   9.115  46.262  1.00  0.00     0.230 C 
HETATM    9  N4  UNL     1      31.080   7.896  46.499  1.00  0.00    -0.268 NA
HETATM   10  C13 UNL     1      30.421   7.261  47.525  1.00  0.00     0.223 C 
HETATM   11  N5  UNL     1      28.311   9.792  48.908  1.00  0.00    -0.350 N 
HETATM   12  C14 UNL     1      27.118   9.028  48.862  1.00  0.00     0.090 C 
HETATM   13  C15 UNL     1      26.856   7.704  48.688  1.00  0.00     0.020 C 
HETATM   14  C16 UNL     1      27.660   6.480  48.469  1.00  0.00     0.044 C 
HETATM   15  C17 UNL     1      28.808   5.786  48.298  1.00  0.00     0.166 C 
HETATM   16  F1  UNL     1      28.574   4.458  48.135  1.00  0.00    -0.206 F 
HETATM   17  H13 UNL     1      30.069   6.231  50.221  1.00  0.00     0.320 HD
HETATM   18  H19 UNL     1      28.373  10.754  49.291  1.00  0.00     0.166 HD
ENDROOT
BRANCH   1  19
HETATM   19  N1  UNL     1      30.906   4.982  47.404  1.00  0.00     0.138 N 
HETATM   20  H12 UNL     1      30.342   4.130  47.512  1.00  0.00     0.320 HD
BRANCH  19  21
HETATM   21  C6  UNL     1      32.291   4.844  47.430  1.00  0.00     0.228 C 
HETATM   22  C2  UNL     1      32.715   3.389  47.742  1.00  0.00     0.015 C 
HETATM   23  C1  UNL     1      32.294   2.440  46.651  1.00  0.00     0.012 C 
HETATM   24  C3  UNL     1      34.218   3.557  47.639  1.00  0.00     0.006 C 
HETATM   25  C4  UNL     1      34.409   4.506  46.472  1.00  0.00     0.002 C 
HETATM   26  C5  UNL     1      32.984   4.925  46.048  1.00  0.00     0.036 C 
ENDBRANCH  19  21
ENDBRANCH   1  19
TORSDOF 2
ENDMDL
MODEL 2
REMARK VINA RESULT:      -7.5      8.507     10.802
REMARK  2 active torsions:
REMARK  status: ('A' for Active; 'I' for Inactive)
REMARK    1  A    between atoms: C6_6  and  N1_7 
REMARK    2  A    between atoms: N1_7  and  C7_8 
ROOT
HETATM    1  C7  UNL     1      22.919   2.168  51.645  1.00  0.00     0.427 C 
HETATM    2  N2  UNL     1      22.816   3.317  52.470  1.00  0.00     0.136 N 
HETATM    3  C8  UNL     1      21.571   4.061  52.302  1.00  0.00     0.302 C 
HETATM    4  C9  UNL     1      20.389   3.246  52.560  1.00  0.00     0.016 C 
HETATM    5  C10 UNL     1      20.707   2.023  52.328  1.00  0.00     0.015 C 
HETATM    6  C11 UNL     1      20.221   0.742  52.952  1.00  0.00     0.137 C 
HETATM    7  N3  UNL     1      19.578   0.076  52.059  1.00  0.00    -0.224 NA
HETATM    8  C12 UNL     1      19.910   0.332  50.639  1.00  0.00     0.230 C 
HETATM    9  N4  UNL     1      20.859   1.229  50.276  1.00  0.00    -0.268 NA
HETATM   10  C13 UNL     1      21.718   1.479  51.319  1.00  0.00     0.223 C 
HETATM   11  N5  UNL     1      20.164  -0.087  54.130  1.00  0.00    -0.350 N 
HETATM   12  C14 UNL     1      21.307  -0.821  54.538  1.00  0.00     0.090 C 
HETATM   13  C15 UNL     1      22.630  -0.747  54.230  1.00  0.00     0.020 C 
HETATM   14  C16 UNL     1      23.473   0.098  53.353  1.00  0.00     0.044 C 
HETATM   15  C17 UNL     1      23.699   1.086  52.458  1.00  0.00     0.166 C 
HETATM   16  F1  UNL     1      25.017   1.189  52.143  1.00  0.00    -0.206 F 
HETATM   17  H13 UNL     1      22.883   3.025  53.488  1.00  0.00     0.320 HD
HETATM   18  H19 UNL     1      19.256  -0.095  54.632  1.00  0.00     0.166 HD
ENDROOT
BRANCH   1  19
HETATM   19  N1  UNL     1      23.662   2.432  50.449  1.00  0.00     0.138 N 
HETATM   20  H12 UNL     1      24.418   1.742  50.362  1.00  0.00     0.320 HD
BRANCH  19  21
HETATM   21  C6  UNL     1      23.974   3.763  50.190  1.00  0.00     0.228 C 
HETATM   22  C2  UNL     1      25.478   4.051  50.405  1.00  0.00     0.015 C 
HETATM   23  C1  UNL     1      26.336   3.298  49.423  1.00  0.00     0.012 C 
HETATM   24  C3  UNL     1      25.498   5.510  49.996  1.00  0.00     0.006 C 
HETATM   25  C4  UNL     1      24.548   5.580  48.817  1.00  0.00     0.002 C 
HETATM   26  C5  UNL     1      23.941   4.165  48.695  1.00  0.00     0.036 C 
ENDBRANCH  19  21
ENDBRANCH   1  19
TORSDOF 2
ENDMDL
MODEL 3
REMARK VINA RESULT:      -7.4      8.218      9.709
REMARK  2 active torsions:
REMARK  status: ('A' for Active; 'I' for Inactive)
REMARK    1  A    between atoms: C6_6  and  N1_7 
REMARK    2  A    between atoms: N1_7  and  C7_8 
ROOT
HETATM    1  C7  UNL     1      23.877   1.472  52.302  1.00  0.00     0.427 C 
HETATM    2  N2  UNL     1      23.926   2.294  53.457  1.00  0.00     0.136 N 
HETATM    3  C8  UNL     1      24.167   3.706  53.174  1.00  0.00     0.302 C 
HETATM    4  C9  UNL     1      23.164   4.281  52.286  1.00  0.00     0.016 C 
HETATM    5  C10 UNL     1      22.683   3.323  51.576  1.00  0.00     0.015 C 
HETATM    6  C11 UNL     1      21.311   3.121  50.993  1.00  0.00     0.137 C 
HETATM    7  N3  UNL     1      21.406   3.170  49.711  1.00  0.00    -0.224 NA
HETATM    8  C12 UNL     1      22.714   2.834  49.105  1.00  0.00     0.230 C 
HETATM    9  N4  UNL     1      23.782   2.483  49.859  1.00  0.00    -0.268 NA
HETATM   10  C13 UNL     1      23.383   2.050  51.101  1.00  0.00     0.223 C 
HETATM   11  N5  UNL     1      19.911   2.884  51.242  1.00  0.00    -0.350 N 
HETATM   12  C14 UNL     1      19.468   1.595  51.636  1.00  0.00     0.090 C 
HETATM   13  C15 UNL     1      20.099   0.495  52.128  1.00  0.00     0.020 C 
HETATM   14  C16 UNL     1      21.494   0.130  52.468  1.00  0.00     0.044 C 
HETATM   15  C17 UNL     1      22.822   0.353  52.577  1.00  0.00     0.166 C 
HETATM   16  F1  UNL     1      23.474  -0.728  53.079  1.00  0.00    -0.206 F 
HETATM   17  H13 UNL     1      23.004   2.222  53.978  1.00  0.00     0.320 HD
HETATM   18  H19 UNL     1      19.286   3.702  51.117  1.00  0.00     0.166 HD
ENDROOT
BRANCH   1  19
HETATM   19  N1  UNL     1      25.133   0.832  52.047  1.00  0.00     0.138 N 
HETATM   20  H12 UNL     1      24.963  -0.130  51.729  1.00  0.00     0.320 HD
BRANCH  19  21
HETATM   21  C6  UNL     1      26.137   1.029  52.991  1.00  0.00     0.228 C 
HETATM   22  C2  UNL     1      26.542  -0.296  53.680  1.00  0.00     0.015 C 
HETATM   23  C1  UNL     1      27.167  -1.261  52.708  1.00  0.00     0.012 C 
HETATM   24  C3  UNL     1      27.651   0.233  54.568  1.00  0.00     0.006 C 
HETATM   25  C4  UNL     1      28.361   1.258  53.708  1.00  0.00     0.002 C 
HETATM   26  C5  UNL     1      27.534   1.345  52.406  1.00  0.00     0.036 C 
ENDBRANCH  19  21
ENDBRANCH   1  19
TORSDOF 2
ENDMDL
MODEL 4
REMARK VINA RESULT:      -7.3      6.569      8.265
REMARK  2 active torsions:
REMARK  status: ('A' for Active; 'I' for Inactive)
REMARK    1  A    between atoms: C6_6  and  N1_7 
REMARK    2  A    between atoms: N1_7  and  C7_8 
ROOT
HETATM    1  C7  UNL     1      24.557   2.967  51.280  1.00  0.00     0.427 C 
HETATM    2  N2  UNL     1      25.810   3.624  51.376  1.00  0.00     0.136 N 
HETATM    3  C8  UNL     1      26.559   3.664  50.122  1.00  0.00     0.302 C 
HETATM    4  C9  UNL     1      25.820   4.311  49.045  1.00  0.00     0.016 C 
HETATM    5  C10 UNL     1      24.568   4.181  49.304  1.00  0.00     0.015 C 
HETATM    6  C11 UNL     1      23.398   5.076  48.994  1.00  0.00     0.137 C 
HETATM    7  N3  UNL     1      22.635   4.467  48.156  1.00  0.00    -0.224 NA
HETATM    8  C12 UNL     1      22.686   2.988  48.129  1.00  0.00     0.230 C 
HETATM    9  N4  UNL     1      23.498   2.285  48.953  1.00  0.00    -0.268 NA
HETATM   10  C13 UNL     1      23.864   3.042  50.041  1.00  0.00     0.223 C 
HETATM   11  N5  UNL     1      22.738   6.335  49.232  1.00  0.00    -0.350 N 
HETATM   12  C14 UNL     1      22.035   6.550  50.445  1.00  0.00     0.090 C 
HETATM   13  C15 UNL     1      22.029   5.922  51.652  1.00  0.00     0.020 C 
HETATM   14  C16 UNL     1      22.723   4.758  52.249  1.00  0.00     0.044 C 
HETATM   15  C17 UNL     1      23.574   3.708  52.242  1.00  0.00     0.166 C 
HETATM   16  F1  UNL     1      23.597   3.070  53.442  1.00  0.00    -0.206 F 
HETATM   17  H13 UNL     1      25.657   4.626  51.692  1.00  0.00     0.320 HD
HETATM   18  H19 UNL     1      22.823   7.039  48.475  1.00  0.00     0.166 HD
ENDROOT
BRANCH   1  19
HETATM   19  N1  UNL     1      24.635   1.601  51.706  1.00  0.00     0.138 N 
HETATM   20  H12 UNL     1      23.728   1.316  52.095  1.00  0.00     0.320 HD
BRANCH  19  21
HETATM   21  C6  UNL     1      25.780   1.231  52.406  1.00  0.00     0.228 C 
HETATM   22  C2  UNL     1      25.434   0.613  53.782  1.00  0.00     0.015 C 
HETATM   23  C1  UNL     1      24.683  -0.684  53.637  1.00  0.00     0.012 C 
HETATM   24  C3  UNL     1      26.837   0.274  54.245  1.00  0.00     0.006 C 
HETATM   25  C4  UNL     1      27.536  -0.215  52.992  1.00  0.00     0.002 C 
HETATM   26  C5  UNL     1      26.517  -0.010  51.848  1.00  0.00     0.036 C 
ENDBRANCH  19  21
ENDBRANCH   1  19
TORSDOF 2
ENDMDL
MODEL 5
REMARK VINA RESULT:      -7.3      5.749      8.486
REMARK  2 active torsions:
REMARK  status: ('A' for Active; 'I' for Inactive)
REMARK    1  A    between atoms: C6_6  and  N1_7 
REMARK    2  A    between atoms: N1_7  and  C7_8 
ROOT
HETATM    1  C7  UNL     1      24.486   3.630  50.069  1.00  0.00     0.427 C 
HETATM    2  N2  UNL     1      23.819   3.171  48.904  1.00  0.00     0.136 N 
HETATM    3  C8  UNL     1      22.593   3.902  48.594  1.00  0.00     0.302 C 
HETATM    4  C9  UNL     1      22.819   5.332  48.420  1.00  0.00     0.016 C 
HETATM    5  C10 UNL     1      23.866   5.643  49.097  1.00  0.00     0.015 C 
HETATM    6  C11 UNL     1      24.920   6.691  48.861  1.00  0.00     0.137 C 
HETATM    7  N3  UNL     1      24.834   7.568  49.798  1.00  0.00    -0.224 NA
HETATM    8  C12 UNL     1      24.243   7.142  51.086  1.00  0.00     0.230 C 
HETATM    9  N4  UNL     1      23.806   5.876  51.290  1.00  0.00    -0.268 NA
HETATM   10  C13 UNL     1      24.381   5.011  50.390  1.00  0.00     0.223 C 
HETATM   11  N5  UNL     1      26.009   7.150  48.036  1.00  0.00    -0.350 N 
HETATM   12  C14 UNL     1      27.271   6.506  48.102  1.00  0.00     0.090 C 
HETATM   13  C15 UNL     1      27.690   5.309  48.595  1.00  0.00     0.020 C 
HETATM   14  C16 UNL     1      27.054   4.156  49.273  1.00  0.00     0.044 C 
HETATM   15  C17 UNL     1      26.019   3.475  49.813  1.00  0.00     0.166 C 
HETATM   16  F1  UNL     1      26.410   2.268  50.301  1.00  0.00    -0.206 F 
HETATM   17  H13 UNL     1      24.469   3.262  48.070  1.00  0.00     0.320 HD
HETATM   18  H19 UNL     1      25.796   7.953  47.415  1.00  0.00     0.166 HD
ENDROOT
BRANCH   1  19
HETATM   19  N1  UNL     1      24.156   2.842  51.220  1.00  0.00     0.138 N 
HETATM   20  H12 UNL     1      24.977   2.291  51.498  1.00  0.00     0.320 HD
BRANCH  19  21
HETATM   21  C6  UNL     1      22.924   2.194  51.199  1.00  0.00     0.228 C 
HETATM   22  C2  UNL     1      23.022   0.761  51.774  1.00  0.00     0.015 C 
HETATM   23  C1  UNL     1      23.383   0.770  53.236  1.00  0.00     0.012 C 
HETATM   24  C3  UNL     1      21.561   0.368  51.672  1.00  0.00     0.006 C 
HETATM   25  C4  UNL     1      20.809   1.629  52.049  1.00  0.00     0.002 C 
HETATM   26  C5  UNL     1      21.893   2.715  52.229  1.00  0.00     0.036 C 
ENDBRANCH  19  21
ENDBRANCH   1  19
TORSDOF 2
ENDMDL
MODEL 6
REMARK VINA RESULT:      -7.2      6.809      9.461
REMARK  2 active torsions:
REMARK  status: ('A' for Active; 'I' for Inactive)
REMARK    1  A    between atoms: C6_6  and  N1_7 
REMARK    2  A    between atoms: N1_7  and  C7_8 
ROOT
HETATM    1  C7  UNL     1      24.466   3.314  51.221  1.00  0.00     0.427 C 
HETATM    2  N2  UNL     1      24.170   4.213  52.277  1.00  0.00     0.136 N 
HETATM    3  C8  UNL     1      22.792   4.697  52.278  1.00  0.00     0.302 C 
HETATM    4  C9  UNL     1      21.815   3.617  52.352  1.00  0.00     0.016 C 
HETATM    5  C10 UNL     1      22.365   2.566  51.858  1.00  0.00     0.015 C 
HETATM    6  C11 UNL     1      22.181   1.108  52.186  1.00  0.00     0.137 C 
HETATM    7  N3  UNL     1      21.647   0.530  51.170  1.00  0.00    -0.224 NA
HETATM    8  C12 UNL     1      21.853   1.146  49.840  1.00  0.00     0.230 C 
HETATM    9  N4  UNL     1      22.579   2.279  49.682  1.00  0.00    -0.268 NA
HETATM   10  C13 UNL     1      23.418   2.475  50.753  1.00  0.00     0.223 C 
HETATM   11  N5  UNL     1      22.351   0.053  53.154  1.00  0.00    -0.350 N 
HETATM   12  C14 UNL     1      23.637  -0.494  53.390  1.00  0.00     0.090 C 
HETATM   13  C15 UNL     1      24.901  -0.080  53.104  1.00  0.00     0.020 C 
HETATM   14  C16 UNL     1      25.512   1.090  52.433  1.00  0.00     0.044 C 
HETATM   15  C17 UNL     1      25.488   2.272  51.776  1.00  0.00     0.166 C 
HETATM   16  F1  UNL     1      26.741   2.714  51.490  1.00  0.00    -0.206 F 
HETATM   17  H13 UNL     1      24.343   3.731  53.207  1.00  0.00     0.320 HD
HETATM   18  H19 UNL     1      21.489  -0.252  53.643  1.00  0.00     0.166 HD
ENDROOT
BRANCH   1  19
HETATM   19  N1  UNL     1      25.082   3.978  50.110  1.00  0.00     0.138 N 
HETATM   20  H12 UNL     1      26.085   3.755  50.098  1.00  0.00     0.320 HD
BRANCH  19  21
HETATM   21  C6  UNL     1      24.716   5.303  49.895  1.00  0.00     0.228 C 
HETATM   22  C2  UNL     1      25.952   6.227  49.777  1.00  0.00     0.015 C 
HETATM   23  C1  UNL     1      26.782   5.896  48.565  1.00  0.00     0.012 C 
HETATM   24  C3  UNL     1      25.240   7.535  49.495  1.00  0.00     0.006 C 
HETATM   25  C4  UNL     1      24.097   7.147  48.578  1.00  0.00     0.002 C 
HETATM   26  C5  UNL     1      24.150   5.606  48.486  1.00  0.00     0.036 C 
ENDBRANCH  19  21
ENDBRANCH   1  19
TORSDOF 2
ENDMDL
MODEL 7
REMARK VINA RESULT:      -7.2      5.302      7.422
REMARK  2 active torsions:
REMARK  status: ('A' for Active; 'I' for Inactive)
REMARK    1  A    between atoms: C6_6  and  N1_7 
REMARK    2  A    between atoms: N1_7  and  C7_8 
ROOT
HETATM    1  C7  UNL     1      25.135   4.349  50.147  1.00  0.00     0.427 C 
HETATM    2  N2  UNL     1      24.587   3.391  49.256  1.00  0.00     0.136 N 
HETATM    3  C8  UNL     1      23.128   3.334  49.265  1.00  0.00     0.302 C 
HETATM    4  C9  UNL     1      22.513   4.617  48.941  1.00  0.00     0.016 C 
HETATM    5  C10 UNL     1      23.348   5.538  49.267  1.00  0.00     0.015 C 
HETATM    6  C11 UNL     1      23.602   6.896  48.670  1.00  0.00     0.137 C 
HETATM    7  N3  UNL     1      23.261   7.786  49.533  1.00  0.00    -0.224 NA
HETATM    8  C12 UNL     1      23.275   7.401  50.962  1.00  0.00     0.230 C 
HETATM    9  N4  UNL     1      23.636   6.158  51.364  1.00  0.00    -0.268 NA
HETATM   10  C13 UNL     1      24.380   5.528  50.395  1.00  0.00     0.223 C 
HETATM   11  N5  UNL     1      24.075   7.653  47.538  1.00  0.00    -0.350 N 
HETATM   12  C14 UNL     1      25.466   7.750  47.281  1.00  0.00     0.090 C 
HETATM   13  C15 UNL     1      26.552   7.050  47.708  1.00  0.00     0.020 C 
HETATM   14  C16 UNL     1      26.790   5.903  48.614  1.00  0.00     0.044 C 
HETATM   15  C17 UNL     1      26.419   4.926  49.471  1.00  0.00     0.166 C 
HETATM   16  F1  UNL     1      27.485   4.203  49.903  1.00  0.00    -0.206 F 
HETATM   17  H13 UNL     1      24.895   3.617  48.266  1.00  0.00     0.320 HD
HETATM   18  H19 UNL     1      23.342   8.096  46.954  1.00  0.00     0.166 HD
ENDROOT
BRANCH   1  19
HETATM   19  N1  UNL     1      25.527   3.759  51.393  1.00  0.00     0.138 N 
HETATM   20  H12 UNL     1      26.389   4.209  51.723  1.00  0.00     0.320 HD
BRANCH  19  21
HETATM   21  C6  UNL     1      25.455   2.371  51.475  1.00  0.00     0.228 C 
HETATM   22  C2  UNL     1      26.826   1.746  51.826  1.00  0.00     0.015 C 
HETATM   23  C1  UNL     1      27.288   2.151  53.201  1.00  0.00     0.012 C 
HETATM   24  C3  UNL     1      26.409   0.291  51.899  1.00  0.00     0.006 C 
HETATM   25  C4  UNL     1      25.044   0.327  52.557  1.00  0.00     0.002 C 
HETATM   26  C5  UNL     1      24.704   1.827  52.714  1.00  0.00     0.036 C 
ENDBRANCH  19  21
ENDBRANCH   1  19
TORSDOF 2
ENDMDL
MODEL 8
REMARK VINA RESULT:      -7.1      8.282     10.496
REMARK  2 active torsions:
REMARK  status: ('A' for Active; 'I' for Inactive)
REMARK    1  A    between atoms: C6_6  and  N1_7 
REMARK    2  A    between atoms: N1_7  and  C7_8 
ROOT
HETATM    1  C7  UNL     1      22.151   2.608  51.510  1.00  0.00     0.427 C 
HETATM    2  N2  UNL     1      23.330   2.769  52.281  1.00  0.00     0.136 N 
HETATM    3  C8  UNL     1      24.531   2.224  51.654  1.00  0.00     0.302 C 
HETATM    4  C9  UNL     1      24.796   2.808  50.344  1.00  0.00     0.016 C 
HETATM    5  C10 UNL     1      23.673   3.208  49.866  1.00  0.00     0.015 C 
HETATM    6  C11 UNL     1      23.342   4.359  48.954  1.00  0.00     0.137 C 
HETATM    7  N3  UNL     1      22.920   3.880  47.837  1.00  0.00    -0.224 NA
HETATM    8  C12 UNL     1      22.324   2.526  47.850  1.00  0.00     0.230 C 
HETATM    9  N4  UNL     1      22.215   1.803  48.990  1.00  0.00    -0.268 NA
HETATM   10  C13 UNL     1      22.281   2.620  50.094  1.00  0.00     0.223 C 
HETATM   11  N5  UNL     1      23.281   5.789  48.780  1.00  0.00    -0.350 N 
HETATM   12  C14 UNL     1      22.246   6.535  49.397  1.00  0.00     0.090 C 
HETATM   13  C15 UNL     1      21.367   6.271  50.402  1.00  0.00     0.020 C 
HETATM   14  C16 UNL     1      21.080   5.120  51.290  1.00  0.00     0.044 C 
HETATM   15  C17 UNL     1      21.261   3.867  51.761  1.00  0.00     0.166 C 
HETATM   16  F1  UNL     1      20.402   3.581  52.775  1.00  0.00    -0.206 F 
HETATM   17  H13 UNL     1      23.497   3.803  52.455  1.00  0.00     0.320 HD
HETATM   18  H19 UNL     1      24.029   6.204  48.194  1.00  0.00     0.166 HD
ENDROOT
BRANCH   1  19
HETATM   19  N1  UNL     1      21.400   1.457  51.915  1.00  0.00     0.138 N 
HETATM   20  H12 UNL     1      20.397   1.677  51.874  1.00  0.00     0.320 HD
BRANCH  19  21
HETATM   21  C6  UNL     1      21.863   0.772  53.034  1.00  0.00     0.228 C 
HETATM   22  C2  UNL     1      20.712   0.416  54.005  1.00  0.00     0.015 C 
HETATM   23  C1  UNL     1      19.739  -0.552  53.385  1.00  0.00     0.012 C 
HETATM   24  C3  UNL     1      21.509  -0.346  55.044  1.00  0.00     0.006 C 
HETATM   25  C4  UNL     1      22.516  -1.139  54.235  1.00  0.00     0.002 C 
HETATM   26  C5  UNL     1      22.313  -0.686  52.771  1.00  0.00     0.036 C 
ENDBRANCH  19  21
ENDBRANCH   1  19
TORSDOF 2
ENDMDL
MODEL 9
REMARK VINA RESULT:      -7.1      9.579     12.286
REMARK  2 active torsions:
REMARK  status: ('A' for Active; 'I' for Inactive)
REMARK    1  A    between atoms: C6_6  and  N1_7 
REMARK    2  A    between atoms: N1_7  and  C7_8 
ROOT
HETATM    1  C7  UNL     1      21.362   0.950  51.712  1.00  0.00     0.427 C 
HETATM    2  N2  UNL     1      21.393   0.388  50.410  1.00  0.00     0.136 N 
HETATM    3  C8  UNL     1      21.606   1.365  49.345  1.00  0.00     0.302 C 
HETATM    4  C9  UNL     1      22.843   2.120  49.512  1.00  0.00     0.016 C 
HETATM    5  C10 UNL     1      23.122   2.129  50.767  1.00  0.00     0.015 C 
HETATM    6  C11 UNL     1      24.445   2.159  51.483  1.00  0.00     0.137 C 
HETATM    7  N3  UNL     1      24.543   3.280  52.104  1.00  0.00    -0.224 NA
HETATM    8  C12 UNL     1      23.289   3.973  52.475  1.00  0.00     0.230 C 
HETATM    9  N4  UNL     1      22.072   3.455  52.182  1.00  0.00    -0.268 NA
HETATM   10  C13 UNL     1      22.159   2.102  51.953  1.00  0.00     0.223 C 
HETATM   11  N5  UNL     1      25.672   1.467  51.792  1.00  0.00    -0.350 N 
HETATM   12  C14 UNL     1      25.671   0.404  52.730  1.00  0.00     0.090 C 
HETATM   13  C15 UNL     1      24.691  -0.368  53.273  1.00  0.00     0.020 C 
HETATM   14  C16 UNL     1      23.218  -0.459  53.153  1.00  0.00     0.044 C 
HETATM   15  C17 UNL     1      22.006  -0.094  52.679  1.00  0.00     0.166 C 
HETATM   16  F1  UNL     1      21.010  -0.860  53.198  1.00  0.00    -0.206 F 
HETATM   17  H13 UNL     1      22.177  -0.326  50.354  1.00  0.00     0.320 HD
HETATM   18  H19 UNL     1      26.515   1.798  51.287  1.00  0.00     0.166 HD
ENDROOT
BRANCH   1  19
HETATM   19  N1  UNL     1      20.022   1.189  52.160  1.00  0.00     0.138 N 
HETATM   20  H12 UNL     1      19.882   0.726  53.066  1.00  0.00     0.320 HD
BRANCH  19  21
HETATM   21  C6  UNL     1      19.015   1.060  51.208  1.00  0.00     0.228 C 
HETATM   22  C2  UNL     1      18.308  -0.313  51.306  1.00  0.00     0.015 C 
HETATM   23  C1  UNL     1      17.573  -0.470  52.611  1.00  0.00     0.012 C 
HETATM   24  C3  UNL     1      17.267  -0.118  50.222  1.00  0.00     0.006 C 
HETATM   25  C4  UNL     1      16.835   1.327  50.375  1.00  0.00     0.002 C 
HETATM   26  C5  UNL     1      17.752   1.915  51.471  1.00  0.00     0.036 C 
ENDBRANCH  19  21
ENDBRANCH   1  19
TORSDOF 2
ENDMDL
