MODEL 1
REMARK VINA RESULT:      -7.0      0.000      0.000
REMARK  7 active torsions:
REMARK  status: ('A' for Active; 'I' for Inactive)
REMARK    1  A    between atoms: O1_2  and  C2_3 
REMARK    2  A    between atoms: C4_5  and  C5_6 
REMARK    3  A    between atoms: C5_6  and  C6_7 
REMARK    4  A    between atoms: C6_7  and  C7_8 
REMARK    5  A    between atoms: C11_13  and  N2_14 
REMARK    6  A    between atoms: N2_14  and  C12_15 
REMARK    7  A    between atoms: C15_18  and  O2_19 
ROOT
HETATM    1  C7  UNL     1      22.788   2.244  50.704  1.00  0.00    -0.015 A 
HETATM    2  C8  UNL     1      22.697   2.632  49.275  1.00  0.00     0.189 A 
HETATM    3  N1  UNL     1      23.791   3.487  48.914  1.00  0.00    -0.297 NA
HETATM    4  C9  UNL     1      24.714   3.860  49.726  1.00  0.00     0.113 A 
HETATM    5  C10 UNL     1      24.800   3.477  51.130  1.00  0.00     0.049 A 
HETATM    6  C11 UNL     1      23.835   2.674  51.602  1.00  0.00     0.041 A 
ENDROOT
BRANCH   6   7
HETATM    7  N2  UNL     1      24.013   2.371  52.958  1.00  0.00    -0.357 N 
HETATM    8  H15 UNL     1      23.611   2.465  53.917  1.00  0.00     0.166 HD
BRANCH   7   9
HETATM    9  C12 UNL     1      25.207   1.643  53.218  1.00  0.00     0.033 C 
HETATM   10  C13 UNL     1      25.188   0.383  52.751  1.00  0.00     0.029 C 
HETATM   11  C14 UNL     1      26.165  -0.718  52.778  1.00  0.00     0.036 C 
HETATM   12  C15 UNL     1      27.352  -0.670  53.385  1.00  0.00     0.069 C 
HETATM   13  C17 UNL     1      27.978   0.437  54.152  1.00  0.00     0.232 C 
HETATM   14  O3  UNL     1      26.960   1.154  54.759  1.00  0.00    -0.379 OA
HETATM   15  C18 UNL     1      26.429   2.141  53.936  1.00  0.00     0.225 C 
BRANCH  12  16
HETATM   16  O2  UNL     1      28.026  -1.860  53.226  1.00  0.00    -0.358 OA
HETATM   17  C16 UNL     1      29.441  -1.846  53.351  1.00  0.00     0.209 C 
ENDBRANCH  12  16
ENDBRANCH   7   9
ENDBRANCH   6   7
BRANCH   1  18
HETATM   18  C6  UNL     1      21.859   1.462  51.189  1.00  0.00    -0.012 C 
BRANCH  18  19
HETATM   19  C5  UNL     1      21.483   0.053  51.412  1.00  0.00     0.057 C 
BRANCH  19  20
HETATM   20  C4  UNL     1      21.633  -0.377  52.822  1.00  0.00     0.009 C 
HETATM   21  C2  UNL     1      20.857  -0.844  53.781  1.00  0.00     0.038 C 
HETATM   22  C3  UNL     1      19.407  -1.086  53.639  1.00  0.00     0.076 C 
BRANCH  21  23
HETATM   23  O1  UNL     1      21.409  -1.139  55.025  1.00  0.00    -0.361 OA
HETATM   24  C1  UNL     1      22.768  -1.351  55.236  1.00  0.00     0.209 C 
ENDBRANCH  21  23
ENDBRANCH  19  20
ENDBRANCH  18  19
ENDBRANCH   1  18
TORSDOF 7
ENDMDL
MODEL 2
REMARK VINA RESULT:      -6.9      2.607      5.418
REMARK  7 active torsions:
REMARK  status: ('A' for Active; 'I' for Inactive)
REMARK    1  A    between atoms: O1_2  and  C2_3 
REMARK    2  A    between atoms: C4_5  and  C5_6 
REMARK    3  A    between atoms: C5_6  and  C6_7 
REMARK    4  A    between atoms: C6_7  and  C7_8 
REMARK    5  A    between atoms: C11_13  and  N2_14 
REMARK    6  A    between atoms: N2_14  and  C12_15 
REMARK    7  A    between atoms: C15_18  and  O2_19 
ROOT
HETATM    1  C7  UNL     1      27.177  -0.736  53.442  1.00  0.00    -0.015 A 
HETATM    2  C8  UNL     1      28.025  -1.899  53.083  1.00  0.00     0.189 A 
HETATM    3  N1  UNL     1      29.413  -1.581  53.250  1.00  0.00    -0.297 NA
HETATM    4  C9  UNL     1      29.850  -0.444  53.653  1.00  0.00     0.113 A 
HETATM    5  C10 UNL     1      29.015   0.698  54.005  1.00  0.00     0.049 A 
HETATM    6  C11 UNL     1      27.688   0.538  53.894  1.00  0.00     0.041 A 
ENDROOT
BRANCH   6   7
HETATM    7  N2  UNL     1      26.981   1.693  54.254  1.00  0.00    -0.357 N 
HETATM    8  H15 UNL     1      26.733   2.336  55.038  1.00  0.00     0.166 HD
BRANCH   7   9
HETATM    9  C12 UNL     1      26.290   2.291  53.164  1.00  0.00     0.033 C 
HETATM   10  C13 UNL     1      25.052   2.715  53.473  1.00  0.00     0.029 C 
HETATM   11  C14 UNL     1      23.990   3.377  52.698  1.00  0.00     0.036 C 
HETATM   12  C15 UNL     1      24.056   3.654  51.395  1.00  0.00     0.069 C 
HETATM   13  C17 UNL     1      25.150   3.390  50.426  1.00  0.00     0.232 C 
HETATM   14  O3  UNL     1      25.798   2.235  50.831  1.00  0.00    -0.379 OA
HETATM   15  C18 UNL     1      26.801   2.477  51.765  1.00  0.00     0.225 C 
BRANCH  12  16
HETATM   16  O2  UNL     1      22.901   4.274  50.972  1.00  0.00    -0.358 OA
HETATM   17  C16 UNL     1      22.216   5.108  51.897  1.00  0.00     0.209 C 
ENDBRANCH  12  16
ENDBRANCH   7   9
ENDBRANCH   6   7
BRANCH   1  18
HETATM   18  C6  UNL     1      25.880  -0.866  53.342  1.00  0.00    -0.012 C 
BRANCH  18  19
HETATM   19  C5  UNL     1      24.623  -0.909  54.113  1.00  0.00     0.057 C 
BRANCH  19  20
HETATM   20  C4  UNL     1      23.434  -0.523  53.318  1.00  0.00     0.009 C 
HETATM   21  C2  UNL     1      22.122  -0.610  53.430  1.00  0.00     0.038 C 
HETATM   22  C3  UNL     1      21.421  -1.220  54.578  1.00  0.00     0.076 C 
BRANCH  21  23
HETATM   23  O1  UNL     1      21.314  -0.104  52.415  1.00  0.00    -0.361 OA
HETATM   24  C1  UNL     1      21.793   0.657  51.353  1.00  0.00     0.209 C 
ENDBRANCH  21  23
ENDBRANCH  19  20
ENDBRANCH  18  19
ENDBRANCH   1  18
TORSDOF 7
ENDMDL
MODEL 3
REMARK VINA RESULT:      -6.8      2.652      5.640
REMARK  7 active torsions:
REMARK  status: ('A' for Active; 'I' for Inactive)
REMARK    1  A    between atoms: O1_2  and  C2_3 
REMARK    2  A    between atoms: C4_5  and  C5_6 
REMARK    3  A    between atoms: C5_6  and  C6_7 
REMARK    4  A    between atoms: C6_7  and  C7_8 
REMARK    5  A    between atoms: C11_13  and  N2_14 
REMARK    6  A    between atoms: N2_14  and  C12_15 
REMARK    7  A    between atoms: C15_18  and  O2_19 
ROOT
HETATM    1  C7  UNL     1      23.230   2.730  49.133  1.00  0.00    -0.015 A 
HETATM    2  C8  UNL     1      22.565   2.256  47.894  1.00  0.00     0.189 A 
HETATM    3  N1  UNL     1      21.601   1.238  48.198  1.00  0.00    -0.297 NA
HETATM    4  C9  UNL     1      21.357   0.804  49.381  1.00  0.00     0.113 A 
HETATM    5  C10 UNL     1      22.012   1.272  50.597  1.00  0.00     0.049 A 
HETATM    6  C11 UNL     1      22.942   2.229  50.457  1.00  0.00     0.041 A 
ENDROOT
BRANCH   6   7
HETATM    7  N2  UNL     1      23.507   2.603  51.683  1.00  0.00    -0.357 N 
HETATM    8  H15 UNL     1      23.598   3.368  52.387  1.00  0.00     0.166 HD
BRANCH   7   9
HETATM    9  C12 UNL     1      24.300   1.578  52.271  1.00  0.00     0.033 C 
HETATM   10  C13 UNL     1      25.533   1.478  51.746  1.00  0.00     0.029 C 
HETATM   11  C14 UNL     1      26.678   0.594  52.021  1.00  0.00     0.036 C 
HETATM   12  C15 UNL     1      26.673  -0.409  52.902  1.00  0.00     0.069 C 
HETATM   13  C17 UNL     1      25.582  -0.881  53.792  1.00  0.00     0.232 C 
HETATM   14  O3  UNL     1      24.381  -0.638  53.146  1.00  0.00    -0.379 OA
HETATM   15  C18 UNL     1      23.894   0.645  53.374  1.00  0.00     0.225 C 
BRANCH  12  16
HETATM   16  O2  UNL     1      27.896  -1.041  52.922  1.00  0.00    -0.358 OA
HETATM   17  C16 UNL     1      28.925  -0.475  53.722  1.00  0.00     0.209 C 
ENDBRANCH  12  16
ENDBRANCH   7   9
ENDBRANCH   6   7
BRANCH   1  18
HETATM   18  C6  UNL     1      24.140   3.662  49.023  1.00  0.00    -0.012 C 
BRANCH  18  19
HETATM   19  C5  UNL     1      25.059   4.526  49.788  1.00  0.00     0.057 C 
BRANCH  19  20
HETATM   20  C4  UNL     1      26.457   4.473  49.299  1.00  0.00     0.009 C 
HETATM   21  C2  UNL     1      27.298   5.276  48.676  1.00  0.00     0.038 C 
HETATM   22  C3  UNL     1      26.977   6.654  48.252  1.00  0.00     0.076 C 
BRANCH  21  23
HETATM   23  O1  UNL     1      28.583   4.827  48.383  1.00  0.00    -0.361 OA
HETATM   24  C1  UNL     1      29.661   5.673  48.140  1.00  0.00     0.209 C 
ENDBRANCH  21  23
ENDBRANCH  19  20
ENDBRANCH  18  19
ENDBRANCH   1  18
TORSDOF 7
ENDMDL
MODEL 4
REMARK VINA RESULT:      -6.7      2.816      6.847
REMARK  7 active torsions:
REMARK  status: ('A' for Active; 'I' for Inactive)
REMARK    1  A    between atoms: O1_2  and  C2_3 
REMARK    2  A    between atoms: C4_5  and  C5_6 
REMARK    3  A    between atoms: C5_6  and  C6_7 
REMARK    4  A    between atoms: C6_7  and  C7_8 
REMARK    5  A    between atoms: C11_13  and  N2_14 
REMARK    6  A    between atoms: N2_14  and  C12_15 
REMARK    7  A    between atoms: C15_18  and  O2_19 
ROOT
HETATM    1  C7  UNL     1      23.987  -0.687  54.228  1.00  0.00    -0.015 A 
HETATM    2  C8  UNL     1      23.405  -1.366  55.412  1.00  0.00     0.189 A 
HETATM    3  N1  UNL     1      21.999  -1.582  55.229  1.00  0.00    -0.297 NA
HETATM    4  C9  UNL     1      21.345  -1.231  54.181  1.00  0.00     0.113 A 
HETATM    5  C10 UNL     1      21.919  -0.564  53.019  1.00  0.00     0.049 A 
HETATM    6  C11 UNL     1      23.233  -0.300  53.057  1.00  0.00     0.041 A 
ENDROOT
BRANCH   6   7
HETATM    7  N2  UNL     1      23.680   0.342  51.894  1.00  0.00    -0.357 N 
HETATM    8  H15 UNL     1      24.178   0.220  50.986  1.00  0.00     0.166 HD
BRANCH   7   9
HETATM    9  C12 UNL     1      23.371   1.731  51.866  1.00  0.00     0.033 C 
HETATM   10  C13 UNL     1      22.752   2.127  50.741  1.00  0.00     0.029 C 
HETATM   11  C14 UNL     1      22.251   3.428  50.269  1.00  0.00     0.036 C 
HETATM   12  C15 UNL     1      22.385   4.581  50.928  1.00  0.00     0.069 C 
HETATM   13  C17 UNL     1      23.034   4.854  52.235  1.00  0.00     0.232 C 
HETATM   14  O3  UNL     1      24.073   3.950  52.383  1.00  0.00    -0.379 OA
HETATM   15  C18 UNL     1      23.664   2.741  52.937  1.00  0.00     0.225 C 
BRANCH  12  16
HETATM   16  O2  UNL     1      21.808   5.612  50.220  1.00  0.00    -0.358 OA
HETATM   17  C16 UNL     1      21.605   6.848  50.892  1.00  0.00     0.209 C 
ENDBRANCH  12  16
ENDBRANCH   7   9
ENDBRANCH   6   7
BRANCH   1  18
HETATM   18  C6  UNL     1      25.266  -0.418  54.240  1.00  0.00    -0.012 C 
BRANCH  18  19
HETATM   19  C5  UNL     1      26.305   0.402  54.891  1.00  0.00     0.057 C 
BRANCH  19  20
HETATM   20  C4  UNL     1      27.663   0.166  54.347  1.00  0.00     0.009 C 
HETATM   21  C2  UNL     1      28.646   0.889  53.844  1.00  0.00     0.038 C 
HETATM   22  C3  UNL     1      28.604   2.356  53.682  1.00  0.00     0.076 C 
BRANCH  21  23
HETATM   23  O1  UNL     1      29.816   0.258  53.428  1.00  0.00    -0.361 OA
HETATM   24  C1  UNL     1      30.111  -1.075  53.696  1.00  0.00     0.209 C 
ENDBRANCH  21  23
ENDBRANCH  19  20
ENDBRANCH  18  19
ENDBRANCH   1  18
TORSDOF 7
ENDMDL
MODEL 5
REMARK VINA RESULT:      -6.5      3.014      5.978
REMARK  7 active torsions:
REMARK  status: ('A' for Active; 'I' for Inactive)
REMARK    1  A    between atoms: O1_2  and  C2_3 
REMARK    2  A    between atoms: C4_5  and  C5_6 
REMARK    3  A    between atoms: C5_6  and  C6_7 
REMARK    4  A    between atoms: C6_7  and  C7_8 
REMARK    5  A    between atoms: C11_13  and  N2_14 
REMARK    6  A    between atoms: N2_14  and  C12_15 
REMARK    7  A    between atoms: C15_18  and  O2_19 
ROOT
HETATM    1  C7  UNL     1      23.689   3.980  50.457  1.00  0.00    -0.015 A 
HETATM    2  C8  UNL     1      23.139   5.346  50.638  1.00  0.00     0.189 A 
HETATM    3  N1  UNL     1      22.088   5.342  51.613  1.00  0.00    -0.297 NA
HETATM    4  C9  UNL     1      21.684   4.293  52.235  1.00  0.00     0.113 A 
HETATM    5  C10 UNL     1      22.226   2.952  52.056  1.00  0.00     0.049 A 
HETATM    6  C11 UNL     1      23.221   2.812  51.167  1.00  0.00     0.041 A 
ENDROOT
BRANCH   6   7
HETATM    7  N2  UNL     1      23.665   1.486  51.072  1.00  0.00    -0.357 N 
HETATM    8  H15 UNL     1      23.666   0.623  50.484  1.00  0.00     0.166 HD
BRANCH   7   9
HETATM    9  C12 UNL     1      24.428   1.068  52.197  1.00  0.00     0.033 C 
HETATM   10  C13 UNL     1      25.639   1.646  52.277  1.00  0.00     0.029 C 
HETATM   11  C14 UNL     1      26.749   1.532  53.237  1.00  0.00     0.036 C 
HETATM   12  C15 UNL     1      26.773   0.703  54.282  1.00  0.00     0.069 C 
HETATM   13  C17 UNL     1      25.750  -0.272  54.739  1.00  0.00     0.232 C 
HETATM   14  O3  UNL     1      25.081  -0.733  53.617  1.00  0.00    -0.379 OA
HETATM   15  C18 UNL     1      24.014   0.082  53.251  1.00  0.00     0.225 C 
BRANCH  12  16
HETATM   16  O2  UNL     1      27.951   0.839  54.982  1.00  0.00    -0.358 OA
HETATM   17  C16 UNL     1      29.171   0.696  54.267  1.00  0.00     0.209 C 
ENDBRANCH  12  16
ENDBRANCH   7   9
ENDBRANCH   6   7
BRANCH   1  18
HETATM   18  C6  UNL     1      24.659   3.817  49.597  1.00  0.00    -0.012 C 
BRANCH  18  19
HETATM   19  C5  UNL     1      26.109   3.994  49.387  1.00  0.00     0.057 C 
BRANCH  19  20
HETATM   20  C4  UNL     1      26.477   5.368  48.972  1.00  0.00     0.009 C 
HETATM   21  C2  UNL     1      27.545   5.987  48.506  1.00  0.00     0.038 C 
HETATM   22  C3  UNL     1      28.844   5.333  48.250  1.00  0.00     0.076 C 
BRANCH  21  23
HETATM   23  O1  UNL     1      27.479   7.350  48.229  1.00  0.00    -0.361 OA
HETATM   24  C1  UNL     1      27.151   8.316  49.175  1.00  0.00     0.209 C 
ENDBRANCH  21  23
ENDBRANCH  19  20
ENDBRANCH  18  19
ENDBRANCH   1  18
TORSDOF 7
ENDMDL
MODEL 6
REMARK VINA RESULT:      -6.5      1.710      2.520
REMARK  7 active torsions:
REMARK  status: ('A' for Active; 'I' for Inactive)
REMARK    1  A    between atoms: O1_2  and  C2_3 
REMARK    2  A    between atoms: C4_5  and  C5_6 
REMARK    3  A    between atoms: C5_6  and  C6_7 
REMARK    4  A    between atoms: C6_7  and  C7_8 
REMARK    5  A    between atoms: C11_13  and  N2_14 
REMARK    6  A    between atoms: N2_14  and  C12_15 
REMARK    7  A    between atoms: C15_18  and  O2_19 
ROOT
HETATM    1  C7  UNL     1      22.242   1.634  50.361  1.00  0.00    -0.015 A 
HETATM    2  C8  UNL     1      21.600   0.931  49.224  1.00  0.00     0.189 A 
HETATM    3  N1  UNL     1      21.982   1.531  47.979  1.00  0.00    -0.297 NA
HETATM    4  C9  UNL     1      22.770   2.539  47.875  1.00  0.00     0.113 A 
HETATM    5  C10 UNL     1      23.400   3.229  48.995  1.00  0.00     0.049 A 
HETATM    6  C11 UNL     1      23.127   2.768  50.224  1.00  0.00     0.041 A 
ENDROOT
BRANCH   6   7
HETATM    7  N2  UNL     1      23.780   3.502  51.224  1.00  0.00    -0.357 N 
HETATM    8  H15 UNL     1      23.788   4.395  51.765  1.00  0.00     0.166 HD
BRANCH   7   9
HETATM    9  C12 UNL     1      24.905   2.826  51.771  1.00  0.00     0.033 C 
HETATM   10  C13 UNL     1      24.820   2.615  53.096  1.00  0.00     0.029 C 
HETATM   11  C14 UNL     1      25.713   1.973  54.075  1.00  0.00     0.036 C 
HETATM   12  C15 UNL     1      26.921   1.480  53.797  1.00  0.00     0.069 C 
HETATM   13  C17 UNL     1      27.654   1.443  52.506  1.00  0.00     0.232 C 
HETATM   14  O3  UNL     1      27.274   2.560  51.778  1.00  0.00    -0.379 OA
HETATM   15  C18 UNL     1      26.121   2.351  51.029  1.00  0.00     0.225 C 
BRANCH  12  16
HETATM   16  O2  UNL     1      27.499   0.948  54.928  1.00  0.00    -0.358 OA
HETATM   17  C16 UNL     1      28.680   0.174  54.771  1.00  0.00     0.209 C 
ENDBRANCH  12  16
ENDBRANCH   7   9
ENDBRANCH   6   7
BRANCH   1  18
HETATM   18  C6  UNL     1      21.991   1.205  51.570  1.00  0.00    -0.012 C 
BRANCH  18  19
HETATM   19  C5  UNL     1      21.144   1.418  52.759  1.00  0.00     0.057 C 
BRANCH  19  20
HETATM   20  C4  UNL     1      20.218   0.293  53.027  1.00  0.00     0.009 C 
HETATM   21  C2  UNL     1      20.239  -0.842  53.701  1.00  0.00     0.038 C 
HETATM   22  C3  UNL     1      21.397  -1.331  54.475  1.00  0.00     0.076 C 
BRANCH  21  23
HETATM   23  O1  UNL     1      19.110  -1.658  53.701  1.00  0.00    -0.361 OA
HETATM   24  C1  UNL     1      17.853  -1.237  53.279  1.00  0.00     0.209 C 
ENDBRANCH  21  23
ENDBRANCH  19  20
ENDBRANCH  18  19
ENDBRANCH   1  18
TORSDOF 7
ENDMDL
MODEL 7
REMARK VINA RESULT:      -6.4      2.106      4.686
REMARK  7 active torsions:
REMARK  status: ('A' for Active; 'I' for Inactive)
REMARK    1  A    between atoms: O1_2  and  C2_3 
REMARK    2  A    between atoms: C4_5  and  C5_6 
REMARK    3  A    between atoms: C5_6  and  C6_7 
REMARK    4  A    between atoms: C6_7  and  C7_8 
REMARK    5  A    between atoms: C11_13  and  N2_14 
REMARK    6  A    between atoms: N2_14  and  C12_15 
REMARK    7  A    between atoms: C15_18  and  O2_19 
ROOT
HETATM    1  C7  UNL     1      22.722   1.774  50.381  1.00  0.00    -0.015 A 
HETATM    2  C8  UNL     1      21.509   0.951  50.154  1.00  0.00     0.189 A 
HETATM    3  N1  UNL     1      21.158   0.231  51.344  1.00  0.00    -0.297 NA
HETATM    4  C9  UNL     1      21.812   0.296  52.447  1.00  0.00     0.113 A 
HETATM    5  C10 UNL     1      23.004   1.106  52.667  1.00  0.00     0.049 A 
HETATM    6  C11 UNL     1      23.445   1.834  51.631  1.00  0.00     0.041 A 
ENDROOT
BRANCH   6   7
HETATM    7  N2  UNL     1      24.594   2.571  51.950  1.00  0.00    -0.357 N 
HETATM    8  H15 UNL     1      25.059   3.503  51.886  1.00  0.00     0.166 HD
BRANCH   7   9
HETATM    9  C12 UNL     1      25.578   1.806  52.637  1.00  0.00     0.033 C 
HETATM   10  C13 UNL     1      25.956   0.694  51.983  1.00  0.00     0.029 C 
HETATM   11  C14 UNL     1      26.917  -0.378  52.288  1.00  0.00     0.036 C 
HETATM   12  C15 UNL     1      27.621  -0.473  53.417  1.00  0.00     0.069 C 
HETATM   13  C17 UNL     1      27.631   0.420  54.604  1.00  0.00     0.232 C 
HETATM   14  O3  UNL     1      26.364   0.967  54.725  1.00  0.00    -0.379 OA
HETATM   15  C18 UNL     1      26.198   2.122  53.967  1.00  0.00     0.225 C 
BRANCH  12  16
HETATM   16  O2  UNL     1      28.429  -1.588  53.392  1.00  0.00    -0.358 OA
HETATM   17  C16 UNL     1      29.825  -1.404  53.579  1.00  0.00     0.209 C 
ENDBRANCH  12  16
ENDBRANCH   7   9
ENDBRANCH   6   7
BRANCH   1  18
HETATM   18  C6  UNL     1      23.173   2.493  49.387  1.00  0.00    -0.012 C 
BRANCH  18  19
HETATM   19  C5  UNL     1      23.067   3.804  48.720  1.00  0.00     0.057 C 
BRANCH  19  20
HETATM   20  C4  UNL     1      24.210   4.702  49.008  1.00  0.00     0.009 C 
HETATM   21  C2  UNL     1      24.551   5.567  49.944  1.00  0.00     0.038 C 
HETATM   22  C3  UNL     1      23.723   5.892  51.123  1.00  0.00     0.076 C 
BRANCH  21  23
HETATM   23  O1  UNL     1      25.768   6.238  49.844  1.00  0.00    -0.361 OA
HETATM   24  C1  UNL     1      26.719   5.971  48.863  1.00  0.00     0.209 C 
ENDBRANCH  21  23
ENDBRANCH  19  20
ENDBRANCH  18  19
ENDBRANCH   1  18
TORSDOF 7
ENDMDL
MODEL 8
REMARK VINA RESULT:      -6.3      1.816      5.148
REMARK  7 active torsions:
REMARK  status: ('A' for Active; 'I' for Inactive)
REMARK    1  A    between atoms: O1_2  and  C2_3 
REMARK    2  A    between atoms: C4_5  and  C5_6 
REMARK    3  A    between atoms: C5_6  and  C6_7 
REMARK    4  A    between atoms: C6_7  and  C7_8 
REMARK    5  A    between atoms: C11_13  and  N2_14 
REMARK    6  A    between atoms: N2_14  and  C12_15 
REMARK    7  A    between atoms: C15_18  and  O2_19 
ROOT
HETATM    1  C7  UNL     1      24.360   4.105  50.186  1.00  0.00    -0.015 A 
HETATM    2  C8  UNL     1      24.707   5.515  50.492  1.00  0.00     0.189 A 
HETATM    3  N1  UNL     1      23.529   6.265  50.818  1.00  0.00    -0.297 NA
HETATM    4  C9  UNL     1      22.343   5.774  50.837  1.00  0.00     0.113 A 
HETATM    5  C10 UNL     1      22.005   4.388  50.537  1.00  0.00     0.049 A 
HETATM    6  C11 UNL     1      23.018   3.571  50.213  1.00  0.00     0.041 A 
ENDROOT
BRANCH   6   7
HETATM    7  N2  UNL     1      22.583   2.267  49.942  1.00  0.00    -0.357 N 
HETATM    8  H15 UNL     1      22.505   1.524  49.214  1.00  0.00     0.166 HD
BRANCH   7   9
HETATM    9  C12 UNL     1      21.989   1.628  51.067  1.00  0.00     0.033 C 
HETATM   10  C13 UNL     1      22.872   1.262  52.012  1.00  0.00     0.029 C 
HETATM   11  C14 UNL     1      22.735   0.591  53.314  1.00  0.00     0.036 C 
HETATM   12  C15 UNL     1      21.589   0.130  53.818  1.00  0.00     0.069 C 
HETATM   13  C17 UNL     1      20.220   0.165  53.242  1.00  0.00     0.232 C 
HETATM   14  O3  UNL     1      20.345   0.097  51.864  1.00  0.00    -0.379 OA
HETATM   15  C18 UNL     1      20.530   1.344  51.276  1.00  0.00     0.225 C 
BRANCH  12  16
HETATM   16  O2  UNL     1      21.797  -0.443  55.053  1.00  0.00    -0.358 OA
HETATM   17  C16 UNL     1      22.879  -1.354  55.190  1.00  0.00     0.209 C 
ENDBRANCH  12  16
ENDBRANCH   7   9
ENDBRANCH   6   7
BRANCH   1  18
HETATM   18  C6  UNL     1      25.330   3.289  49.868  1.00  0.00    -0.012 C 
BRANCH  18  19
HETATM   19  C5  UNL     1      26.573   2.664  50.360  1.00  0.00     0.057 C 
BRANCH  19  20
HETATM   20  C4  UNL     1      26.526   2.324  51.801  1.00  0.00     0.009 C 
HETATM   21  C2  UNL     1      26.561   1.232  52.542  1.00  0.00     0.038 C 
HETATM   22  C3  UNL     1      26.676  -0.138  52.004  1.00  0.00     0.076 C 
BRANCH  21  23
HETATM   23  O1  UNL     1      26.487   1.343  53.928  1.00  0.00    -0.361 OA
HETATM   24  C1  UNL     1      26.369   0.253  54.785  1.00  0.00     0.209 C 
ENDBRANCH  21  23
ENDBRANCH  19  20
ENDBRANCH  18  19
ENDBRANCH   1  18
TORSDOF 7
ENDMDL
MODEL 9
REMARK VINA RESULT:      -6.2      2.325      6.527
REMARK  7 active torsions:
REMARK  status: ('A' for Active; 'I' for Inactive)
REMARK    1  A    between atoms: O1_2  and  C2_3 
REMARK    2  A    between atoms: C4_5  and  C5_6 
REMARK    3  A    between atoms: C5_6  and  C6_7 
REMARK    4  A    between atoms: C6_7  and  C7_8 
REMARK    5  A    between atoms: C11_13  and  N2_14 
REMARK    6  A    between atoms: N2_14  and  C12_15 
REMARK    7  A    between atoms: C15_18  and  O2_19 
ROOT
HETATM    1  C7  UNL     1      23.670   2.325  52.227  1.00  0.00    -0.015 A 
HETATM    2  C8  UNL     1      24.164   3.442  53.070  1.00  0.00     0.189 A 
HETATM    3  N1  UNL     1      23.410   4.636  52.818  1.00  0.00    -0.297 NA
HETATM    4  C9  UNL     1      22.444   4.715  51.976  1.00  0.00     0.113 A 
HETATM    5  C10 UNL     1      21.961   3.617  51.149  1.00  0.00     0.049 A 
HETATM    6  C11 UNL     1      22.581   2.435  51.284  1.00  0.00     0.041 A 
ENDROOT
BRANCH   6   7
HETATM    7  N2  UNL     1      22.041   1.452  50.444  1.00  0.00    -0.357 N 
HETATM    8  H15 UNL     1      22.218   0.839  49.618  1.00  0.00     0.166 HD
BRANCH   7   9
HETATM    9  C12 UNL     1      20.707   1.094  50.786  1.00  0.00     0.033 C 
HETATM   10  C13 UNL     1      20.620   0.281  51.852  1.00  0.00     0.029 C 
HETATM   11  C14 UNL     1      19.487  -0.338  52.559  1.00  0.00     0.036 C 
HETATM   12  C15 UNL     1      18.208  -0.231  52.192  1.00  0.00     0.069 C 
HETATM   13  C17 UNL     1      17.611   0.497  51.044  1.00  0.00     0.232 C 
HETATM   14  O3  UNL     1      18.536   0.481  50.012  1.00  0.00    -0.379 OA
HETATM   15  C18 UNL     1      19.450   1.528  50.089  1.00  0.00     0.225 C 
BRANCH  12  16
HETATM   16  O2  UNL     1      17.395  -0.924  53.061  1.00  0.00    -0.358 OA
HETATM   17  C16 UNL     1      17.871  -2.160  53.576  1.00  0.00     0.209 C 
ENDBRANCH  12  16
ENDBRANCH   7   9
ENDBRANCH   6   7
BRANCH   1  18
HETATM   18  C6  UNL     1      24.258   1.163  52.339  1.00  0.00    -0.012 C 
BRANCH  18  19
HETATM   19  C5  UNL     1      24.435  -0.002  53.226  1.00  0.00     0.057 C 
BRANCH  19  20
HETATM   20  C4  UNL     1      25.839  -0.204  53.656  1.00  0.00     0.009 C 
HETATM   21  C2  UNL     1      26.848  -0.992  53.337  1.00  0.00     0.038 C 
HETATM   22  C3  UNL     1      26.794  -2.035  52.293  1.00  0.00     0.076 C 
BRANCH  21  23
HETATM   23  O1  UNL     1      28.060  -0.858  54.010  1.00  0.00    -0.361 OA
HETATM   24  C1  UNL     1      28.353   0.196  54.870  1.00  0.00     0.209 C 
ENDBRANCH  21  23
ENDBRANCH  19  20
ENDBRANCH  18  19
ENDBRANCH   1  18
TORSDOF 7
ENDMDL
