MODEL 1
REMARK VINA RESULT:      -8.6      0.000      0.000
REMARK  5 active torsions:
REMARK  status: ('A' for Active; 'I' for Inactive)
REMARK    1  A    between atoms: N1_1  and  C1_2 
REMARK    2  A    between atoms: C1_2  and  N2_4 
REMARK    3  A    between atoms: N2_4  and  N3_5 
REMARK    4  A    between atoms: N3_5  and  C2_6 
REMARK    5  A    between atoms: C5_9  and  C6_10 
ROOT
HETATM    1  C2  UNL     1      21.538   0.212  52.675  1.00  0.00     0.049 C 
HETATM    2  C3  UNL     1      22.817   0.446  52.440  1.00  0.00     0.042 C 
HETATM    3  C4  UNL     1      23.994  -0.156  53.104  1.00  0.00    -0.033 C 
HETATM    4  C5  UNL     1      25.146  -0.156  52.459  1.00  0.00     0.023 C 
HETATM    5  C16 UNL     1      23.927  -0.738  54.444  1.00  0.00     0.011 C 
HETATM    6  C17 UNL     1      22.851  -1.222  55.087  1.00  0.00     0.001 C 
HETATM    7  C18 UNL     1      21.455  -1.317  54.677  1.00  0.00     0.002 C 
HETATM    8  C19 UNL     1      20.926  -0.692  53.641  1.00  0.00     0.031 C 
ENDROOT
BRANCH   4   9
HETATM    9  C6  UNL     1      26.477  -0.625  52.743  1.00  0.00    -0.024 A 
HETATM   10  C7  UNL     1      26.753  -1.964  52.557  1.00  0.00     0.012 A 
HETATM   11  C8  UNL     1      28.027  -2.481  52.824  1.00  0.00     0.002 A 
HETATM   12  C9  UNL     1      28.981  -1.581  53.278  1.00  0.00     0.012 A 
HETATM   13  C10 UNL     1      28.731  -0.239  53.472  1.00  0.00    -0.025 A 
HETATM   14  C11 UNL     1      29.735   0.612  53.934  1.00  0.00     0.012 A 
HETATM   15  C15 UNL     1      27.463   0.228  53.198  1.00  0.00    -0.016 A 
HETATM   16  C12 UNL     1      29.500   1.957  54.135  1.00  0.00     0.001 A 
HETATM   17  C13 UNL     1      28.238   2.400  53.858  1.00  0.00     0.001 A 
HETATM   18  C14 UNL     1      27.218   1.563  53.395  1.00  0.00     0.013 A 
ENDBRANCH   4   9
BRANCH   1  19
HETATM   19  N3  UNL     1      20.689   0.983  51.833  1.00  0.00    -0.299 N 
HETATM   20  H4  UNL     1      21.352   1.495  51.210  1.00  0.00     0.187 HD
BRANCH  19  21
HETATM   21  N2  UNL     1      19.358   1.267  51.575  1.00  0.00    -0.276 N 
HETATM   22  H3  UNL     1      19.282   2.241  51.921  1.00  0.00     0.189 HD
BRANCH  21  23
HETATM   23  C1  UNL     1      18.303   0.507  51.002  1.00  0.00     0.184 C 
HETATM   24  S1  UNL     1      17.460  -0.517  51.948  1.00  0.00    -0.040 SA
BRANCH  23  25
HETATM   25  N1  UNL     1      18.083   0.722  49.616  1.00  0.00    -0.375 N 
HETATM   26  H1  UNL     1      17.613   0.787  48.690  1.00  0.00     0.158 HD
HETATM   27  H2  UNL     1      18.946   1.031  49.109  1.00  0.00     0.158 HD
ENDBRANCH  23  25
ENDBRANCH  21  23
ENDBRANCH  19  21
ENDBRANCH   1  19
TORSDOF 5
ENDMDL
MODEL 2
REMARK VINA RESULT:      -8.5      2.252      3.222
REMARK  5 active torsions:
REMARK  status: ('A' for Active; 'I' for Inactive)
REMARK    1  A    between atoms: N1_1  and  C1_2 
REMARK    2  A    between atoms: C1_2  and  N2_4 
REMARK    3  A    between atoms: N2_4  and  N3_5 
REMARK    4  A    between atoms: N3_5  and  C2_6 
REMARK    5  A    between atoms: C5_9  and  C6_10 
ROOT
HETATM    1  C2  UNL     1      22.187   1.100  51.200  1.00  0.00     0.049 C 
HETATM    2  C3  UNL     1      23.403   1.593  51.358  1.00  0.00     0.042 C 
HETATM    3  C4  UNL     1      24.446   1.161  52.315  1.00  0.00    -0.033 C 
HETATM    4  C5  UNL     1      25.706   1.441  52.036  1.00  0.00     0.023 C 
HETATM    5  C16 UNL     1      24.132   0.449  53.552  1.00  0.00     0.011 C 
HETATM    6  C17 UNL     1      23.044  -0.288  53.833  1.00  0.00     0.001 C 
HETATM    7  C18 UNL     1      21.870  -0.605  53.029  1.00  0.00     0.002 C 
HETATM    8  C19 UNL     1      21.533   0.008  51.908  1.00  0.00     0.031 C 
ENDROOT
BRANCH   4   9
HETATM    9  C6  UNL     1      26.973   1.205  52.678  1.00  0.00    -0.024 A 
HETATM   10  C7  UNL     1      27.665   2.288  53.178  1.00  0.00     0.012 A 
HETATM   11  C8  UNL     1      28.906   2.122  53.807  1.00  0.00     0.002 A 
HETATM   12  C9  UNL     1      29.391   0.825  53.895  1.00  0.00     0.012 A 
HETATM   13  C10 UNL     1      28.719  -0.275  53.403  1.00  0.00    -0.025 A 
HETATM   14  C11 UNL     1      29.263  -1.553  53.521  1.00  0.00     0.012 A 
HETATM   15  C15 UNL     1      27.501  -0.066  52.791  1.00  0.00    -0.016 A 
HETATM   16  C12 UNL     1      28.604  -2.662  53.032  1.00  0.00     0.001 A 
HETATM   17  C13 UNL     1      27.400  -2.436  52.430  1.00  0.00     0.001 A 
HETATM   18  C14 UNL     1      26.837  -1.161  52.300  1.00  0.00     0.013 A 
ENDBRANCH   4   9
BRANCH   1  19
HETATM   19  N3  UNL     1      21.465   1.776  50.176  1.00  0.00    -0.299 N 
HETATM   20  H4  UNL     1      21.349   2.744  50.548  1.00  0.00     0.187 HD
BRANCH  19  21
HETATM   21  N2  UNL     1      20.899   1.593  48.925  1.00  0.00    -0.276 N 
HETATM   22  H3  UNL     1      20.685   0.579  48.940  1.00  0.00     0.189 HD
BRANCH  21  23
HETATM   23  C1  UNL     1      20.637   2.479  47.846  1.00  0.00     0.184 C 
HETATM   24  S1  UNL     1      21.880   3.274  47.154  1.00  0.00    -0.040 SA
BRANCH  23  25
HETATM   25  N1  UNL     1      19.274   2.588  47.466  1.00  0.00    -0.375 N 
HETATM   26  H1  UNL     1      18.411   2.861  46.951  1.00  0.00     0.158 HD
HETATM   27  H2  UNL     1      18.632   2.043  48.089  1.00  0.00     0.158 HD
ENDBRANCH  23  25
ENDBRANCH  21  23
ENDBRANCH  19  21
ENDBRANCH   1  19
TORSDOF 5
ENDMDL
MODEL 3
REMARK VINA RESULT:      -8.4      2.714      4.477
REMARK  5 active torsions:
REMARK  status: ('A' for Active; 'I' for Inactive)
REMARK    1  A    between atoms: N1_1  and  C1_2 
REMARK    2  A    between atoms: C1_2  and  N2_4 
REMARK    3  A    between atoms: N2_4  and  N3_5 
REMARK    4  A    between atoms: N3_5  and  C2_6 
REMARK    5  A    between atoms: C5_9  and  C6_10 
ROOT
HETATM    1  C2  UNL     1      23.568   3.873  50.759  1.00  0.00     0.049 C 
HETATM    2  C3  UNL     1      24.119   2.934  51.507  1.00  0.00     0.042 C 
HETATM    3  C4  UNL     1      25.544   2.542  51.579  1.00  0.00    -0.033 C 
HETATM    4  C5  UNL     1      25.972   1.929  52.667  1.00  0.00     0.023 C 
HETATM    5  C16 UNL     1      26.486   2.800  50.490  1.00  0.00     0.011 C 
HETATM    6  C17 UNL     1      26.406   3.733  49.527  1.00  0.00     0.001 C 
HETATM    7  C18 UNL     1      25.395   4.750  49.261  1.00  0.00     0.002 C 
HETATM    8  C19 UNL     1      24.192   4.781  49.806  1.00  0.00     0.031 C 
ENDROOT
BRANCH   4   9
HETATM    9  C6  UNL     1      27.235   1.404  53.117  1.00  0.00    -0.024 A 
HETATM   10  C7  UNL     1      28.157   2.282  53.647  1.00  0.00     0.012 A 
HETATM   11  C8  UNL     1      29.406   1.831  54.093  1.00  0.00     0.002 A 
HETATM   12  C9  UNL     1      29.656   0.472  53.974  1.00  0.00     0.012 A 
HETATM   13  C10 UNL     1      28.752  -0.426  53.448  1.00  0.00    -0.025 A 
HETATM   14  C11 UNL     1      29.067  -1.781  53.353  1.00  0.00     0.012 A 
HETATM   15  C15 UNL     1      27.534   0.060  53.020  1.00  0.00    -0.016 A 
HETATM   16  C12 UNL     1      28.173  -2.692  52.827  1.00  0.00     0.001 A 
HETATM   17  C13 UNL     1      26.973  -2.192  52.409  1.00  0.00     0.001 A 
HETATM   18  C14 UNL     1      26.639  -0.836  52.495  1.00  0.00     0.013 A 
ENDBRANCH   4   9
BRANCH   1  19
HETATM   19  N3  UNL     1      22.161   3.962  50.962  1.00  0.00    -0.299 N 
HETATM   20  H4  UNL     1      21.796   4.289  50.040  1.00  0.00     0.187 HD
BRANCH  19  21
HETATM   21  N2  UNL     1      21.173   3.772  51.912  1.00  0.00    -0.276 N 
HETATM   22  H3  UNL     1      21.238   4.651  52.458  1.00  0.00     0.189 HD
BRANCH  21  23
HETATM   23  C1  UNL     1      20.266   2.708  52.161  1.00  0.00     0.184 C 
HETATM   24  S1  UNL     1      20.831   1.316  52.792  1.00  0.00    -0.040 SA
BRANCH  23  25
HETATM   25  N1  UNL     1      18.912   2.971  51.823  1.00  0.00    -0.375 N 
HETATM   26  H1  UNL     1      18.066   3.414  51.411  1.00  0.00     0.158 HD
HETATM   27  H2  UNL     1      18.245   2.281  52.245  1.00  0.00     0.158 HD
ENDBRANCH  23  25
ENDBRANCH  21  23
ENDBRANCH  19  21
ENDBRANCH   1  19
TORSDOF 5
ENDMDL
MODEL 4
REMARK VINA RESULT:      -8.4      3.661      7.211
REMARK  5 active torsions:
REMARK  status: ('A' for Active; 'I' for Inactive)
REMARK    1  A    between atoms: N1_1  and  C1_2 
REMARK    2  A    between atoms: C1_2  and  N2_4 
REMARK    3  A    between atoms: N2_4  and  N3_5 
REMARK    4  A    between atoms: N3_5  and  C2_6 
REMARK    5  A    between atoms: C5_9  and  C6_10 
ROOT
HETATM    1  C2  UNL     1      26.009   2.928  51.322  1.00  0.00     0.049 C 
HETATM    2  C3  UNL     1      24.775   2.457  51.365  1.00  0.00     0.042 C 
HETATM    3  C4  UNL     1      24.276   1.268  52.091  1.00  0.00    -0.033 C 
HETATM    4  C5  UNL     1      22.990   1.209  52.388  1.00  0.00     0.023 C 
HETATM    5  C16 UNL     1      25.148   0.161  52.480  1.00  0.00     0.011 C 
HETATM    6  C17 UNL     1      26.478   0.177  52.668  1.00  0.00     0.001 C 
HETATM    7  C18 UNL     1      27.447   1.261  52.549  1.00  0.00     0.002 C 
HETATM    8  C19 UNL     1      27.214   2.424  51.968  1.00  0.00     0.031 C 
ENDROOT
BRANCH   4   9
HETATM    9  C6  UNL     1      22.138   0.264  53.061  1.00  0.00    -0.024 A 
HETATM   10  C7  UNL     1      22.668  -0.472  54.100  1.00  0.00     0.012 A 
HETATM   11  C8  UNL     1      21.890  -1.412  54.788  1.00  0.00     0.002 A 
HETATM   12  C9  UNL     1      20.575  -1.557  54.369  1.00  0.00     0.012 A 
HETATM   13  C10 UNL     1      20.021  -0.834  53.333  1.00  0.00    -0.025 A 
HETATM   14  C11 UNL     1      18.692  -1.031  52.960  1.00  0.00     0.012 A 
HETATM   15  C15 UNL     1      20.823   0.080  52.683  1.00  0.00    -0.016 A 
HETATM   16  C12 UNL     1      18.124  -0.317  51.924  1.00  0.00     0.001 A 
HETATM   17  C13 UNL     1      18.933   0.584  51.292  1.00  0.00     0.001 A 
HETATM   18  C14 UNL     1      20.269   0.795  51.652  1.00  0.00     0.013 A 
ENDBRANCH   4   9
BRANCH   1  19
HETATM   19  N3  UNL     1      26.107   4.097  50.516  1.00  0.00    -0.299 N 
HETATM   20  H4  UNL     1      26.698   3.796  49.710  1.00  0.00     0.187 HD
BRANCH  19  21
HETATM   21  N2  UNL     1      25.707   5.421  50.444  1.00  0.00    -0.276 N 
HETATM   22  H3  UNL     1      26.566   5.878  50.085  1.00  0.00     0.189 HD
BRANCH  21  23
HETATM   23  C1  UNL     1      24.486   6.078  50.751  1.00  0.00     0.184 C 
HETATM   24  S1  UNL     1      23.211   5.888  49.754  1.00  0.00    -0.040 SA
BRANCH  23  25
HETATM   25  N1  UNL     1      24.498   6.861  51.935  1.00  0.00    -0.375 N 
HETATM   26  H1  UNL     1      24.229   7.258  52.859  1.00  0.00     0.158 HD
HETATM   27  H2  UNL     1      25.313   7.517  51.982  1.00  0.00     0.158 HD
ENDBRANCH  23  25
ENDBRANCH  21  23
ENDBRANCH  19  21
ENDBRANCH   1  19
TORSDOF 5
ENDMDL
MODEL 5
REMARK VINA RESULT:      -8.4      1.742      2.043
REMARK  5 active torsions:
REMARK  status: ('A' for Active; 'I' for Inactive)
REMARK    1  A    between atoms: N1_1  and  C1_2 
REMARK    2  A    between atoms: C1_2  and  N2_4 
REMARK    3  A    between atoms: N2_4  and  N3_5 
REMARK    4  A    between atoms: N3_5  and  C2_6 
REMARK    5  A    between atoms: C5_9  and  C6_10 
ROOT
HETATM    1  C2  UNL     1      21.509   0.301  52.665  1.00  0.00     0.049 C 
HETATM    2  C3  UNL     1      22.792   0.528  52.442  1.00  0.00     0.042 C 
HETATM    3  C4  UNL     1      23.959  -0.104  53.097  1.00  0.00    -0.033 C 
HETATM    4  C5  UNL     1      25.114  -0.099  52.459  1.00  0.00     0.023 C 
HETATM    5  C16 UNL     1      23.878  -0.722  54.420  1.00  0.00     0.011 C 
HETATM    6  C17 UNL     1      22.793  -1.211  55.044  1.00  0.00     0.001 C 
HETATM    7  C18 UNL     1      21.398  -1.281  54.624  1.00  0.00     0.002 C 
HETATM    8  C19 UNL     1      20.882  -0.622  53.602  1.00  0.00     0.031 C 
ENDROOT
BRANCH   4   9
HETATM    9  C6  UNL     1      26.439  -0.590  52.737  1.00  0.00    -0.024 A 
HETATM   10  C7  UNL     1      26.693  -1.932  52.548  1.00  0.00     0.012 A 
HETATM   11  C8  UNL     1      27.960  -2.469  52.809  1.00  0.00     0.002 A 
HETATM   12  C9  UNL     1      28.929  -1.586  53.262  1.00  0.00     0.012 A 
HETATM   13  C10 UNL     1      28.701  -0.240  53.460  1.00  0.00    -0.025 A 
HETATM   14  C11 UNL     1      29.719   0.594  53.921  1.00  0.00     0.012 A 
HETATM   15  C15 UNL     1      27.439   0.247  53.191  1.00  0.00    -0.016 A 
HETATM   16  C12 UNL     1      29.505   1.942  54.126  1.00  0.00     0.001 A 
HETATM   17  C13 UNL     1      28.250   2.406  53.855  1.00  0.00     0.001 A 
HETATM   18  C14 UNL     1      27.216   1.585  53.392  1.00  0.00     0.013 A 
ENDBRANCH   4   9
BRANCH   1  19
HETATM   19  N3  UNL     1      20.673   1.103  51.838  1.00  0.00    -0.299 N 
HETATM   20  H4  UNL     1      20.022   0.416  51.398  1.00  0.00     0.187 HD
BRANCH  19  21
HETATM   21  N2  UNL     1      20.444   2.411  51.444  1.00  0.00    -0.276 N 
HETATM   22  H3  UNL     1      19.410   2.431  51.381  1.00  0.00     0.189 HD
BRANCH  21  23
HETATM   23  C1  UNL     1      21.311   3.503  51.174  1.00  0.00     0.184 C 
HETATM   24  S1  UNL     1      21.731   3.818  49.631  1.00  0.00    -0.040 SA
BRANCH  23  25
HETATM   25  N1  UNL     1      21.742   4.234  52.312  1.00  0.00    -0.375 N 
HETATM   26  H1  UNL     1      22.322   4.819  52.948  1.00  0.00     0.158 HD
HETATM   27  H2  UNL     1      21.043   4.223  53.092  1.00  0.00     0.158 HD
ENDBRANCH  23  25
ENDBRANCH  21  23
ENDBRANCH  19  21
ENDBRANCH   1  19
TORSDOF 5
ENDMDL
MODEL 6
REMARK VINA RESULT:      -8.3      5.728      7.498
REMARK  5 active torsions:
REMARK  status: ('A' for Active; 'I' for Inactive)
REMARK    1  A    between atoms: N1_1  and  C1_2 
REMARK    2  A    between atoms: C1_2  and  N2_4 
REMARK    3  A    between atoms: N2_4  and  N3_5 
REMARK    4  A    between atoms: N3_5  and  C2_6 
REMARK    5  A    between atoms: C5_9  and  C6_10 
ROOT
HETATM    1  C2  UNL     1      25.129   6.258  50.375  1.00  0.00     0.049 C 
HETATM    2  C3  UNL     1      24.283   5.457  50.998  1.00  0.00     0.042 C 
HETATM    3  C4  UNL     1      24.292   3.978  51.047  1.00  0.00    -0.033 C 
HETATM    4  C5  UNL     1      23.675   3.380  52.050  1.00  0.00     0.023 C 
HETATM    5  C16 UNL     1      24.948   3.162  50.027  1.00  0.00     0.011 C 
HETATM    6  C17 UNL     1      25.948   3.511  49.200  1.00  0.00     0.001 C 
HETATM    7  C18 UNL     1      26.674   4.767  49.055  1.00  0.00     0.002 C 
HETATM    8  C19 UNL     1      26.297   5.923  49.571  1.00  0.00     0.031 C 
ENDROOT
BRANCH   4   9
HETATM    9  C6  UNL     1      23.460   2.014  52.451  1.00  0.00    -0.024 A 
HETATM   10  C7  UNL     1      22.271   1.408  52.102  1.00  0.00     0.012 A 
HETATM   11  C8  UNL     1      22.002   0.084  52.471  1.00  0.00     0.002 A 
HETATM   12  C9  UNL     1      22.987  -0.572  53.197  1.00  0.00     0.012 A 
HETATM   13  C10 UNL     1      24.183   0.011  53.558  1.00  0.00    -0.025 A 
HETATM   14  C11 UNL     1      25.130  -0.704  54.291  1.00  0.00     0.012 A 
HETATM   15  C15 UNL     1      24.407   1.316  53.175  1.00  0.00    -0.016 A 
HETATM   16  C12 UNL     1      26.330  -0.134  54.663  1.00  0.00     0.001 A 
HETATM   17  C13 UNL     1      26.534   1.159  54.274  1.00  0.00     0.001 A 
HETATM   18  C14 UNL     1      25.596   1.893  53.539  1.00  0.00     0.013 A 
ENDBRANCH   4   9
BRANCH   1  19
HETATM   19  N3  UNL     1      24.798   7.631  50.556  1.00  0.00    -0.299 N 
HETATM   20  H4  UNL     1      23.798   7.610  50.855  1.00  0.00     0.187 HD
BRANCH  19  21
HETATM   21  N2  UNL     1      25.324   8.909  50.474  1.00  0.00    -0.276 N 
HETATM   22  H3  UNL     1      24.554   9.476  50.874  1.00  0.00     0.189 HD
BRANCH  21  23
HETATM   23  C1  UNL     1      26.561   9.414  49.993  1.00  0.00     0.184 C 
HETATM   24  S1  UNL     1      26.618  10.091  48.512  1.00  0.00    -0.040 SA
BRANCH  23  25
HETATM   25  N1  UNL     1      27.662   9.272  50.878  1.00  0.00    -0.375 N 
HETATM   26  H1  UNL     1      28.623   9.103  51.239  1.00  0.00     0.158 HD
HETATM   27  H2  UNL     1      27.404   9.439  51.880  1.00  0.00     0.158 HD
ENDBRANCH  23  25
ENDBRANCH  21  23
ENDBRANCH  19  21
ENDBRANCH   1  19
TORSDOF 5
ENDMDL
MODEL 7
REMARK VINA RESULT:      -8.3      5.362      7.288
REMARK  5 active torsions:
REMARK  status: ('A' for Active; 'I' for Inactive)
REMARK    1  A    between atoms: N1_1  and  C1_2 
REMARK    2  A    between atoms: C1_2  and  N2_4 
REMARK    3  A    between atoms: N2_4  and  N3_5 
REMARK    4  A    between atoms: N3_5  and  C2_6 
REMARK    5  A    between atoms: C5_9  and  C6_10 
ROOT
HETATM    1  C2  UNL     1      24.910  -0.158  53.845  1.00  0.00     0.049 C 
HETATM    2  C3  UNL     1      25.156   0.961  53.189  1.00  0.00     0.042 C 
HETATM    3  C4  UNL     1      24.199   1.820  52.456  1.00  0.00    -0.033 C 
HETATM    4  C5  UNL     1      24.518   3.086  52.259  1.00  0.00     0.023 C 
HETATM    5  C16 UNL     1      22.928   1.317  51.939  1.00  0.00     0.011 C 
HETATM    6  C17 UNL     1      22.223   0.252  52.358  1.00  0.00     0.001 C 
HETATM    7  C18 UNL     1      22.487  -0.711  53.422  1.00  0.00     0.002 C 
HETATM    8  C19 UNL     1      23.647  -0.860  54.037  1.00  0.00     0.031 C 
ENDROOT
BRANCH   4   9
HETATM    9  C6  UNL     1      23.888   4.212  51.619  1.00  0.00    -0.024 A 
HETATM   10  C7  UNL     1      22.646   4.610  52.068  1.00  0.00     0.012 A 
HETATM   11  C8  UNL     1      21.981   5.694  51.480  1.00  0.00     0.002 A 
HETATM   12  C9  UNL     1      22.634   6.332  50.435  1.00  0.00     0.012 A 
HETATM   13  C10 UNL     1      23.875   5.954  49.967  1.00  0.00    -0.025 A 
HETATM   14  C11 UNL     1      24.475   6.637  48.911  1.00  0.00     0.012 A 
HETATM   15  C15 UNL     1      24.494   4.882  50.575  1.00  0.00    -0.016 A 
HETATM   16  C12 UNL     1      25.715   6.269  48.430  1.00  0.00     0.001 A 
HETATM   17  C13 UNL     1      26.313   5.206  49.044  1.00  0.00     0.001 A 
HETATM   18  C14 UNL     1      25.726   4.507  50.104  1.00  0.00     0.013 A 
ENDBRANCH   4   9
BRANCH   1  19
HETATM   19  N3  UNL     1      26.088  -0.707  54.427  1.00  0.00    -0.299 N 
HETATM   20  H4  UNL     1      25.954  -1.738  54.336  1.00  0.00     0.187 HD
BRANCH  19  21
HETATM   21  N2  UNL     1      27.280  -0.356  55.037  1.00  0.00    -0.276 N 
HETATM   22  H3  UNL     1      27.048  -0.487  56.039  1.00  0.00     0.189 HD
BRANCH  21  23
HETATM   23  C1  UNL     1      28.533   0.078  54.528  1.00  0.00     0.184 C 
HETATM   24  S1  UNL     1      29.411  -0.942  53.608  1.00  0.00    -0.040 SA
BRANCH  23  25
HETATM   25  N1  UNL     1      28.908   1.401  54.882  1.00  0.00    -0.375 N 
HETATM   26  H1  UNL     1      29.323   2.205  55.397  1.00  0.00     0.158 HD
HETATM   27  H2  UNL     1      28.567   2.118  54.200  1.00  0.00     0.158 HD
ENDBRANCH  23  25
ENDBRANCH  21  23
ENDBRANCH  19  21
ENDBRANCH   1  19
TORSDOF 5
ENDMDL
MODEL 8
REMARK VINA RESULT:      -8.2      4.978      7.288
REMARK  5 active torsions:
REMARK  status: ('A' for Active; 'I' for Inactive)
REMARK    1  A    between atoms: N1_1  and  C1_2 
REMARK    2  A    between atoms: C1_2  and  N2_4 
REMARK    3  A    between atoms: N2_4  and  N3_5 
REMARK    4  A    between atoms: N3_5  and  C2_6 
REMARK    5  A    between atoms: C5_9  and  C6_10 
ROOT
HETATM    1  C2  UNL     1      25.419   3.982  50.330  1.00  0.00     0.049 C 
HETATM    2  C3  UNL     1      25.592   2.850  50.989  1.00  0.00     0.042 C 
HETATM    3  C4  UNL     1      24.846   2.355  52.168  1.00  0.00    -0.033 C 
HETATM    4  C5  UNL     1      24.839   1.056  52.405  1.00  0.00     0.023 C 
HETATM    5  C16 UNL     1      24.129   3.249  53.076  1.00  0.00     0.011 C 
HETATM    6  C17 UNL     1      23.652   4.480  52.826  1.00  0.00     0.001 C 
HETATM    7  C18 UNL     1      23.693   5.294  51.616  1.00  0.00     0.002 C 
HETATM    8  C19 UNL     1      24.459   5.053  50.568  1.00  0.00     0.031 C 
ENDROOT
BRANCH   4   9
HETATM    9  C6  UNL     1      24.256   0.202  53.406  1.00  0.00    -0.024 A 
HETATM   10  C7  UNL     1      25.080  -0.326  54.378  1.00  0.00     0.012 A 
HETATM   11  C8  UNL     1      24.571  -1.170  55.373  1.00  0.00     0.002 A 
HETATM   12  C9  UNL     1      23.210  -1.439  55.325  1.00  0.00     0.012 A 
HETATM   13  C10 UNL     1      22.365  -0.925  54.364  1.00  0.00    -0.025 A 
HETATM   14  C11 UNL     1      21.007  -1.238  54.371  1.00  0.00     0.012 A 
HETATM   15  C15 UNL     1      22.908  -0.099  53.403  1.00  0.00    -0.016 A 
HETATM   16  C12 UNL     1      20.149  -0.733  53.415  1.00  0.00     0.001 A 
HETATM   17  C13 UNL     1      20.704   0.083  52.471  1.00  0.00     0.001 A 
HETATM   18  C14 UNL     1      22.065   0.408  52.447  1.00  0.00     0.013 A 
ENDBRANCH   4   9
BRANCH   1  19
HETATM   19  N3  UNL     1      26.330   4.114  49.245  1.00  0.00    -0.299 N 
HETATM   20  H4  UNL     1      25.867   3.597  48.465  1.00  0.00     0.187 HD
BRANCH  19  21
HETATM   21  N2  UNL     1      27.551   4.665  48.894  1.00  0.00    -0.276 N 
HETATM   22  H3  UNL     1      28.143   3.819  48.805  1.00  0.00     0.189 HD
BRANCH  21  23
HETATM   23  C1  UNL     1      27.982   6.002  48.688  1.00  0.00     0.184 C 
HETATM   24  S1  UNL     1      29.317   6.276  47.793  1.00  0.00    -0.040 SA
BRANCH  23  25
HETATM   25  N1  UNL     1      27.182   7.002  49.302  1.00  0.00    -0.375 N 
HETATM   26  H1  UNL     1      26.640   7.876  49.454  1.00  0.00     0.158 HD
HETATM   27  H2  UNL     1      26.913   6.760  50.285  1.00  0.00     0.158 HD
ENDBRANCH  23  25
ENDBRANCH  21  23
ENDBRANCH  19  21
ENDBRANCH   1  19
TORSDOF 5
ENDMDL
MODEL 9
REMARK VINA RESULT:      -8.2      1.854      3.660
REMARK  5 active torsions:
REMARK  status: ('A' for Active; 'I' for Inactive)
REMARK    1  A    between atoms: N1_1  and  C1_2 
REMARK    2  A    between atoms: C1_2  and  N2_4 
REMARK    3  A    between atoms: N2_4  and  N3_5 
REMARK    4  A    between atoms: N3_5  and  C2_6 
REMARK    5  A    between atoms: C5_9  and  C6_10 
ROOT
HETATM    1  C2  UNL     1      22.050   2.308  52.067  1.00  0.00     0.049 C 
HETATM    2  C3  UNL     1      23.005   1.598  52.641  1.00  0.00     0.042 C 
HETATM    3  C4  UNL     1      24.463   1.659  52.395  1.00  0.00    -0.033 C 
HETATM    4  C5  UNL     1      25.278   1.230  53.341  1.00  0.00     0.023 C 
HETATM    5  C16 UNL     1      25.028   2.166  51.145  1.00  0.00     0.011 C 
HETATM    6  C17 UNL     1      24.468   3.009  50.261  1.00  0.00     0.001 C 
HETATM    7  C18 UNL     1      23.165   3.664  50.259  1.00  0.00     0.002 C 
HETATM    8  C19 UNL     1      22.154   3.341  51.044  1.00  0.00     0.031 C 
ENDROOT
BRANCH   4   9
HETATM    9  C6  UNL     1      26.705   1.124  53.493  1.00  0.00    -0.024 A 
HETATM   10  C7  UNL     1      27.415   2.260  53.822  1.00  0.00     0.012 A 
HETATM   11  C8  UNL     1      28.807   2.220  53.974  1.00  0.00     0.002 A 
HETATM   12  C9  UNL     1      29.420   0.991  53.779  1.00  0.00     0.012 A 
HETATM   13  C10 UNL     1      28.734  -0.159  53.449  1.00  0.00    -0.025 A 
HETATM   14  C11 UNL     1      29.411  -1.363  53.263  1.00  0.00     0.012 A 
HETATM   15  C15 UNL     1      27.365  -0.075  53.308  1.00  0.00    -0.016 A 
HETATM   16  C12 UNL     1      28.739  -2.521  52.930  1.00  0.00     0.001 A 
HETATM   17  C13 UNL     1      27.384  -2.419  52.795  1.00  0.00     0.001 A 
HETATM   18  C14 UNL     1      26.686  -1.220  52.977  1.00  0.00     0.013 A 
ENDBRANCH   4   9
BRANCH   1  19
HETATM   19  N3  UNL     1      20.760   1.970  52.564  1.00  0.00    -0.299 N 
HETATM   20  H4  UNL     1      20.470   2.815  53.103  1.00  0.00     0.187 HD
BRANCH  19  21
HETATM   21  N2  UNL     1      19.815   0.957  52.572  1.00  0.00    -0.276 N 
HETATM   22  H3  UNL     1      19.243   1.201  51.744  1.00  0.00     0.189 HD
BRANCH  21  23
HETATM   23  C1  UNL     1      19.599  -0.153  53.431  1.00  0.00     0.184 C 
HETATM   24  S1  UNL     1      18.357  -1.162  53.124  1.00  0.00    -0.040 SA
BRANCH  23  25
HETATM   25  N1  UNL     1      20.516  -0.277  54.508  1.00  0.00    -0.375 N 
HETATM   26  H1  UNL     1      21.256  -0.054  55.205  1.00  0.00     0.158 HD
HETATM   27  H2  UNL     1      20.480  -1.217  54.968  1.00  0.00     0.158 HD
ENDBRANCH  23  25
ENDBRANCH  21  23
ENDBRANCH  19  21
ENDBRANCH   1  19
TORSDOF 5
ENDMDL
