MODEL 1
REMARK VINA RESULT:      -8.1      0.000      0.000
REMARK  5 active torsions:
REMARK  status: ('A' for Active; 'I' for Inactive)
REMARK    1  A    between atoms: C2_2  and  C3_3 
REMARK    2  A    between atoms: C3_3  and  C4_4 
REMARK    3  A    between atoms: C5_5  and  O1_6 
REMARK    4  A    between atoms: C11_15  and  C12_16 
REMARK    5  A    between atoms: C15_19  and  O2_20 
ROOT
HETATM    1  C4  UNL     1      20.472   1.194  50.949  1.00  0.00     0.022 C 
HETATM    2  C5  UNL     1      21.217   1.482  49.626  1.00  0.00     0.079 C 
HETATM    3  C6  UNL     1      22.340   2.172  49.185  1.00  0.00     0.079 C 
HETATM    4  C7  UNL     1      23.356   3.018  49.863  1.00  0.00     0.232 C 
HETATM    5  F1  UNL     1      24.238   3.481  48.937  1.00  0.00    -0.211 F 
HETATM    6  N1  UNL     1      22.683   4.290  50.376  1.00  0.00    -0.216 NA
HETATM    7  C8  UNL     1      22.115   3.834  51.493  1.00  0.00     0.187 C 
HETATM    8  N2  UNL     1      21.049   3.213  52.406  1.00  0.00    -0.227 NA
HETATM    9  C9  UNL     1      21.267   1.785  52.045  1.00  0.00     0.051 C 
HETATM   10  C10 UNL     1      22.535   1.259  52.779  1.00  0.00     0.071 C 
HETATM   11  C11 UNL     1      23.656   1.261  51.750  1.00  0.00     0.044 C 
HETATM   12  C19 UNL     1      24.081   2.432  51.031  1.00  0.00     0.131 C 
HETATM   13  S1  UNL     1      23.832   3.954  52.132  1.00  0.00    -0.079 SA
ENDROOT
BRANCH  11  14
HETATM   14  C12 UNL     1      24.853   0.727  52.494  1.00  0.00    -0.052 A 
HETATM   15  C13 UNL     1      26.137   0.880  51.983  1.00  0.00     0.010 A 
HETATM   16  C14 UNL     1      27.252   0.406  52.637  1.00  0.00     0.037 A 
HETATM   17  C15 UNL     1      27.115  -0.251  53.847  1.00  0.00     0.068 A 
HETATM   18  C17 UNL     1      25.852  -0.417  54.378  1.00  0.00     0.037 A 
HETATM   19  C18 UNL     1      24.734   0.060  53.722  1.00  0.00     0.010 A 
BRANCH  17  20
HETATM   20  O2  UNL     1      28.277  -0.702  54.450  1.00  0.00    -0.356 OA
HETATM   21  C16 UNL     1      29.548  -0.724  53.825  1.00  0.00     0.210 C 
ENDBRANCH  17  20
ENDBRANCH  11  14
BRANCH   1  22
HETATM   22  C3  UNL     1      19.390   0.553  50.826  1.00  0.00     0.015 C 
BRANCH  22  23
HETATM   23  C2  UNL     1      18.161  -0.134  51.044  1.00  0.00    -0.009 C 
HETATM   24  C1  UNL     1      17.433  -0.654  52.014  1.00  0.00     0.011 C 
ENDBRANCH  22  23
ENDBRANCH   1  22
BRANCH   2  25
HETATM   25  O1  UNL     1      20.653   0.910  48.471  1.00  0.00    -0.360 OA
HETATM   26  H5  UNL     1      21.196   1.079  47.627  1.00  0.00     0.217 HD
ENDBRANCH   2  25
TORSDOF 5
ENDMDL
MODEL 2
REMARK VINA RESULT:      -7.7      3.208      5.275
REMARK  5 active torsions:
REMARK  status: ('A' for Active; 'I' for Inactive)
REMARK    1  A    between atoms: C2_2  and  C3_3 
REMARK    2  A    between atoms: C3_3  and  C4_4 
REMARK    3  A    between atoms: C5_5  and  O1_6 
REMARK    4  A    between atoms: C11_15  and  C12_16 
REMARK    5  A    between atoms: C15_19  and  O2_20 
ROOT
HETATM    1  C4  UNL     1      24.984   5.850  50.046  1.00  0.00     0.022 C 
HETATM    2  C5  UNL     1      24.008   6.109  51.217  1.00  0.00     0.079 C 
HETATM    3  C6  UNL     1      22.985   5.453  51.891  1.00  0.00     0.079 C 
HETATM    4  C7  UNL     1      22.331   4.130  51.726  1.00  0.00     0.232 C 
HETATM    5  F1  UNL     1      21.346   4.002  52.656  1.00  0.00    -0.211 F 
HETATM    6  N1  UNL     1      21.570   4.112  50.402  1.00  0.00    -0.216 NA
HETATM    7  C8  UNL     1      22.569   3.880  49.549  1.00  0.00     0.187 C 
HETATM    8  N2  UNL     1      23.723   4.176  48.583  1.00  0.00    -0.227 NA
HETATM    9  C9  UNL     1      24.778   4.459  49.594  1.00  0.00     0.051 C 
HETATM   10  C10 UNL     1      25.303   3.114  50.177  1.00  0.00     0.071 C 
HETATM   11  C11 UNL     1      24.631   2.943  51.531  1.00  0.00     0.044 C 
HETATM   12  C19 UNL     1      23.205   2.917  51.720  1.00  0.00     0.131 C 
HETATM   13  S1  UNL     1      22.394   2.165  50.181  1.00  0.00    -0.079 SA
ENDROOT
BRANCH  11  14
HETATM   14  C12 UNL     1      25.181   1.645  52.065  1.00  0.00    -0.052 A 
HETATM   15  C13 UNL     1      26.441   1.196  51.688  1.00  0.00     0.010 A 
HETATM   16  C14 UNL     1      26.975   0.016  52.157  1.00  0.00     0.037 A 
HETATM   17  C15 UNL     1      26.249  -0.767  53.036  1.00  0.00     0.068 A 
HETATM   18  C17 UNL     1      24.995  -0.345  53.429  1.00  0.00     0.037 A 
HETATM   19  C18 UNL     1      24.460   0.838  52.958  1.00  0.00     0.010 A 
BRANCH  17  20
HETATM   20  O2  UNL     1      26.845  -1.939  53.468  1.00  0.00    -0.356 OA
HETATM   21  C16 UNL     1      27.920  -2.583  52.808  1.00  0.00     0.210 C 
ENDBRANCH  17  20
ENDBRANCH  11  14
BRANCH   1  22
HETATM   22  C3  UNL     1      25.711   6.834  49.729  1.00  0.00     0.015 C 
BRANCH  22  23
HETATM   23  C2  UNL     1      26.339   8.109  49.626  1.00  0.00    -0.009 C 
HETATM   24  C1  UNL     1      27.058   8.960  50.334  1.00  0.00     0.011 C 
ENDBRANCH  22  23
ENDBRANCH   1  22
BRANCH   2  25
HETATM   25  O1  UNL     1      24.124   7.363  51.843  1.00  0.00    -0.360 OA
HETATM   26  H5  UNL     1      23.923   8.146  51.225  1.00  0.00     0.217 HD
ENDBRANCH   2  25
TORSDOF 5
ENDMDL
MODEL 3
REMARK VINA RESULT:      -7.4      3.776      6.358
REMARK  5 active torsions:
REMARK  status: ('A' for Active; 'I' for Inactive)
REMARK    1  A    between atoms: C2_2  and  C3_3 
REMARK    2  A    between atoms: C3_3  and  C4_4 
REMARK    3  A    between atoms: C5_5  and  O1_6 
REMARK    4  A    between atoms: C11_15  and  C12_16 
REMARK    5  A    between atoms: C15_19  and  O2_20 
ROOT
HETATM    1  C4  UNL     1      25.350   5.261  49.428  1.00  0.00     0.022 C 
HETATM    2  C5  UNL     1      24.909   6.400  50.376  1.00  0.00     0.079 C 
HETATM    3  C6  UNL     1      23.742   6.893  50.949  1.00  0.00     0.079 C 
HETATM    4  C7  UNL     1      22.309   6.513  50.846  1.00  0.00     0.232 C 
HETATM    5  F1  UNL     1      21.569   7.365  51.607  1.00  0.00    -0.211 F 
HETATM    6  N1  UNL     1      21.820   6.792  49.427  1.00  0.00    -0.216 NA
HETATM    7  C8  UNL     1      22.293   5.720  48.789  1.00  0.00     0.187 C 
HETATM    8  N2  UNL     1      23.272   4.841  48.001  1.00  0.00    -0.227 NA
HETATM    9  C9  UNL     1      24.157   4.443  49.130  1.00  0.00     0.051 C 
HETATM   10  C10 UNL     1      23.458   3.325  49.959  1.00  0.00     0.071 C 
HETATM   11  C11 UNL     1      22.881   4.005  51.192  1.00  0.00     0.044 C 
HETATM   12  C19 UNL     1      21.943   5.094  51.141  1.00  0.00     0.131 C 
HETATM   13  S1  UNL     1      20.861   4.903  49.597  1.00  0.00    -0.079 SA
ENDROOT
BRANCH  11  14
HETATM   14  C12 UNL     1      22.236   2.888  51.972  1.00  0.00    -0.052 A 
HETATM   15  C13 UNL     1      22.984   1.804  52.415  1.00  0.00     0.010 A 
HETATM   16  C14 UNL     1      22.426   0.766  53.130  1.00  0.00     0.037 A 
HETATM   17  C15 UNL     1      21.076   0.783  53.430  1.00  0.00     0.068 A 
HETATM   18  C17 UNL     1      20.309   1.849  53.003  1.00  0.00     0.037 A 
HETATM   19  C18 UNL     1      20.869   2.888  52.286  1.00  0.00     0.010 A 
BRANCH  17  20
HETATM   20  O2  UNL     1      20.582  -0.290  54.152  1.00  0.00    -0.356 OA
HETATM   21  C16 UNL     1      21.267  -1.515  54.337  1.00  0.00     0.210 C 
ENDBRANCH  17  20
ENDBRANCH  11  14
BRANCH   1  22
HETATM   22  C3  UNL     1      26.574   5.271  49.114  1.00  0.00     0.015 C 
BRANCH  22  23
HETATM   23  C2  UNL     1      27.857   5.002  48.555  1.00  0.00    -0.009 C 
HETATM   24  C1  UNL     1      28.976   5.611  48.210  1.00  0.00     0.011 C 
ENDBRANCH  22  23
ENDBRANCH   1  22
BRANCH   2  25
HETATM   25  O1  UNL     1      25.938   7.235  50.848  1.00  0.00    -0.360 OA
HETATM   26  H5  UNL     1      26.299   6.961  51.758  1.00  0.00     0.217 HD
ENDBRANCH   2  25
TORSDOF 5
ENDMDL
MODEL 4
REMARK VINA RESULT:      -7.2     10.198     11.660
REMARK  5 active torsions:
REMARK  status: ('A' for Active; 'I' for Inactive)
REMARK    1  A    between atoms: C2_2  and  C3_3 
REMARK    2  A    between atoms: C3_3  and  C4_4 
REMARK    3  A    between atoms: C5_5  and  O1_6 
REMARK    4  A    between atoms: C11_15  and  C12_16 
REMARK    5  A    between atoms: C15_19  and  O2_20 
ROOT
HETATM    1  C4  UNL     1      29.263   5.767  48.310  1.00  0.00     0.022 C 
HETATM    2  C5  UNL     1      29.124   7.291  48.092  1.00  0.00     0.079 C 
HETATM    3  C6  UNL     1      29.939   8.410  47.967  1.00  0.00     0.079 C 
HETATM    4  C7  UNL     1      31.408   8.621  48.032  1.00  0.00     0.232 C 
HETATM    5  F1  UNL     1      31.674   9.946  47.870  1.00  0.00    -0.211 F 
HETATM    6  N1  UNL     1      31.890   8.336  49.452  1.00  0.00    -0.216 NA
HETATM    7  C8  UNL     1      31.943   7.003  49.430  1.00  0.00     0.187 C 
HETATM    8  N2  UNL     1      31.473   5.550  49.576  1.00  0.00    -0.227 NA
HETATM    9  C9  UNL     1      30.705   5.447  48.304  1.00  0.00     0.051 C 
HETATM   10  C10 UNL     1      31.698   5.251  47.120  1.00  0.00     0.071 C 
HETATM   11  C11 UNL     1      31.833   6.609  46.448  1.00  0.00     0.044 C 
HETATM   12  C19 UNL     1      32.269   7.800  47.127  1.00  0.00     0.131 C 
HETATM   13  S1  UNL     1      33.491   7.317  48.493  1.00  0.00    -0.079 SA
ENDROOT
BRANCH  11  14
HETATM   14  C12 UNL     1      32.782   6.369  45.301  1.00  0.00    -0.052 A 
HETATM   15  C13 UNL     1      33.449   7.427  44.695  1.00  0.00     0.010 A 
HETATM   16  C14 UNL     1      34.323   7.244  43.646  1.00  0.00     0.037 A 
HETATM   17  C15 UNL     1      34.561   5.970  43.161  1.00  0.00     0.068 A 
HETATM   18  C17 UNL     1      33.913   4.901  43.745  1.00  0.00     0.037 A 
HETATM   19  C18 UNL     1      33.037   5.085  44.797  1.00  0.00     0.010 A 
BRANCH  17  20
HETATM   20  O2  UNL     1      35.450   5.858  42.106  1.00  0.00    -0.356 OA
HETATM   21  C16 UNL     1      36.717   6.490  42.054  1.00  0.00     0.210 C 
ENDBRANCH  17  20
ENDBRANCH  11  14
BRANCH   1  22
HETATM   22  C3  UNL     1      28.172   5.145  48.449  1.00  0.00     0.015 C 
BRANCH  22  23
HETATM   23  C2  UNL     1      26.975   4.553  48.947  1.00  0.00    -0.009 C 
HETATM   24  C1  UNL     1      26.542   3.462  49.550  1.00  0.00     0.011 C 
ENDBRANCH  22  23
ENDBRANCH   1  22
BRANCH   2  25
HETATM   25  O1  UNL     1      27.808   7.773  47.974  1.00  0.00    -0.360 OA
HETATM   26  H5  UNL     1      27.616   8.580  48.562  1.00  0.00     0.217 HD
ENDBRANCH   2  25
TORSDOF 5
ENDMDL
MODEL 5
REMARK VINA RESULT:      -6.8      3.795      5.257
REMARK  5 active torsions:
REMARK  status: ('A' for Active; 'I' for Inactive)
REMARK    1  A    between atoms: C2_2  and  C3_3 
REMARK    2  A    between atoms: C3_3  and  C4_4 
REMARK    3  A    between atoms: C5_5  and  O1_6 
REMARK    4  A    between atoms: C11_15  and  C12_16 
REMARK    5  A    between atoms: C15_19  and  O2_20 
ROOT
HETATM    1  C4  UNL     1      22.879   2.114  51.640  1.00  0.00     0.022 C 
HETATM    2  C5  UNL     1      22.145   2.008  50.284  1.00  0.00     0.079 C 
HETATM    3  C6  UNL     1      21.754   2.834  49.237  1.00  0.00     0.079 C 
HETATM    4  C7  UNL     1      21.863   4.295  48.988  1.00  0.00     0.232 C 
HETATM    5  F1  UNL     1      21.277   4.586  47.795  1.00  0.00    -0.211 F 
HETATM    6  N1  UNL     1      20.995   5.039  49.999  1.00  0.00    -0.216 NA
HETATM    7  C8  UNL     1      21.794   5.022  51.068  1.00  0.00     0.187 C 
HETATM    8  N2  UNL     1      22.427   4.520  52.372  1.00  0.00    -0.227 NA
HETATM    9  C9  UNL     1      23.347   3.507  51.785  1.00  0.00     0.051 C 
HETATM   10  C10 UNL     1      24.590   4.229  51.185  1.00  0.00     0.071 C 
HETATM   11  C11 UNL     1      24.364   4.292  49.682  1.00  0.00     0.044 C 
HETATM   12  C19 UNL     1      23.221   4.914  49.069  1.00  0.00     0.131 C 
HETATM   13  S1  UNL     1      22.653   6.361  50.152  1.00  0.00    -0.079 SA
ENDROOT
BRANCH  11  14
HETATM   14  C12 UNL     1      25.595   4.977  49.144  1.00  0.00    -0.052 A 
HETATM   15  C13 UNL     1      26.821   4.323  49.120  1.00  0.00     0.010 A 
HETATM   16  C14 UNL     1      27.965   4.919  48.634  1.00  0.00     0.037 A 
HETATM   17  C15 UNL     1      27.915   6.213  48.149  1.00  0.00     0.068 A 
HETATM   18  C17 UNL     1      26.710   6.886  48.160  1.00  0.00     0.037 A 
HETATM   19  C18 UNL     1      25.564   6.288  48.646  1.00  0.00     0.010 A 
BRANCH  17  20
HETATM   20  O2  UNL     1      29.100   6.750  47.676  1.00  0.00    -0.356 OA
HETATM   21  C16 UNL     1      30.108   7.314  48.496  1.00  0.00     0.210 C 
ENDBRANCH  17  20
ENDBRANCH  11  14
BRANCH   1  22
HETATM   22  C3  UNL     1      22.919   1.044  52.312  1.00  0.00     0.015 C 
BRANCH  22  23
HETATM   23  C2  UNL     1      23.308  -0.065  53.117  1.00  0.00    -0.009 C 
HETATM   24  C1  UNL     1      22.844  -0.863  54.061  1.00  0.00     0.011 C 
ENDBRANCH  22  23
ENDBRANCH   1  22
BRANCH   2  25
HETATM   25  O1  UNL     1      21.706   0.720  49.927  1.00  0.00    -0.360 OA
HETATM   26  H5  UNL     1      22.237  -0.028  50.367  1.00  0.00     0.217 HD
ENDBRANCH   2  25
TORSDOF 5
ENDMDL
MODEL 6
REMARK VINA RESULT:      -6.6      5.331      6.595
REMARK  5 active torsions:
REMARK  status: ('A' for Active; 'I' for Inactive)
REMARK    1  A    between atoms: C2_2  and  C3_3 
REMARK    2  A    between atoms: C3_3  and  C4_4 
REMARK    3  A    between atoms: C5_5  and  O1_6 
REMARK    4  A    between atoms: C11_15  and  C12_16 
REMARK    5  A    between atoms: C15_19  and  O2_20 
ROOT
HETATM    1  C4  UNL     1      23.553   3.971  48.983  1.00  0.00     0.022 C 
HETATM    2  C5  UNL     1      22.992   5.060  48.041  1.00  0.00     0.079 C 
HETATM    3  C6  UNL     1      23.142   6.422  47.808  1.00  0.00     0.079 C 
HETATM    4  C7  UNL     1      23.952   7.489  48.450  1.00  0.00     0.232 C 
HETATM    5  F1  UNL     1      23.693   8.674  47.834  1.00  0.00    -0.211 F 
HETATM    6  N1  UNL     1      23.445   7.712  49.873  1.00  0.00    -0.216 NA
HETATM    7  C8  UNL     1      24.031   6.694  50.505  1.00  0.00     0.187 C 
HETATM    8  N2  UNL     1      24.222   5.282  51.072  1.00  0.00    -0.227 NA
HETATM    9  C9  UNL     1      24.606   4.596  49.808  1.00  0.00     0.051 C 
HETATM   10  C10 UNL     1      26.095   4.918  49.482  1.00  0.00     0.071 C 
HETATM   11  C11 UNL     1      26.074   5.995  48.408  1.00  0.00     0.044 C 
HETATM   12  C19 UNL     1      25.426   7.269  48.564  1.00  0.00     0.131 C 
HETATM   13  S1  UNL     1      25.506   7.781  50.387  1.00  0.00    -0.079 SA
ENDROOT
BRANCH  11  14
HETATM   14  C12 UNL     1      27.528   6.259  48.110  1.00  0.00    -0.052 A 
HETATM   15  C13 UNL     1      27.931   7.459  47.537  1.00  0.00     0.010 A 
HETATM   16  C14 UNL     1      29.251   7.734  47.252  1.00  0.00     0.037 A 
HETATM   17  C15 UNL     1      30.227   6.796  47.538  1.00  0.00     0.068 A 
HETATM   18  C17 UNL     1      29.855   5.596  48.108  1.00  0.00     0.037 A 
HETATM   19  C18 UNL     1      28.532   5.321  48.394  1.00  0.00     0.010 A 
BRANCH  17  20
HETATM   20  O2  UNL     1      31.532   7.137  47.226  1.00  0.00    -0.356 OA
HETATM   21  C16 UNL     1      32.674   6.426  47.667  1.00  0.00     0.210 C 
ENDBRANCH  17  20
ENDBRANCH  11  14
BRANCH   1  22
HETATM   22  C3  UNL     1      23.017   2.833  48.864  1.00  0.00     0.015 C 
BRANCH  22  23
HETATM   23  C2  UNL     1      22.185   1.681  48.976  1.00  0.00    -0.009 C 
HETATM   24  C1  UNL     1      20.913   1.332  49.011  1.00  0.00     0.011 C 
ENDBRANCH  22  23
ENDBRANCH   1  22
BRANCH   2  25
HETATM   25  O1  UNL     1      22.034   4.625  47.107  1.00  0.00    -0.360 OA
HETATM   26  H5  UNL     1      22.413   4.475  46.175  1.00  0.00     0.217 HD
ENDBRANCH   2  25
TORSDOF 5
ENDMDL
MODEL 7
REMARK VINA RESULT:      -6.6      2.475      6.819
REMARK  5 active torsions:
REMARK  status: ('A' for Active; 'I' for Inactive)
REMARK    1  A    between atoms: C2_2  and  C3_3 
REMARK    2  A    between atoms: C3_3  and  C4_4 
REMARK    3  A    between atoms: C5_5  and  O1_6 
REMARK    4  A    between atoms: C11_15  and  C12_16 
REMARK    5  A    between atoms: C15_19  and  O2_20 
ROOT
HETATM    1  C4  UNL     1      24.382   1.971  51.570  1.00  0.00     0.022 C 
HETATM    2  C5  UNL     1      24.083   3.223  52.426  1.00  0.00     0.079 C 
HETATM    3  C6  UNL     1      23.197   4.293  52.442  1.00  0.00     0.079 C 
HETATM    4  C7  UNL     1      22.098   4.728  51.542  1.00  0.00     0.232 C 
HETATM    5  F1  UNL     1      21.565   5.886  52.020  1.00  0.00    -0.211 F 
HETATM    6  N1  UNL     1      22.689   5.142  50.197  1.00  0.00    -0.216 NA
HETATM    7  C8  UNL     1      22.867   3.947  49.630  1.00  0.00     0.187 C 
HETATM    8  N2  UNL     1      23.566   2.637  49.242  1.00  0.00    -0.227 NA
HETATM    9  C9  UNL     1      23.351   1.897  50.515  1.00  0.00     0.051 C 
HETATM   10  C10 UNL     1      21.885   1.373  50.562  1.00  0.00     0.071 C 
HETATM   11  C11 UNL     1      21.119   2.326  51.467  1.00  0.00     0.044 C 
HETATM   12  C19 UNL     1      21.017   3.742  51.236  1.00  0.00     0.131 C 
HETATM   13  S1  UNL     1      21.054   4.065  49.369  1.00  0.00    -0.079 SA
ENDROOT
BRANCH  11  14
HETATM   14  C12 UNL     1      19.718   1.771  51.500  1.00  0.00    -0.052 A 
HETATM   15  C13 UNL     1      19.494   0.400  51.475  1.00  0.00     0.010 A 
HETATM   16  C14 UNL     1      18.227  -0.141  51.504  1.00  0.00     0.037 A 
HETATM   17  C15 UNL     1      17.123   0.691  51.560  1.00  0.00     0.068 A 
HETATM   18  C17 UNL     1      17.316   2.057  51.587  1.00  0.00     0.037 A 
HETATM   19  C18 UNL     1      18.587   2.599  51.557  1.00  0.00     0.010 A 
BRANCH  17  20
HETATM   20  O2  UNL     1      15.881   0.081  51.587  1.00  0.00    -0.356 OA
HETATM   21  C16 UNL     1      14.940   0.224  52.636  1.00  0.00     0.210 C 
ENDBRANCH  17  20
ENDBRANCH  11  14
BRANCH   1  22
HETATM   22  C3  UNL     1      25.398   1.310  51.926  1.00  0.00     0.015 C 
BRANCH  22  23
HETATM   23  C2  UNL     1      26.348   0.285  52.210  1.00  0.00    -0.009 C 
HETATM   24  C1  UNL     1      26.417  -0.965  52.626  1.00  0.00     0.011 C 
ENDBRANCH  22  23
ENDBRANCH   1  22
BRANCH   2  25
HETATM   25  O1  UNL     1      24.913   3.408  53.547  1.00  0.00    -0.360 OA
HETATM   26  H5  UNL     1      24.963   2.595  54.155  1.00  0.00     0.217 HD
ENDBRANCH   2  25
TORSDOF 5
ENDMDL
MODEL 8
REMARK VINA RESULT:      -6.5      2.679      4.374
REMARK  5 active torsions:
REMARK  status: ('A' for Active; 'I' for Inactive)
REMARK    1  A    between atoms: C2_2  and  C3_3 
REMARK    2  A    between atoms: C3_3  and  C4_4 
REMARK    3  A    between atoms: C5_5  and  O1_6 
REMARK    4  A    between atoms: C11_15  and  C12_16 
REMARK    5  A    between atoms: C15_19  and  O2_20 
ROOT
HETATM    1  C4  UNL     1      22.806   4.790  49.109  1.00  0.00     0.022 C 
HETATM    2  C5  UNL     1      21.987   5.162  50.367  1.00  0.00     0.079 C 
HETATM    3  C6  UNL     1      21.328   4.528  51.412  1.00  0.00     0.079 C 
HETATM    4  C7  UNL     1      21.090   3.103  51.760  1.00  0.00     0.232 C 
HETATM    5  F1  UNL     1      20.343   3.042  52.897  1.00  0.00    -0.211 F 
HETATM    6  N1  UNL     1      20.179   2.478  50.707  1.00  0.00    -0.216 NA
HETATM    7  C8  UNL     1      21.059   2.237  49.733  1.00  0.00     0.187 C 
HETATM    8  N2  UNL     1      21.907   2.482  48.479  1.00  0.00    -0.227 NA
HETATM    9  C9  UNL     1      22.967   3.322  49.102  1.00  0.00     0.051 C 
HETATM   10  C10 UNL     1      23.959   2.405  49.877  1.00  0.00     0.071 C 
HETATM   11  C11 UNL     1      23.584   2.517  51.347  1.00  0.00     0.044 C 
HETATM   12  C19 UNL     1      22.280   2.205  51.867  1.00  0.00     0.131 C 
HETATM   13  S1  UNL     1      21.512   0.826  50.818  1.00  0.00    -0.079 SA
ENDROOT
BRANCH  11  14
HETATM   14  C12 UNL     1      24.578   1.634  52.058  1.00  0.00    -0.052 A 
HETATM   15  C13 UNL     1      25.908   1.594  51.660  1.00  0.00     0.010 A 
HETATM   16  C14 UNL     1      26.843   0.799  52.288  1.00  0.00     0.037 A 
HETATM   17  C15 UNL     1      26.466   0.004  53.355  1.00  0.00     0.068 A 
HETATM   18  C17 UNL     1      25.150   0.024  53.772  1.00  0.00     0.037 A 
HETATM   19  C18 UNL     1      24.214   0.821  53.143  1.00  0.00     0.010 A 
BRANCH  17  20
HETATM   20  O2  UNL     1      27.454  -0.769  53.939  1.00  0.00    -0.356 OA
HETATM   21  C16 UNL     1      28.707  -0.273  54.375  1.00  0.00     0.210 C 
ENDBRANCH  17  20
ENDBRANCH  11  14
BRANCH   1  22
HETATM   22  C3  UNL     1      23.143   5.767  48.382  1.00  0.00     0.015 C 
BRANCH  22  23
HETATM   23  C2  UNL     1      23.180   6.967  47.613  1.00  0.00    -0.009 C 
HETATM   24  C1  UNL     1      23.054   8.274  47.743  1.00  0.00     0.011 C 
ENDBRANCH  22  23
ENDBRANCH   1  22
BRANCH   2  25
HETATM   25  O1  UNL     1      21.810   6.539  50.594  1.00  0.00    -0.360 OA
HETATM   26  H5  UNL     1      22.106   7.121  49.815  1.00  0.00     0.217 HD
ENDBRANCH   2  25
TORSDOF 5
ENDMDL
MODEL 9
REMARK VINA RESULT:      -6.5      3.623      8.063
REMARK  5 active torsions:
REMARK  status: ('A' for Active; 'I' for Inactive)
REMARK    1  A    between atoms: C2_2  and  C3_3 
REMARK    2  A    between atoms: C3_3  and  C4_4 
REMARK    3  A    between atoms: C5_5  and  O1_6 
REMARK    4  A    between atoms: C11_15  and  C12_16 
REMARK    5  A    between atoms: C15_19  and  O2_20 
ROOT
HETATM    1  C4  UNL     1      26.161   4.771  49.423  1.00  0.00     0.022 C 
HETATM    2  C5  UNL     1      25.894   3.617  50.416  1.00  0.00     0.079 C 
HETATM    3  C6  UNL     1      24.871   3.157  51.237  1.00  0.00     0.079 C 
HETATM    4  C7  UNL     1      23.505   3.652  51.548  1.00  0.00     0.232 C 
HETATM    5  F1  UNL     1      22.929   2.821  52.459  1.00  0.00    -0.211 F 
HETATM    6  N1  UNL     1      23.613   4.977  52.298  1.00  0.00    -0.216 NA
HETATM    7  C8  UNL     1      23.837   5.815  51.285  1.00  0.00     0.187 C 
HETATM    8  N2  UNL     1      24.622   6.634  50.252  1.00  0.00    -0.227 NA
HETATM    9  C9  UNL     1      24.907   5.538  49.285  1.00  0.00     0.051 C 
HETATM   10  C10 UNL     1      23.631   5.257  48.437  1.00  0.00     0.071 C 
HETATM   11  C11 UNL     1      22.991   4.011  49.029  1.00  0.00     0.044 C 
HETATM   12  C19 UNL     1      22.577   3.897  50.402  1.00  0.00     0.131 C 
HETATM   13  S1  UNL     1      22.032   5.602  51.023  1.00  0.00    -0.079 SA
ENDROOT
BRANCH  11  14
HETATM   14  C12 UNL     1      21.777   3.765  48.169  1.00  0.00    -0.052 A 
HETATM   15  C13 UNL     1      20.647   3.148  48.691  1.00  0.00     0.010 A 
HETATM   16  C14 UNL     1      19.521   2.909  47.934  1.00  0.00     0.037 A 
HETATM   17  C15 UNL     1      19.492   3.287  46.604  1.00  0.00     0.068 A 
HETATM   18  C17 UNL     1      20.600   3.903  46.059  1.00  0.00     0.037 A 
HETATM   19  C18 UNL     1      21.729   4.142  46.819  1.00  0.00     0.010 A 
BRANCH  17  20
HETATM   20  O2  UNL     1      18.330   3.017  45.902  1.00  0.00    -0.356 OA
HETATM   21  C16 UNL     1      18.166   3.226  44.511  1.00  0.00     0.210 C 
ENDBRANCH  17  20
ENDBRANCH  11  14
BRANCH   1  22
HETATM   22  C3  UNL     1      27.337   4.820  48.964  1.00  0.00     0.015 C 
BRANCH  22  23
HETATM   23  C2  UNL     1      28.536   5.165  48.275  1.00  0.00    -0.009 C 
HETATM   24  C1  UNL     1      29.474   6.093  48.245  1.00  0.00     0.011 C 
ENDBRANCH  22  23
ENDBRANCH   1  22
BRANCH   2  25
HETATM   25  O1  UNL     1      26.957   2.715  50.604  1.00  0.00    -0.360 OA
HETATM   26  H5  UNL     1      27.776   3.135  51.036  1.00  0.00     0.217 HD
ENDBRANCH   2  25
TORSDOF 5
ENDMDL
