MODEL 1
REMARK VINA RESULT:      -7.8      0.000      0.000
REMARK  7 active torsions:
REMARK  status: ('A' for Active; 'I' for Inactive)
REMARK    1  A    between atoms: C2_2  and  O1_3 
REMARK    2  A    between atoms: O1_3  and  C3_4 
REMARK    3  A    between atoms: C5_6  and  C6_7 
REMARK    4  A    between atoms: C11_13  and  O2_14 
REMARK    5  A    between atoms: C12_15  and  O3_16 
REMARK    6  A    between atoms: O3_16  and  N2_17 
REMARK    7  A    between atoms: C17_22  and  O4_23 
ROOT
HETATM    1  C6  UNL     1      23.793   1.752  52.308  1.00  0.00    -0.012 A 
HETATM    2  C7  UNL     1      22.639   0.965  52.200  1.00  0.00     0.032 A 
HETATM    3  C8  UNL     1      22.496  -0.275  52.816  1.00  0.00     0.118 A 
HETATM    4  N1  UNL     1      23.537  -0.738  53.558  1.00  0.00    -0.260 NA
HETATM    5  C9  UNL     1      24.658  -0.006  53.681  1.00  0.00     0.070 A 
HETATM    6  C10 UNL     1      25.721  -0.456  54.418  1.00  0.00     0.072 A 
HETATM    7  C11 UNL     1      26.857   0.307  54.521  1.00  0.00     0.103 A 
HETATM    8  C12 UNL     1      27.026   1.529  53.926  1.00  0.00     0.125 A 
HETATM    9  C13 UNL     1      25.933   1.974  53.178  1.00  0.00     0.056 A 
HETATM   10  C14 UNL     1      24.791   1.213  53.071  1.00  0.00     0.007 A 
ENDROOT
BRANCH   1  11
HETATM   11  C5  UNL     1      23.752   3.033  51.619  1.00  0.00    -0.022 A 
HETATM   12  C4  UNL     1      24.417   3.491  50.505  1.00  0.00     0.052 A 
HETATM   13  C3  UNL     1      24.179   4.765  50.038  1.00  0.00     0.102 A 
HETATM   14  C17 UNL     1      23.294   5.641  50.626  1.00  0.00     0.101 A 
HETATM   15  C16 UNL     1      22.621   5.191  51.744  1.00  0.00     0.040 A 
HETATM   16  C15 UNL     1      22.849   3.917  52.222  1.00  0.00     0.015 A 
BRANCH  13  17
HETATM   17  O1  UNL     1      24.872   5.182  48.915  1.00  0.00    -0.349 OA
BRANCH  17  18
HETATM   18  C2  UNL     1      26.165   5.712  48.912  1.00  0.00     0.171 C 
HETATM   19  C1  UNL     1      27.269   4.711  48.795  1.00  0.00     0.034 C 
ENDBRANCH  17  18
ENDBRANCH  13  17
BRANCH  14  20
HETATM   20  O4  UNL     1      23.132   6.899  50.072  1.00  0.00    -0.353 OA
HETATM   21  C18 UNL     1      23.739   8.055  50.614  1.00  0.00     0.210 C 
ENDBRANCH  14  20
ENDBRANCH   1  11
BRANCH   8  22
HETATM   22  O3  UNL     1      28.140   2.343  53.991  1.00  0.00    -0.264 OA
BRANCH  22  23
HETATM   23  N2  UNL     1      29.325   1.911  53.473  1.00  0.00    -0.209 NA
HETATM   24  H11 UNL     1      30.040   2.643  53.641  1.00  0.00     0.150 HD
HETATM   25  H12 UNL     1      29.268   1.736  52.451  1.00  0.00     0.150 HD
ENDBRANCH  22  23
ENDBRANCH   8  22
BRANCH   7  26
HETATM   26  O2  UNL     1      27.892  -0.205  55.280  1.00  0.00    -0.358 OA
HETATM   27  H10 UNL     1      28.283   0.399  55.995  1.00  0.00     0.217 HD
ENDBRANCH   7  26
TORSDOF 7
ENDMDL
MODEL 2
REMARK VINA RESULT:      -7.4      1.344      2.828
REMARK  7 active torsions:
REMARK  status: ('A' for Active; 'I' for Inactive)
REMARK    1  A    between atoms: C2_2  and  O1_3 
REMARK    2  A    between atoms: O1_3  and  C3_4 
REMARK    3  A    between atoms: C5_6  and  C6_7 
REMARK    4  A    between atoms: C11_13  and  O2_14 
REMARK    5  A    between atoms: C12_15  and  O3_16 
REMARK    6  A    between atoms: O3_16  and  N2_17 
REMARK    7  A    between atoms: C17_22  and  O4_23 
ROOT
HETATM    1  C6  UNL     1      25.033   2.459  51.311  1.00  0.00    -0.012 A 
HETATM    2  C7  UNL     1      23.715   2.029  51.107  1.00  0.00     0.032 A 
HETATM    3  C8  UNL     1      23.149   0.947  51.775  1.00  0.00     0.118 A 
HETATM    4  N1  UNL     1      23.924   0.279  52.670  1.00  0.00    -0.260 NA
HETATM    5  C9  UNL     1      25.192   0.667  52.888  1.00  0.00     0.070 A 
HETATM    6  C10 UNL     1      25.992   0.004  53.781  1.00  0.00     0.072 A 
HETATM    7  C11 UNL     1      27.286   0.416  53.980  1.00  0.00     0.103 A 
HETATM    8  C12 UNL     1      27.869   1.475  53.337  1.00  0.00     0.125 A 
HETATM    9  C13 UNL     1      27.041   2.141  52.431  1.00  0.00     0.056 A 
HETATM   10  C14 UNL     1      25.742   1.732  52.226  1.00  0.00     0.007 A 
ENDROOT
BRANCH   1  11
HETATM   11  C5  UNL     1      25.444   3.626  50.545  1.00  0.00    -0.022 A 
HETATM   12  C4  UNL     1      24.950   4.910  50.505  1.00  0.00     0.052 A 
HETATM   13  C3  UNL     1      25.544   5.848  49.691  1.00  0.00     0.102 A 
HETATM   14  C17 UNL     1      26.631   5.585  48.887  1.00  0.00     0.101 A 
HETATM   15  C16 UNL     1      27.133   4.299  48.920  1.00  0.00     0.040 A 
HETATM   16  C15 UNL     1      26.549   3.350  49.732  1.00  0.00     0.015 A 
BRANCH  13  17
HETATM   17  O1  UNL     1      25.013   7.127  49.684  1.00  0.00    -0.349 OA
BRANCH  17  18
HETATM   18  C2  UNL     1      24.214   7.677  50.691  1.00  0.00     0.171 C 
HETATM   19  C1  UNL     1      22.783   7.903  50.322  1.00  0.00     0.034 C 
ENDBRANCH  17  18
ENDBRANCH  13  17
BRANCH  14  20
HETATM   20  O4  UNL     1      27.149   6.605  48.108  1.00  0.00    -0.353 OA
HETATM   21  C18 UNL     1      28.447   7.129  48.302  1.00  0.00     0.210 C 
ENDBRANCH  14  20
ENDBRANCH   1  11
BRANCH   8  22
HETATM   22  O3  UNL     1      29.162   1.939  53.493  1.00  0.00    -0.264 OA
BRANCH  22  23
HETATM   23  N2  UNL     1      29.604   2.306  54.729  1.00  0.00    -0.209 NA
HETATM   24  H11 UNL     1      28.962   1.904  55.437  1.00  0.00     0.150 HD
HETATM   25  H12 UNL     1      29.622   3.338  54.851  1.00  0.00     0.150 HD
ENDBRANCH  22  23
ENDBRANCH   8  22
BRANCH   7  26
HETATM   26  O2  UNL     1      28.039  -0.296  54.895  1.00  0.00    -0.358 OA
HETATM   27  H10 UNL     1      28.629  -1.037  54.530  1.00  0.00     0.217 HD
ENDBRANCH   7  26
TORSDOF 7
ENDMDL
MODEL 3
REMARK VINA RESULT:      -7.4      3.753      6.258
REMARK  7 active torsions:
REMARK  status: ('A' for Active; 'I' for Inactive)
REMARK    1  A    between atoms: C2_2  and  O1_3 
REMARK    2  A    between atoms: O1_3  and  C3_4 
REMARK    3  A    between atoms: C5_6  and  C6_7 
REMARK    4  A    between atoms: C11_13  and  O2_14 
REMARK    5  A    between atoms: C12_15  and  O3_16 
REMARK    6  A    between atoms: O3_16  and  N2_17 
REMARK    7  A    between atoms: C17_22  and  O4_23 
ROOT
HETATM    1  C6  UNL     1      22.704   0.148  53.107  1.00  0.00    -0.012 A 
HETATM    2  C7  UNL     1      22.363  -0.512  54.295  1.00  0.00     0.032 A 
HETATM    3  C8  UNL     1      21.072  -0.939  54.591  1.00  0.00     0.118 A 
HETATM    4  N1  UNL     1      20.098  -0.698  53.674  1.00  0.00    -0.260 NA
HETATM    5  C9  UNL     1      20.393  -0.067  52.524  1.00  0.00     0.070 A 
HETATM    6  C10 UNL     1      19.427   0.192  51.590  1.00  0.00     0.072 A 
HETATM    7  C11 UNL     1      19.753   0.845  50.427  1.00  0.00     0.103 A 
HETATM    8  C12 UNL     1      21.013   1.277  50.110  1.00  0.00     0.125 A 
HETATM    9  C13 UNL     1      21.988   1.006  51.072  1.00  0.00     0.056 A 
HETATM   10  C14 UNL     1      21.666   0.351  52.240  1.00  0.00     0.007 A 
ENDROOT
BRANCH   1  11
HETATM   11  C5  UNL     1      24.110   0.495  52.957  1.00  0.00    -0.022 A 
HETATM   12  C4  UNL     1      25.218  -0.282  52.709  1.00  0.00     0.052 A 
HETATM   13  C3  UNL     1      26.457   0.308  52.593  1.00  0.00     0.102 A 
HETATM   14  C17 UNL     1      26.672   1.664  52.710  1.00  0.00     0.101 A 
HETATM   15  C16 UNL     1      25.566   2.451  52.959  1.00  0.00     0.040 A 
HETATM   16  C15 UNL     1      24.319   1.873  53.077  1.00  0.00     0.015 A 
BRANCH  13  17
HETATM   17  O1  UNL     1      27.543  -0.513  52.343  1.00  0.00    -0.349 OA
BRANCH  17  18
HETATM   18  C2  UNL     1      28.206  -1.291  53.297  1.00  0.00     0.171 C 
HETATM   19  C1  UNL     1      29.661  -0.996  53.465  1.00  0.00     0.034 C 
ENDBRANCH  17  18
ENDBRANCH  13  17
BRANCH  14  20
HETATM   20  O4  UNL     1      27.961   2.150  52.575  1.00  0.00    -0.353 OA
HETATM   21  C18 UNL     1      28.759   2.516  53.683  1.00  0.00     0.210 C 
ENDBRANCH  14  20
ENDBRANCH   1  11
BRANCH   8  22
HETATM   22  O3  UNL     1      21.405   1.937  48.961  1.00  0.00    -0.264 OA
BRANCH  22  23
HETATM   23  N2  UNL     1      21.904   1.227  47.910  1.00  0.00    -0.209 NA
HETATM   24  H11 UNL     1      21.107   0.873  47.349  1.00  0.00     0.150 HD
HETATM   25  H12 UNL     1      22.475   0.416  48.217  1.00  0.00     0.150 HD
ENDBRANCH  22  23
ENDBRANCH   8  22
BRANCH   7  26
HETATM   26  O2  UNL     1      18.730   1.075  49.526  1.00  0.00    -0.358 OA
HETATM   27  H10 UNL     1      18.276   0.261  49.126  1.00  0.00     0.217 HD
ENDBRANCH   7  26
TORSDOF 7
ENDMDL
MODEL 4
REMARK VINA RESULT:      -7.3      2.468      3.415
REMARK  7 active torsions:
REMARK  status: ('A' for Active; 'I' for Inactive)
REMARK    1  A    between atoms: C2_2  and  O1_3 
REMARK    2  A    between atoms: O1_3  and  C3_4 
REMARK    3  A    between atoms: C5_6  and  C6_7 
REMARK    4  A    between atoms: C11_13  and  O2_14 
REMARK    5  A    between atoms: C12_15  and  O3_16 
REMARK    6  A    between atoms: O3_16  and  N2_17 
REMARK    7  A    between atoms: C17_22  and  O4_23 
ROOT
HETATM    1  C6  UNL     1      22.107   0.213  52.814  1.00  0.00    -0.012 A 
HETATM    2  C7  UNL     1      21.046  -0.551  53.317  1.00  0.00     0.032 A 
HETATM    3  C8  UNL     1      21.173  -1.426  54.392  1.00  0.00     0.118 A 
HETATM    4  N1  UNL     1      22.394  -1.538  54.977  1.00  0.00    -0.260 NA
HETATM    5  C9  UNL     1      23.433  -0.817  54.518  1.00  0.00     0.070 A 
HETATM    6  C10 UNL     1      24.673  -0.919  55.089  1.00  0.00     0.072 A 
HETATM    7  C11 UNL     1      25.718  -0.179  54.597  1.00  0.00     0.103 A 
HETATM    8  C12 UNL     1      25.623   0.688  53.541  1.00  0.00     0.125 A 
HETATM    9  C13 UNL     1      24.352   0.781  52.970  1.00  0.00     0.056 A 
HETATM   10  C14 UNL     1      23.300   0.041  53.459  1.00  0.00     0.007 A 
ENDROOT
BRANCH   1  11
HETATM   11  C5  UNL     1      21.781   1.094  51.702  1.00  0.00    -0.022 A 
HETATM   12  C4  UNL     1      21.678   2.464  51.626  1.00  0.00     0.052 A 
HETATM   13  C3  UNL     1      21.367   3.063  50.426  1.00  0.00     0.102 A 
HETATM   14  C17 UNL     1      21.144   2.366  49.258  1.00  0.00     0.101 A 
HETATM   15  C16 UNL     1      21.246   0.991  49.325  1.00  0.00     0.040 A 
HETATM   16  C15 UNL     1      21.557   0.378  50.521  1.00  0.00     0.015 A 
BRANCH  13  17
HETATM   17  O1  UNL     1      21.275   4.444  50.396  1.00  0.00    -0.349 OA
BRANCH  17  18
HETATM   18  C2  UNL     1      21.686   5.304  51.419  1.00  0.00     0.171 C 
HETATM   19  C1  UNL     1      21.809   6.743  51.034  1.00  0.00     0.034 C 
ENDBRANCH  17  18
ENDBRANCH  13  17
BRANCH  14  20
HETATM   20  O4  UNL     1      20.839   3.071  48.107  1.00  0.00    -0.353 OA
HETATM   21  C18 UNL     1      21.769   3.261  47.060  1.00  0.00     0.210 C 
ENDBRANCH  14  20
ENDBRANCH   1  11
BRANCH   8  22
HETATM   22  O3  UNL     1      26.634   1.460  53.000  1.00  0.00    -0.264 OA
BRANCH  22  23
HETATM   23  N2  UNL     1      27.232   2.421  53.759  1.00  0.00    -0.209 NA
HETATM   24  H11 UNL     1      28.168   2.617  53.358  1.00  0.00     0.150 HD
HETATM   25  H12 UNL     1      27.353   2.124  54.747  1.00  0.00     0.150 HD
ENDBRANCH  22  23
ENDBRANCH   8  22
BRANCH   7  26
HETATM   26  O2  UNL     1      26.944  -0.328  55.219  1.00  0.00    -0.358 OA
HETATM   27  H10 UNL     1      27.508  -1.124  54.941  1.00  0.00     0.217 HD
ENDBRANCH   7  26
TORSDOF 7
ENDMDL
MODEL 5
REMARK VINA RESULT:      -7.3      3.088      4.763
REMARK  7 active torsions:
REMARK  status: ('A' for Active; 'I' for Inactive)
REMARK    1  A    between atoms: C2_2  and  O1_3 
REMARK    2  A    between atoms: O1_3  and  C3_4 
REMARK    3  A    between atoms: C5_6  and  C6_7 
REMARK    4  A    between atoms: C11_13  and  O2_14 
REMARK    5  A    between atoms: C12_15  and  O3_16 
REMARK    6  A    between atoms: O3_16  and  N2_17 
REMARK    7  A    between atoms: C17_22  and  O4_23 
ROOT
HETATM    1  C6  UNL     1      23.683   0.039  53.462  1.00  0.00    -0.012 A 
HETATM    2  C7  UNL     1      23.685  -0.900  54.502  1.00  0.00     0.032 A 
HETATM    3  C8  UNL     1      24.787  -1.140  55.317  1.00  0.00     0.118 A 
HETATM    4  N1  UNL     1      25.917  -0.421  55.083  1.00  0.00    -0.260 NA
HETATM    5  C9  UNL     1      25.947   0.488  54.093  1.00  0.00     0.070 A 
HETATM    6  C10 UNL     1      27.076   1.220  53.837  1.00  0.00     0.072 A 
HETATM    7  C11 UNL     1      27.083   2.136  52.816  1.00  0.00     0.103 A 
HETATM    8  C12 UNL     1      26.015   2.392  51.998  1.00  0.00     0.125 A 
HETATM    9  C13 UNL     1      24.871   1.639  52.271  1.00  0.00     0.056 A 
HETATM   10  C14 UNL     1      24.858   0.718  53.295  1.00  0.00     0.007 A 
ENDROOT
BRANCH   1  11
HETATM   11  C5  UNL     1      22.431   0.174  52.733  1.00  0.00    -0.022 A 
HETATM   12  C4  UNL     1      22.167   0.552  51.437  1.00  0.00     0.052 A 
HETATM   13  C3  UNL     1      20.868   0.581  50.981  1.00  0.00     0.102 A 
HETATM   14  C17 UNL     1      19.778   0.246  51.756  1.00  0.00     0.101 A 
HETATM   15  C16 UNL     1      20.033  -0.135  53.057  1.00  0.00     0.040 A 
HETATM   16  C15 UNL     1      21.330  -0.169  53.527  1.00  0.00     0.015 A 
BRANCH  13  17
HETATM   17  O1  UNL     1      20.651   0.968  49.670  1.00  0.00    -0.349 OA
BRANCH  17  18
HETATM   18  C2  UNL     1      21.172   2.117  49.069  1.00  0.00     0.171 C 
HETATM   19  C1  UNL     1      22.159   1.876  47.973  1.00  0.00     0.034 C 
ENDBRANCH  17  18
ENDBRANCH  13  17
BRANCH  14  20
HETATM   20  O4  UNL     1      18.515   0.310  51.194  1.00  0.00    -0.353 OA
HETATM   21  C18 UNL     1      17.351  -0.095  51.888  1.00  0.00     0.210 C 
ENDBRANCH  14  20
ENDBRANCH   1  11
BRANCH   8  22
HETATM   22  O3  UNL     1      25.958   3.298  50.956  1.00  0.00    -0.264 OA
BRANCH  22  23
HETATM   23  N2  UNL     1      27.065   3.520  50.191  1.00  0.00    -0.209 NA
HETATM   24  H11 UNL     1      27.581   4.326  50.591  1.00  0.00     0.150 HD
HETATM   25  H12 UNL     1      26.826   3.739  49.205  1.00  0.00     0.150 HD
ENDBRANCH  22  23
ENDBRANCH   8  22
BRANCH   7  26
HETATM   26  O2  UNL     1      28.254   2.841  52.610  1.00  0.00    -0.358 OA
HETATM   27  H10 UNL     1      28.201   3.852  52.667  1.00  0.00     0.217 HD
ENDBRANCH   7  26
TORSDOF 7
ENDMDL
MODEL 6
REMARK VINA RESULT:      -7.2      2.600      4.414
REMARK  7 active torsions:
REMARK  status: ('A' for Active; 'I' for Inactive)
REMARK    1  A    between atoms: C2_2  and  O1_3 
REMARK    2  A    between atoms: O1_3  and  C3_4 
REMARK    3  A    between atoms: C5_6  and  C6_7 
REMARK    4  A    between atoms: C11_13  and  O2_14 
REMARK    5  A    between atoms: C12_15  and  O3_16 
REMARK    6  A    between atoms: O3_16  and  N2_17 
REMARK    7  A    between atoms: C17_22  and  O4_23 
ROOT
HETATM    1  C6  UNL     1      25.228   1.232  52.869  1.00  0.00    -0.012 A 
HETATM    2  C7  UNL     1      26.499   0.776  53.245  1.00  0.00     0.032 A 
HETATM    3  C8  UNL     1      26.704  -0.300  54.104  1.00  0.00     0.118 A 
HETATM    4  N1  UNL     1      25.608  -0.935  54.598  1.00  0.00    -0.260 NA
HETATM    5  C9  UNL     1      24.376  -0.521  54.256  1.00  0.00     0.070 A 
HETATM    6  C10 UNL     1      23.259  -1.142  54.747  1.00  0.00     0.072 A 
HETATM    7  C11 UNL     1      22.011  -0.696  54.388  1.00  0.00     0.103 A 
HETATM    8  C12 UNL     1      21.779   0.359  53.547  1.00  0.00     0.125 A 
HETATM    9  C13 UNL     1      22.928   0.983  53.054  1.00  0.00     0.056 A 
HETATM   10  C14 UNL     1      24.182   0.539  53.411  1.00  0.00     0.007 A 
ENDROOT
BRANCH   1  11
HETATM   11  C5  UNL     1      25.208   2.353  51.941  1.00  0.00    -0.022 A 
HETATM   12  C4  UNL     1      24.416   3.477  51.887  1.00  0.00     0.052 A 
HETATM   13  C3  UNL     1      24.618   4.411  50.895  1.00  0.00     0.102 A 
HETATM   14  C17 UNL     1      25.587   4.297  49.923  1.00  0.00     0.101 A 
HETATM   15  C16 UNL     1      26.387   3.173  49.970  1.00  0.00     0.040 A 
HETATM   16  C15 UNL     1      26.196   2.229  50.957  1.00  0.00     0.015 A 
BRANCH  13  17
HETATM   17  O1  UNL     1      23.797   5.526  50.880  1.00  0.00    -0.349 OA
BRANCH  17  18
HETATM   18  C2  UNL     1      22.403   5.506  50.992  1.00  0.00     0.171 C 
HETATM   19  C1  UNL     1      21.728   6.828  50.818  1.00  0.00     0.034 C 
ENDBRANCH  17  18
ENDBRANCH  13  17
BRANCH  14  20
HETATM   20  O4  UNL     1      25.703   5.298  48.974  1.00  0.00    -0.353 OA
HETATM   21  C18 UNL     1      26.943   5.883  48.630  1.00  0.00     0.210 C 
ENDBRANCH  14  20
ENDBRANCH   1  11
BRANCH   8  22
HETATM   22  O3  UNL     1      20.553   0.856  53.148  1.00  0.00    -0.264 OA
BRANCH  22  23
HETATM   23  N2  UNL     1      19.569  -0.004  52.760  1.00  0.00    -0.209 NA
HETATM   24  H11 UNL     1      19.067  -0.328  53.608  1.00  0.00     0.150 HD
HETATM   25  H12 UNL     1      19.944  -0.834  52.262  1.00  0.00     0.150 HD
ENDBRANCH  22  23
ENDBRANCH   8  22
BRANCH   7  26
HETATM   26  O2  UNL     1      20.926  -1.367  54.919  1.00  0.00    -0.358 OA
HETATM   27  H10 UNL     1      20.011  -1.132  54.548  1.00  0.00     0.217 HD
ENDBRANCH   7  26
TORSDOF 7
ENDMDL
MODEL 7
REMARK VINA RESULT:      -7.1      1.712      2.456
REMARK  7 active torsions:
REMARK  status: ('A' for Active; 'I' for Inactive)
REMARK    1  A    between atoms: C2_2  and  O1_3 
REMARK    2  A    between atoms: O1_3  and  C3_4 
REMARK    3  A    between atoms: C5_6  and  C6_7 
REMARK    4  A    between atoms: C11_13  and  O2_14 
REMARK    5  A    between atoms: C12_15  and  O3_16 
REMARK    6  A    between atoms: O3_16  and  N2_17 
REMARK    7  A    between atoms: C17_22  and  O4_23 
ROOT
HETATM    1  C6  UNL     1      25.066   2.639  51.021  1.00  0.00    -0.012 A 
HETATM    2  C7  UNL     1      23.716   2.354  50.779  1.00  0.00     0.032 A 
HETATM    3  C8  UNL     1      23.020   1.333  51.421  1.00  0.00     0.118 A 
HETATM    4  N1  UNL     1      23.696   0.579  52.328  1.00  0.00    -0.260 NA
HETATM    5  C9  UNL     1      24.992   0.828  52.583  1.00  0.00     0.070 A 
HETATM    6  C10 UNL     1      25.693   0.077  53.488  1.00  0.00     0.072 A 
HETATM    7  C11 UNL     1      27.017   0.346  53.725  1.00  0.00     0.103 A 
HETATM    8  C12 UNL     1      27.727   1.342  53.108  1.00  0.00     0.125 A 
HETATM    9  C13 UNL     1      26.999   2.100  52.188  1.00  0.00     0.056 A 
HETATM   10  C14 UNL     1      25.669   1.834  51.947  1.00  0.00     0.007 A 
ENDROOT
BRANCH   1  11
HETATM   11  C5  UNL     1      25.619   3.762  50.278  1.00  0.00    -0.022 A 
HETATM   12  C4  UNL     1      26.727   3.861  49.468  1.00  0.00     0.052 A 
HETATM   13  C3  UNL     1      27.024   5.059  48.857  1.00  0.00     0.102 A 
HETATM   14  C17 UNL     1      26.268   6.201  49.004  1.00  0.00     0.101 A 
HETATM   15  C16 UNL     1      25.155   6.111  49.815  1.00  0.00     0.040 A 
HETATM   16  C15 UNL     1      24.844   4.918  50.433  1.00  0.00     0.015 A 
BRANCH  13  17
HETATM   17  O1  UNL     1      28.148   5.112  48.051  1.00  0.00    -0.349 OA
BRANCH  17  18
HETATM   18  C2  UNL     1      29.425   5.500  48.467  1.00  0.00     0.171 C 
HETATM   19  C1  UNL     1      30.112   6.494  47.586  1.00  0.00     0.034 C 
ENDBRANCH  17  18
ENDBRANCH  13  17
BRANCH  14  20
HETATM   20  O4  UNL     1      26.660   7.352  48.342  1.00  0.00    -0.353 OA
HETATM   21  C18 UNL     1      25.855   8.513  48.288  1.00  0.00     0.210 C 
ENDBRANCH  14  20
ENDBRANCH   1  11
BRANCH   8  22
HETATM   22  O3  UNL     1      29.057   1.663  53.302  1.00  0.00    -0.264 OA
BRANCH  22  23
HETATM   23  N2  UNL     1      29.968   0.672  53.512  1.00  0.00    -0.209 NA
HETATM   24  H11 UNL     1      29.454  -0.199  53.743  1.00  0.00     0.150 HD
HETATM   25  H12 UNL     1      30.615   0.889  54.295  1.00  0.00     0.150 HD
ENDBRANCH  22  23
ENDBRANCH   8  22
BRANCH   7  26
HETATM   26  O2  UNL     1      27.666  -0.450  54.651  1.00  0.00    -0.358 OA
HETATM   27  H10 UNL     1      27.408  -1.430  54.678  1.00  0.00     0.217 HD
ENDBRANCH   7  26
TORSDOF 7
ENDMDL
MODEL 8
REMARK VINA RESULT:      -7.0      2.934      4.384
REMARK  7 active torsions:
REMARK  status: ('A' for Active; 'I' for Inactive)
REMARK    1  A    between atoms: C2_2  and  O1_3 
REMARK    2  A    between atoms: O1_3  and  C3_4 
REMARK    3  A    between atoms: C5_6  and  C6_7 
REMARK    4  A    between atoms: C11_13  and  O2_14 
REMARK    5  A    between atoms: C12_15  and  O3_16 
REMARK    6  A    between atoms: O3_16  and  N2_17 
REMARK    7  A    between atoms: C17_22  and  O4_23 
ROOT
HETATM    1  C6  UNL     1      22.508   0.103  53.683  1.00  0.00    -0.012 A 
HETATM    2  C7  UNL     1      22.127  -0.771  54.710  1.00  0.00     0.032 A 
HETATM    3  C8  UNL     1      23.035  -1.488  55.483  1.00  0.00     0.118 A 
HETATM    4  N1  UNL     1      24.359  -1.326  55.220  1.00  0.00    -0.260 NA
HETATM    5  C9  UNL     1      24.756  -0.494  54.241  1.00  0.00     0.070 A 
HETATM    6  C10 UNL     1      26.084  -0.320  53.955  1.00  0.00     0.072 A 
HETATM    7  C11 UNL     1      26.464   0.529  52.946  1.00  0.00     0.103 A 
HETATM    8  C12 UNL     1      25.594   1.246  52.169  1.00  0.00     0.125 A 
HETATM    9  C13 UNL     1      24.243   1.058  52.473  1.00  0.00     0.056 A 
HETATM   10  C14 UNL     1      23.856   0.208  53.484  1.00  0.00     0.007 A 
ENDROOT
BRANCH   1  11
HETATM   11  C5  UNL     1      21.421   0.789  53.000  1.00  0.00    -0.022 A 
HETATM   12  C4  UNL     1      21.153   2.128  52.829  1.00  0.00     0.052 A 
HETATM   13  C3  UNL     1      20.045   2.520  52.112  1.00  0.00     0.102 A 
HETATM   14  C17 UNL     1      19.157   1.638  51.534  1.00  0.00     0.101 A 
HETATM   15  C16 UNL     1      19.418   0.293  51.699  1.00  0.00     0.040 A 
HETATM   16  C15 UNL     1      20.525  -0.113  52.415  1.00  0.00     0.015 A 
BRANCH  13  17
HETATM   17  O1  UNL     1      19.816   3.877  51.966  1.00  0.00    -0.349 OA
BRANCH  17  18
HETATM   18  C2  UNL     1      20.357   4.686  50.963  1.00  0.00     0.171 C 
HETATM   19  C1  UNL     1      21.566   5.471  51.355  1.00  0.00     0.034 C 
ENDBRANCH  17  18
ENDBRANCH  13  17
BRANCH  14  20
HETATM   20  O4  UNL     1      18.076   2.143  50.832  1.00  0.00    -0.353 OA
HETATM   21  C18 UNL     1      17.836   1.833  49.474  1.00  0.00     0.210 C 
ENDBRANCH  14  20
ENDBRANCH   1  11
BRANCH   8  22
HETATM   22  O3  UNL     1      25.910   2.114  51.142  1.00  0.00    -0.264 OA
BRANCH  22  23
HETATM   23  N2  UNL     1      26.926   3.009  51.302  1.00  0.00    -0.209 NA
HETATM   24  H11 UNL     1      27.631   2.838  50.560  1.00  0.00     0.150 HD
HETATM   25  H12 UNL     1      27.393   2.916  52.225  1.00  0.00     0.150 HD
ENDBRANCH  22  23
ENDBRANCH   8  22
BRANCH   7  26
HETATM   26  O2  UNL     1      27.820   0.660  52.710  1.00  0.00    -0.358 OA
HETATM   27  H10 UNL     1      28.260   1.521  53.013  1.00  0.00     0.217 HD
ENDBRANCH   7  26
TORSDOF 7
ENDMDL
MODEL 9
REMARK VINA RESULT:      -7.0      2.829      4.260
REMARK  7 active torsions:
REMARK  status: ('A' for Active; 'I' for Inactive)
REMARK    1  A    between atoms: C2_2  and  O1_3 
REMARK    2  A    between atoms: O1_3  and  C3_4 
REMARK    3  A    between atoms: C5_6  and  C6_7 
REMARK    4  A    between atoms: C11_13  and  O2_14 
REMARK    5  A    between atoms: C12_15  and  O3_16 
REMARK    6  A    between atoms: O3_16  and  N2_17 
REMARK    7  A    between atoms: C17_22  and  O4_23 
ROOT
HETATM    1  C6  UNL     1      24.739   1.509  52.136  1.00  0.00    -0.012 A 
HETATM    2  C7  UNL     1      26.115   1.574  51.883  1.00  0.00     0.032 A 
HETATM    3  C8  UNL     1      27.055   0.787  52.544  1.00  0.00     0.118 A 
HETATM    4  N1  UNL     1      26.602  -0.086  53.482  1.00  0.00    -0.260 NA
HETATM    5  C9  UNL     1      25.287  -0.172  53.748  1.00  0.00     0.070 A 
HETATM    6  C10 UNL     1      24.811  -1.041  54.693  1.00  0.00     0.072 A 
HETATM    7  C11 UNL     1      23.464  -1.104  54.951  1.00  0.00     0.103 A 
HETATM    8  C12 UNL     1      22.519  -0.343  54.318  1.00  0.00     0.125 A 
HETATM    9  C13 UNL     1      23.020   0.537  53.356  1.00  0.00     0.056 A 
HETATM   10  C14 UNL     1      24.369   0.605  53.094  1.00  0.00     0.007 A 
ENDROOT
BRANCH   1  11
HETATM   11  C5  UNL     1      23.905   2.386  51.328  1.00  0.00    -0.022 A 
HETATM   12  C4  UNL     1      23.139   2.141  50.212  1.00  0.00     0.052 A 
HETATM   13  C3  UNL     1      22.417   3.164  49.637  1.00  0.00     0.102 A 
HETATM   14  C17 UNL     1      22.406   4.455  50.117  1.00  0.00     0.101 A 
HETATM   15  C16 UNL     1      23.171   4.710  51.237  1.00  0.00     0.040 A 
HETATM   16  C15 UNL     1      23.899   3.696  51.823  1.00  0.00     0.015 A 
BRANCH  13  17
HETATM   17  O1  UNL     1      21.661   2.870  48.516  1.00  0.00    -0.349 OA
BRANCH  17  18
HETATM   18  C2  UNL     1      20.621   1.937  48.462  1.00  0.00     0.171 C 
HETATM   19  C1  UNL     1      19.339   2.368  49.098  1.00  0.00     0.034 C 
ENDBRANCH  17  18
ENDBRANCH  13  17
BRANCH  14  20
HETATM   20  O4  UNL     1      21.642   5.405  49.461  1.00  0.00    -0.353 OA
HETATM   21  C18 UNL     1      20.409   5.875  49.968  1.00  0.00     0.210 C 
ENDBRANCH  14  20
ENDBRANCH   1  11
BRANCH   8  22
HETATM   22  O3  UNL     1      21.153  -0.359  54.531  1.00  0.00    -0.264 OA
BRANCH  22  23
HETATM   23  N2  UNL     1      20.490  -1.550  54.578  1.00  0.00    -0.209 NA
HETATM   24  H11 UNL     1      19.723  -1.523  53.880  1.00  0.00     0.150 HD
HETATM   25  H12 UNL     1      20.078  -1.735  55.513  1.00  0.00     0.150 HD
ENDBRANCH  22  23
ENDBRANCH   8  22
BRANCH   7  26
HETATM   26  O2  UNL     1      23.050  -2.002  55.917  1.00  0.00    -0.358 OA
HETATM   27  H10 UNL     1      23.189  -1.734  56.886  1.00  0.00     0.217 HD
ENDBRANCH   7  26
TORSDOF 7
ENDMDL
