MODEL 1
REMARK VINA RESULT:      -7.5      0.000      0.000
REMARK  8 active torsions:
REMARK  status: ('A' for Active; 'I' for Inactive)
REMARK    1  A    between atoms: O1_2  and  C2_3 
REMARK    2  A    between atoms: C6_9  and  N3_10 
REMARK    3  A    between atoms: N3_10  and  C7_11 
REMARK    4  A    between atoms: C8_12  and  C9_13 
REMARK    5  A    between atoms: C13_18  and  O2_19 
REMARK    6  A    between atoms: O2_19  and  C14_20 
REMARK    7  A    between atoms: C14_20  and  C15_21 
REMARK    8  A    between atoms: C15_21  and  N4_22 
ROOT
HETATM    1  C2  UNL     1      20.567  -0.416  52.931  1.00  0.00     0.103 A 
HETATM    2  C3  UNL     1      20.936  -1.052  54.122  1.00  0.00     0.072 A 
HETATM    3  C4  UNL     1      22.263  -1.066  54.496  1.00  0.00     0.075 A 
HETATM    4  N1  UNL     1      22.749  -1.641  55.610  1.00  0.00    -0.241 NA
HETATM    5  C5  UNL     1      24.067  -1.614  55.907  1.00  0.00     0.236 A 
HETATM    6  N2  UNL     1      24.964  -1.011  55.107  1.00  0.00    -0.224 NA
HETATM    7  C6  UNL     1      24.558  -0.411  53.969  1.00  0.00     0.141 A 
HETATM    8  C11 UNL     1      23.209  -0.458  53.699  1.00  0.00     0.042 A 
HETATM    9  C12 UNL     1      22.784   0.148  52.545  1.00  0.00     0.057 A 
HETATM   10  C13 UNL     1      21.491   0.218  52.087  1.00  0.00     0.103 A 
ENDROOT
BRANCH  10  11
HETATM   11  O2  UNL     1      20.829   0.734  51.031  1.00  0.00    -0.347 OA
BRANCH  11  12
HETATM   12  C14 UNL     1      20.469   2.059  50.846  1.00  0.00     0.206 C 
BRANCH  12  13
HETATM   13  C15 UNL     1      21.210   2.763  49.784  1.00  0.00     0.299 C 
BRANCH  13  14
HETATM   14  N4  UNL     1      22.069   3.824  50.228  1.00  0.00     0.090 N 
HETATM   15  C16 UNL     1      22.090   3.850  51.664  1.00  0.00     0.272 C 
HETATM   16  C17 UNL     1      23.382   4.373  52.244  1.00  0.00     0.030 C 
HETATM   17  C18 UNL     1      24.578   3.538  51.883  1.00  0.00     0.003 C 
HETATM   18  C19 UNL     1      24.255   2.753  50.614  1.00  0.00     0.030 C 
HETATM   19  C20 UNL     1      23.426   3.714  49.757  1.00  0.00     0.272 C 
ENDBRANCH  13  14
ENDBRANCH  12  13
ENDBRANCH  11  12
ENDBRANCH  10  11
BRANCH   1  20
HETATM   20  O1  UNL     1      19.185  -0.503  52.716  1.00  0.00    -0.353 OA
HETATM   21  C1  UNL     1      18.347  -1.357  53.417  1.00  0.00     0.210 C 
ENDBRANCH   1  20
BRANCH   7  22
HETATM   22  N3  UNL     1      25.473   0.246  53.065  1.00  0.00    -0.350 N 
HETATM   23  H6  UNL     1      25.225   1.243  52.866  1.00  0.00     0.166 HD
BRANCH  22  24
HETATM   24  C7  UNL     1      26.583  -0.443  52.530  1.00  0.00     0.090 C 
HETATM   25  C8  UNL     1      27.826  -0.644  52.887  1.00  0.00     0.018 C 
BRANCH  25  26
HETATM   26  C9  UNL     1      28.608  -0.227  54.025  1.00  0.00     0.013 C 
HETATM   27  C10 UNL     1      28.945   0.974  54.451  1.00  0.00     0.084 C 
HETATM   28 CL1  UNL     1      28.423   2.411  53.577  1.00  0.00    -0.097 Cl
ENDBRANCH  25  26
ENDBRANCH  22  24
ENDBRANCH   7  22
TORSDOF 8
ENDMDL
MODEL 2
REMARK VINA RESULT:      -7.3      1.755      2.263
REMARK  8 active torsions:
REMARK  status: ('A' for Active; 'I' for Inactive)
REMARK    1  A    between atoms: O1_2  and  C2_3 
REMARK    2  A    between atoms: C6_9  and  N3_10 
REMARK    3  A    between atoms: N3_10  and  C7_11 
REMARK    4  A    between atoms: C8_12  and  C9_13 
REMARK    5  A    between atoms: C13_18  and  O2_19 
REMARK    6  A    between atoms: O2_19  and  C14_20 
REMARK    7  A    between atoms: C14_20  and  C15_21 
REMARK    8  A    between atoms: C15_21  and  N4_22 
ROOT
HETATM    1  C2  UNL     1      20.768   1.694  52.407  1.00  0.00     0.103 A 
HETATM    2  C3  UNL     1      20.684   0.671  53.360  1.00  0.00     0.072 A 
HETATM    3  C4  UNL     1      21.843   0.097  53.837  1.00  0.00     0.075 A 
HETATM    4  N1  UNL     1      21.900  -0.891  54.748  1.00  0.00    -0.241 NA
HETATM    5  C5  UNL     1      23.078  -1.404  55.165  1.00  0.00     0.236 A 
HETATM    6  N2  UNL     1      24.256  -0.958  54.693  1.00  0.00    -0.224 NA
HETATM    7  C6  UNL     1      24.285   0.030  53.775  1.00  0.00     0.141 A 
HETATM    8  C11 UNL     1      23.066   0.530  53.375  1.00  0.00     0.042 A 
HETATM    9  C12 UNL     1      23.082   1.534  52.442  1.00  0.00     0.057 A 
HETATM   10  C13 UNL     1      21.990   2.171  51.906  1.00  0.00     0.103 A 
ENDROOT
BRANCH  10  11
HETATM   11  O2  UNL     1      21.738   3.151  51.014  1.00  0.00    -0.347 OA
BRANCH  11  12
HETATM   12  C14 UNL     1      22.308   3.296  49.760  1.00  0.00     0.206 C 
BRANCH  12  13
HETATM   13  C15 UNL     1      23.169   4.482  49.601  1.00  0.00     0.299 C 
BRANCH  13  14
HETATM   14  N4  UNL     1      24.451   4.406  50.243  1.00  0.00     0.090 N 
HETATM   15  C16 UNL     1      25.204   3.324  49.675  1.00  0.00     0.272 C 
HETATM   16  C17 UNL     1      26.698   3.537  49.711  1.00  0.00     0.030 C 
HETATM   17  C18 UNL     1      27.147   4.736  48.925  1.00  0.00     0.003 C 
HETATM   18  C19 UNL     1      25.966   5.695  48.788  1.00  0.00     0.030 C 
HETATM   19  C20 UNL     1      25.233   5.612  50.129  1.00  0.00     0.272 C 
ENDBRANCH  13  14
ENDBRANCH  12  13
ENDBRANCH  11  12
ENDBRANCH  10  11
BRANCH   1  20
HETATM   20  O1  UNL     1      19.497   2.154  52.041  1.00  0.00    -0.353 OA
HETATM   21  C1  UNL     1      18.575   1.396  51.335  1.00  0.00     0.210 C 
ENDBRANCH   1  20
BRANCH   7  22
HETATM   22  N3  UNL     1      25.516   0.547  53.226  1.00  0.00    -0.350 N 
HETATM   23  H6  UNL     1      25.600   1.589  53.286  1.00  0.00     0.166 HD
BRANCH  22  24
HETATM   24  C7  UNL     1      26.483  -0.320  52.671  1.00  0.00     0.090 C 
HETATM   25  C8  UNL     1      27.727  -0.631  52.932  1.00  0.00     0.018 C 
BRANCH  25  26
HETATM   26  C9  UNL     1      28.664  -0.197  53.938  1.00  0.00     0.013 C 
HETATM   27  C10 UNL     1      29.074   1.009  54.278  1.00  0.00     0.084 C 
HETATM   28 CL1  UNL     1      28.457   2.430  53.443  1.00  0.00    -0.097 Cl
ENDBRANCH  25  26
ENDBRANCH  22  24
ENDBRANCH   7  22
TORSDOF 8
ENDMDL
MODEL 3
REMARK VINA RESULT:      -7.3      2.301      3.799
REMARK  8 active torsions:
REMARK  status: ('A' for Active; 'I' for Inactive)
REMARK    1  A    between atoms: O1_2  and  C2_3 
REMARK    2  A    between atoms: C6_9  and  N3_10 
REMARK    3  A    between atoms: N3_10  and  C7_11 
REMARK    4  A    between atoms: C8_12  and  C9_13 
REMARK    5  A    between atoms: C13_18  and  O2_19 
REMARK    6  A    between atoms: O2_19  and  C14_20 
REMARK    7  A    between atoms: C14_20  and  C15_21 
REMARK    8  A    between atoms: C15_21  and  N4_22 
ROOT
HETATM    1  C2  UNL     1      22.328   0.325  53.457  1.00  0.00     0.103 A 
HETATM    2  C3  UNL     1      23.414  -0.498  53.780  1.00  0.00     0.072 A 
HETATM    3  C4  UNL     1      24.686  -0.107  53.420  1.00  0.00     0.075 A 
HETATM    4  N1  UNL     1      25.810  -0.804  53.667  1.00  0.00    -0.241 NA
HETATM    5  C5  UNL     1      27.023  -0.355  53.280  1.00  0.00     0.236 A 
HETATM    6  N2  UNL     1      27.175   0.811  52.626  1.00  0.00    -0.224 NA
HETATM    7  C6  UNL     1      26.097   1.569  52.337  1.00  0.00     0.141 A 
HETATM    8  C11 UNL     1      24.877   1.080  52.749  1.00  0.00     0.042 A 
HETATM    9  C12 UNL     1      23.774   1.841  52.461  1.00  0.00     0.057 A 
HETATM   10  C13 UNL     1      22.471   1.544  52.776  1.00  0.00     0.103 A 
ENDROOT
BRANCH  10  11
HETATM   11  O2  UNL     1      21.250   2.097  52.619  1.00  0.00    -0.347 OA
BRANCH  11  12
HETATM   12  C14 UNL     1      20.974   3.385  52.192  1.00  0.00     0.206 C 
BRANCH  12  13
HETATM   13  C15 UNL     1      20.010   3.479  51.080  1.00  0.00     0.299 C 
BRANCH  13  14
HETATM   14  N4  UNL     1      20.573   3.803  49.800  1.00  0.00     0.090 N 
HETATM   15  C16 UNL     1      21.957   4.152  49.963  1.00  0.00     0.272 C 
HETATM   16  C17 UNL     1      22.810   3.838  48.757  1.00  0.00     0.030 C 
HETATM   17  C18 UNL     1      22.847   2.374  48.419  1.00  0.00     0.003 C 
HETATM   18  C19 UNL     1      21.608   1.709  49.014  1.00  0.00     0.030 C 
HETATM   19  C20 UNL     1      20.486   2.735  48.837  1.00  0.00     0.272 C 
ENDBRANCH  13  14
ENDBRANCH  12  13
ENDBRANCH  11  12
ENDBRANCH  10  11
BRANCH   1  20
HETATM   20  O1  UNL     1      21.120  -0.230  53.899  1.00  0.00    -0.353 OA
HETATM   21  C1  UNL     1      20.975  -1.554  54.285  1.00  0.00     0.210 C 
ENDBRANCH   1  20
BRANCH   7  22
HETATM   22  N3  UNL     1      26.194   2.825  51.632  1.00  0.00    -0.350 N 
HETATM   23  H6  UNL     1      25.988   3.660  52.228  1.00  0.00     0.166 HD
BRANCH  22  24
HETATM   24  C7  UNL     1      26.539   2.863  50.263  1.00  0.00     0.090 C 
HETATM   25  C8  UNL     1      26.543   3.769  49.319  1.00  0.00     0.018 C 
BRANCH  25  26
HETATM   26  C9  UNL     1      26.178   5.164  49.287  1.00  0.00     0.013 C 
HETATM   27  C10 UNL     1      26.826   6.218  48.833  1.00  0.00     0.084 C 
HETATM   28 CL1  UNL     1      28.424   6.044  48.114  1.00  0.00    -0.097 Cl
ENDBRANCH  25  26
ENDBRANCH  22  24
ENDBRANCH   7  22
TORSDOF 8
ENDMDL
MODEL 4
REMARK VINA RESULT:      -7.2      2.488      6.112
REMARK  8 active torsions:
REMARK  status: ('A' for Active; 'I' for Inactive)
REMARK    1  A    between atoms: O1_2  and  C2_3 
REMARK    2  A    between atoms: C6_9  and  N3_10 
REMARK    3  A    between atoms: N3_10  and  C7_11 
REMARK    4  A    between atoms: C8_12  and  C9_13 
REMARK    5  A    between atoms: C13_18  and  O2_19 
REMARK    6  A    between atoms: O2_19  and  C14_20 
REMARK    7  A    between atoms: C14_20  and  C15_21 
REMARK    8  A    between atoms: C15_21  and  N4_22 
ROOT
HETATM    1  C2  UNL     1      22.426   0.711  53.347  1.00  0.00     0.103 A 
HETATM    2  C3  UNL     1      21.086   1.049  53.126  1.00  0.00     0.072 A 
HETATM    3  C4  UNL     1      20.785   2.231  52.484  1.00  0.00     0.075 A 
HETATM    4  N1  UNL     1      19.544   2.672  52.213  1.00  0.00    -0.241 NA
HETATM    5  C5  UNL     1      19.330   3.846  51.579  1.00  0.00     0.236 A 
HETATM    6  N2  UNL     1      20.344   4.637  51.186  1.00  0.00    -0.224 NA
HETATM    7  C6  UNL     1      21.620   4.268  51.422  1.00  0.00     0.141 A 
HETATM    8  C11 UNL     1      21.799   3.065  52.068  1.00  0.00     0.042 A 
HETATM    9  C12 UNL     1      23.091   2.679  52.314  1.00  0.00     0.057 A 
HETATM   10  C13 UNL     1      23.495   1.526  52.942  1.00  0.00     0.103 A 
ENDROOT
BRANCH  10  11
HETATM   11  O2  UNL     1      24.652   0.928  53.294  1.00  0.00    -0.347 OA
BRANCH  11  12
HETATM   12  C14 UNL     1      25.650   1.460  54.093  1.00  0.00     0.206 C 
BRANCH  12  13
HETATM   13  C15 UNL     1      26.652   0.488  54.567  1.00  0.00     0.299 C 
BRANCH  13  14
HETATM   14  N4  UNL     1      27.799   0.320  53.720  1.00  0.00     0.090 N 
HETATM   15  C16 UNL     1      28.904  -0.158  54.503  1.00  0.00     0.272 C 
HETATM   16  C17 UNL     1      29.880  -1.005  53.723  1.00  0.00     0.030 C 
HETATM   17  C18 UNL     1      29.268  -2.259  53.165  1.00  0.00     0.003 C 
HETATM   18  C19 UNL     1      27.758  -2.053  53.058  1.00  0.00     0.030 C 
HETATM   19  C20 UNL     1      27.588  -0.594  52.626  1.00  0.00     0.272 C 
ENDBRANCH  13  14
ENDBRANCH  12  13
ENDBRANCH  11  12
ENDBRANCH  10  11
BRANCH   1  20
HETATM   20  O1  UNL     1      22.538  -0.518  54.010  1.00  0.00    -0.353 OA
HETATM   21  C1  UNL     1      21.506  -1.106  54.726  1.00  0.00     0.210 C 
ENDBRANCH   1  20
BRANCH   7  22
HETATM   22  N3  UNL     1      22.750   5.076  51.031  1.00  0.00    -0.350 N 
HETATM   23  H6  UNL     1      23.123   5.679  51.801  1.00  0.00     0.166 HD
BRANCH  22  24
HETATM   24  C7  UNL     1      23.263   5.019  49.717  1.00  0.00     0.090 C 
HETATM   25  C8  UNL     1      24.273   4.432  49.126  1.00  0.00     0.018 C 
BRANCH  25  26
HETATM   26  C9  UNL     1      25.324   3.564  49.597  1.00  0.00     0.013 C 
HETATM   27  C10 UNL     1      26.634   3.647  49.480  1.00  0.00     0.084 C 
HETATM   28 CL1  UNL     1      27.371   4.999  48.625  1.00  0.00    -0.097 Cl
ENDBRANCH  25  26
ENDBRANCH  22  24
ENDBRANCH   7  22
TORSDOF 8
ENDMDL
MODEL 5
REMARK VINA RESULT:      -7.2      2.891      7.464
REMARK  8 active torsions:
REMARK  status: ('A' for Active; 'I' for Inactive)
REMARK    1  A    between atoms: O1_2  and  C2_3 
REMARK    2  A    between atoms: C6_9  and  N3_10 
REMARK    3  A    between atoms: N3_10  and  C7_11 
REMARK    4  A    between atoms: C8_12  and  C9_13 
REMARK    5  A    between atoms: C13_18  and  O2_19 
REMARK    6  A    between atoms: O2_19  and  C14_20 
REMARK    7  A    between atoms: C14_20  and  C15_21 
REMARK    8  A    between atoms: C15_21  and  N4_22 
ROOT
HETATM    1  C2  UNL     1      25.927   3.823  50.133  1.00  0.00     0.103 A 
HETATM    2  C3  UNL     1      25.059   4.805  49.639  1.00  0.00     0.072 A 
HETATM    3  C4  UNL     1      23.750   4.828  50.073  1.00  0.00     0.075 A 
HETATM    4  N1  UNL     1      22.818   5.714  49.677  1.00  0.00    -0.241 NA
HETATM    5  C5  UNL     1      21.553   5.671  50.149  1.00  0.00     0.236 A 
HETATM    6  N2  UNL     1      21.156   4.743  51.038  1.00  0.00    -0.224 NA
HETATM    7  C6  UNL     1      22.030   3.818  51.485  1.00  0.00     0.141 A 
HETATM    8  C11 UNL     1      23.311   3.893  50.984  1.00  0.00     0.042 A 
HETATM    9  C12 UNL     1      24.208   2.958  51.429  1.00  0.00     0.057 A 
HETATM   10  C13 UNL     1      25.527   2.849  51.061  1.00  0.00     0.103 A 
ENDROOT
BRANCH  10  11
HETATM   11  O2  UNL     1      26.584   2.059  51.339  1.00  0.00    -0.347 OA
BRANCH  11  12
HETATM   12  C14 UNL     1      26.543   0.768  51.839  1.00  0.00     0.206 C 
BRANCH  12  13
HETATM   13  C15 UNL     1      26.391   0.672  53.303  1.00  0.00     0.299 C 
BRANCH  13  14
HETATM   14  N4  UNL     1      27.193  -0.333  53.943  1.00  0.00     0.090 N 
HETATM   15  C16 UNL     1      27.767  -1.191  52.945  1.00  0.00     0.272 C 
HETATM   16  C17 UNL     1      29.093  -1.791  53.348  1.00  0.00     0.030 C 
HETATM   17  C18 UNL     1      30.161  -0.763  53.592  1.00  0.00     0.003 C 
HETATM   18  C19 UNL     1      29.486   0.569  53.911  1.00  0.00     0.030 C 
HETATM   19  C20 UNL     1      28.261   0.200  54.751  1.00  0.00     0.272 C 
ENDBRANCH  13  14
ENDBRANCH  12  13
ENDBRANCH  11  12
ENDBRANCH  10  11
BRANCH   1  20
HETATM   20  O1  UNL     1      27.208   3.954  49.581  1.00  0.00    -0.353 OA
HETATM   21  C1  UNL     1      27.546   4.906  48.632  1.00  0.00     0.210 C 
ENDBRANCH   1  20
BRANCH   7  22
HETATM   22  N3  UNL     1      21.664   2.792  52.433  1.00  0.00    -0.350 N 
HETATM   23  H6  UNL     1      22.054   2.946  53.392  1.00  0.00     0.166 HD
BRANCH  22  24
HETATM   24  C7  UNL     1      20.851   1.704  52.046  1.00  0.00     0.090 C 
HETATM   25  C8  UNL     1      20.350   0.648  52.635  1.00  0.00     0.018 C 
BRANCH  25  26
HETATM   26  C9  UNL     1      20.426   0.139  53.982  1.00  0.00     0.013 C 
HETATM   27  C10 UNL     1      21.434  -0.372  54.660  1.00  0.00     0.084 C 
HETATM   28 CL1  UNL     1      23.023  -0.524  53.918  1.00  0.00    -0.097 Cl
ENDBRANCH  25  26
ENDBRANCH  22  24
ENDBRANCH   7  22
TORSDOF 8
ENDMDL
MODEL 6
REMARK VINA RESULT:      -7.1      3.136      5.785
REMARK  8 active torsions:
REMARK  status: ('A' for Active; 'I' for Inactive)
REMARK    1  A    between atoms: O1_2  and  C2_3 
REMARK    2  A    between atoms: C6_9  and  N3_10 
REMARK    3  A    between atoms: N3_10  and  C7_11 
REMARK    4  A    between atoms: C8_12  and  C9_13 
REMARK    5  A    between atoms: C13_18  and  O2_19 
REMARK    6  A    between atoms: O2_19  and  C14_20 
REMARK    7  A    between atoms: C14_20  and  C15_21 
REMARK    8  A    between atoms: C15_21  and  N4_22 
ROOT
HETATM    1  C2  UNL     1      27.089   0.919  53.466  1.00  0.00     0.103 A 
HETATM    2  C3  UNL     1      26.736   0.087  54.536  1.00  0.00     0.072 A 
HETATM    3  C4  UNL     1      25.441  -0.377  54.629  1.00  0.00     0.075 A 
HETATM    4  N1  UNL     1      24.973  -1.178  55.603  1.00  0.00    -0.241 NA
HETATM    5  C5  UNL     1      23.687  -1.591  55.627  1.00  0.00     0.236 A 
HETATM    6  N2  UNL     1      22.805  -1.224  54.680  1.00  0.00    -0.224 NA
HETATM    7  C6  UNL     1      23.194  -0.421  53.668  1.00  0.00     0.141 A 
HETATM    8  C11 UNL     1      24.512  -0.021  53.676  1.00  0.00     0.042 A 
HETATM    9  C12 UNL     1      24.920   0.796  52.655  1.00  0.00     0.057 A 
HETATM   10  C13 UNL     1      26.180   1.309  52.471  1.00  0.00     0.103 A 
ENDROOT
BRANCH  10  11
HETATM   11  O2  UNL     1      26.821   2.101  51.587  1.00  0.00    -0.347 OA
BRANCH  11  12
HETATM   12  C14 UNL     1      26.350   2.514  50.352  1.00  0.00     0.206 C 
BRANCH  12  13
HETATM   13  C15 UNL     1      26.014   3.947  50.261  1.00  0.00     0.299 C 
BRANCH  13  14
HETATM   14  N4  UNL     1      24.622   4.245  50.072  1.00  0.00     0.090 N 
HETATM   15  C16 UNL     1      23.878   3.019  50.003  1.00  0.00     0.272 C 
HETATM   16  C17 UNL     1      22.456   3.142  50.495  1.00  0.00     0.030 C 
HETATM   17  C18 UNL     1      22.359   3.539  51.941  1.00  0.00     0.003 C 
HETATM   18  C19 UNL     1      23.657   4.237  52.340  1.00  0.00     0.030 C 
HETATM   19  C20 UNL     1      24.054   5.063  51.114  1.00  0.00     0.272 C 
ENDBRANCH  13  14
ENDBRANCH  12  13
ENDBRANCH  11  12
ENDBRANCH  10  11
BRANCH   1  20
HETATM   20  O1  UNL     1      28.438   1.291  53.537  1.00  0.00    -0.353 OA
HETATM   21  C1  UNL     1      29.480   0.390  53.699  1.00  0.00     0.210 C 
ENDBRANCH   1  20
BRANCH   7  22
HETATM   22  N3  UNL     1      22.293   0.013  52.627  1.00  0.00    -0.350 N 
HETATM   23  H6  UNL     1      22.778   0.308  51.747  1.00  0.00     0.166 HD
BRANCH  22  24
HETATM   24  C7  UNL     1      20.896   0.018  52.832  1.00  0.00     0.090 C 
HETATM   25  C8  UNL     1      19.840   0.293  52.109  1.00  0.00     0.018 C 
BRANCH  25  26
HETATM   26  C9  UNL     1      19.662   0.722  50.744  1.00  0.00     0.013 C 
HETATM   27  C10 UNL     1      19.075   1.790  50.240  1.00  0.00     0.084 C 
HETATM   28 CL1  UNL     1      18.335   2.985  51.300  1.00  0.00    -0.097 Cl
ENDBRANCH  25  26
ENDBRANCH  22  24
ENDBRANCH   7  22
TORSDOF 8
ENDMDL
MODEL 7
REMARK VINA RESULT:      -6.9      5.278      8.503
REMARK  8 active torsions:
REMARK  status: ('A' for Active; 'I' for Inactive)
REMARK    1  A    between atoms: O1_2  and  C2_3 
REMARK    2  A    between atoms: C6_9  and  N3_10 
REMARK    3  A    between atoms: N3_10  and  C7_11 
REMARK    4  A    between atoms: C8_12  and  C9_13 
REMARK    5  A    between atoms: C13_18  and  O2_19 
REMARK    6  A    between atoms: O2_19  and  C14_20 
REMARK    7  A    between atoms: C14_20  and  C15_21 
REMARK    8  A    between atoms: C15_21  and  N4_22 
ROOT
HETATM    1  C2  UNL     1      25.007   4.818  49.494  1.00  0.00     0.103 A 
HETATM    2  C3  UNL     1      25.038   6.032  48.796  1.00  0.00     0.072 A 
HETATM    3  C4  UNL     1      26.236   6.489  48.291  1.00  0.00     0.075 A 
HETATM    4  N1  UNL     1      26.402   7.635  47.606  1.00  0.00    -0.241 NA
HETATM    5  C5  UNL     1      27.613   8.017  47.144  1.00  0.00     0.236 A 
HETATM    6  N2  UNL     1      28.717   7.276  47.344  1.00  0.00    -0.224 NA
HETATM    7  C6  UNL     1      28.636   6.113  48.023  1.00  0.00     0.141 A 
HETATM    8  C11 UNL     1      27.386   5.755  48.477  1.00  0.00     0.042 A 
HETATM    9  C12 UNL     1      27.291   4.576  49.170  1.00  0.00     0.057 A 
HETATM   10  C13 UNL     1      26.150   4.034  49.709  1.00  0.00     0.103 A 
ENDROOT
BRANCH  10  11
HETATM   11  O2  UNL     1      25.795   2.934  50.404  1.00  0.00    -0.347 OA
BRANCH  11  12
HETATM   12  C14 UNL     1      26.638   2.093  51.113  1.00  0.00     0.206 C 
BRANCH  12  13
HETATM   13  C15 UNL     1      26.469   2.132  52.577  1.00  0.00     0.299 C 
BRANCH  13  14
HETATM   14  N4  UNL     1      26.440   0.854  53.230  1.00  0.00     0.090 N 
HETATM   15  C16 UNL     1      26.592  -0.185  52.250  1.00  0.00     0.272 C 
HETATM   16  C17 UNL     1      27.255  -1.432  52.783  1.00  0.00     0.030 C 
HETATM   17  C18 UNL     1      28.655  -1.197  53.275  1.00  0.00     0.003 C 
HETATM   18  C19 UNL     1      28.806   0.284  53.616  1.00  0.00     0.030 C 
HETATM   19  C20 UNL     1      27.463   0.686  54.231  1.00  0.00     0.272 C 
ENDBRANCH  13  14
ENDBRANCH  12  13
ENDBRANCH  11  12
ENDBRANCH  10  11
BRANCH   1  20
HETATM   20  O1  UNL     1      23.711   4.516  49.930  1.00  0.00    -0.353 OA
HETATM   21  C1  UNL     1      23.027   5.249  50.888  1.00  0.00     0.210 C 
ENDBRANCH   1  20
BRANCH   7  22
HETATM   22  N3  UNL     1      29.786   5.277  48.276  1.00  0.00    -0.350 N 
HETATM   23  H6  UNL     1      29.594   4.485  48.933  1.00  0.00     0.166 HD
BRANCH  22  24
HETATM   24  C7  UNL     1      31.029   5.550  47.665  1.00  0.00     0.090 C 
HETATM   25  C8  UNL     1      31.960   4.847  47.071  1.00  0.00     0.018 C 
BRANCH  25  26
HETATM   26  C9  UNL     1      32.103   3.441  46.783  1.00  0.00     0.013 C 
HETATM   27  C10 UNL     1      33.098   2.607  47.010  1.00  0.00     0.084 C 
HETATM   28 CL1  UNL     1      34.571   3.167  47.794  1.00  0.00    -0.097 Cl
ENDBRANCH  25  26
ENDBRANCH  22  24
ENDBRANCH   7  22
TORSDOF 8
ENDMDL
MODEL 8
REMARK VINA RESULT:      -6.8      3.221      5.716
REMARK  8 active torsions:
REMARK  status: ('A' for Active; 'I' for Inactive)
REMARK    1  A    between atoms: O1_2  and  C2_3 
REMARK    2  A    between atoms: C6_9  and  N3_10 
REMARK    3  A    between atoms: N3_10  and  C7_11 
REMARK    4  A    between atoms: C8_12  and  C9_13 
REMARK    5  A    between atoms: C13_18  and  O2_19 
REMARK    6  A    between atoms: O2_19  and  C14_20 
REMARK    7  A    between atoms: C14_20  and  C15_21 
REMARK    8  A    between atoms: C15_21  and  N4_22 
ROOT
HETATM    1  C2  UNL     1      25.573   1.174  52.560  1.00  0.00     0.103 A 
HETATM    2  C3  UNL     1      25.542   0.176  53.542  1.00  0.00     0.072 A 
HETATM    3  C4  UNL     1      24.327  -0.244  54.038  1.00  0.00     0.075 A 
HETATM    4  N1  UNL     1      24.159  -1.189  54.981  1.00  0.00    -0.241 NA
HETATM    5  C5  UNL     1      22.932  -1.546  55.418  1.00  0.00     0.236 A 
HETATM    6  N2  UNL     1      21.812  -0.978  54.936  1.00  0.00    -0.224 NA
HETATM    7  C6  UNL     1      21.894  -0.020  53.990  1.00  0.00     0.141 A 
HETATM    8  C11 UNL     1      23.160   0.317  53.568  1.00  0.00     0.042 A 
HETATM    9  C12 UNL     1      23.257   1.289  52.606  1.00  0.00     0.057 A 
HETATM   10  C13 UNL     1      24.414   1.775  52.048  1.00  0.00     0.103 A 
ENDROOT
BRANCH  10  11
HETATM   11  O2  UNL     1      24.773   2.688  51.122  1.00  0.00    -0.347 OA
BRANCH  11  12
HETATM   12  C14 UNL     1      24.074   3.023  49.974  1.00  0.00     0.206 C 
BRANCH  12  13
HETATM   13  C15 UNL     1      24.450   4.315  49.371  1.00  0.00     0.299 C 
BRANCH  13  14
HETATM   14  N4  UNL     1      25.727   4.835  49.771  1.00  0.00     0.090 N 
HETATM   15  C16 UNL     1      26.748   4.305  48.910  1.00  0.00     0.272 C 
HETATM   16  C17 UNL     1      27.934   5.223  48.737  1.00  0.00     0.030 C 
HETATM   17  C18 UNL     1      27.580   6.540  48.105  1.00  0.00     0.003 C 
HETATM   18  C19 UNL     1      26.093   6.800  48.330  1.00  0.00     0.030 C 
HETATM   19  C20 UNL     1      25.808   6.273  49.739  1.00  0.00     0.272 C 
ENDBRANCH  13  14
ENDBRANCH  12  13
ENDBRANCH  11  12
ENDBRANCH  10  11
BRANCH   1  20
HETATM   20  O1  UNL     1      26.888   1.471  52.179  1.00  0.00    -0.353 OA
HETATM   21  C1  UNL     1      27.945   1.581  53.070  1.00  0.00     0.210 C 
ENDBRANCH   1  20
BRANCH   7  22
HETATM   22  N3  UNL     1      20.729   0.632  53.439  1.00  0.00    -0.350 N 
HETATM   23  H6  UNL     1      20.759   1.676  53.510  1.00  0.00     0.166 HD
BRANCH  22  24
HETATM   24  C7  UNL     1      19.678  -0.119  52.869  1.00  0.00     0.090 C 
HETATM   25  C8  UNL     1      18.922  -0.022  51.805  1.00  0.00     0.018 C 
BRANCH  25  26
HETATM   26  C9  UNL     1      18.850   0.935  50.729  1.00  0.00     0.013 C 
HETATM   27  C10 UNL     1      19.741   1.293  49.826  1.00  0.00     0.084 C 
HETATM   28 CL1  UNL     1      21.342   0.561  49.812  1.00  0.00    -0.097 Cl
ENDBRANCH  25  26
ENDBRANCH  22  24
ENDBRANCH   7  22
TORSDOF 8
ENDMDL
MODEL 9
REMARK VINA RESULT:      -6.6      2.435      4.377
REMARK  8 active torsions:
REMARK  status: ('A' for Active; 'I' for Inactive)
REMARK    1  A    between atoms: O1_2  and  C2_3 
REMARK    2  A    between atoms: C6_9  and  N3_10 
REMARK    3  A    between atoms: N3_10  and  C7_11 
REMARK    4  A    between atoms: C8_12  and  C9_13 
REMARK    5  A    between atoms: C13_18  and  O2_19 
REMARK    6  A    between atoms: O2_19  and  C14_20 
REMARK    7  A    between atoms: C14_20  and  C15_21 
REMARK    8  A    between atoms: C15_21  and  N4_22 
ROOT
HETATM    1  C2  UNL     1      23.489  -0.300  53.369  1.00  0.00     0.103 A 
HETATM    2  C3  UNL     1      24.606  -0.668  54.129  1.00  0.00     0.072 A 
HETATM    3  C4  UNL     1      25.785   0.030  53.979  1.00  0.00     0.075 A 
HETATM    4  N1  UNL     1      26.926  -0.222  54.644  1.00  0.00    -0.241 NA
HETATM    5  C5  UNL     1      28.044   0.508  54.439  1.00  0.00     0.236 A 
HETATM    6  N2  UNL     1      28.078   1.526  53.560  1.00  0.00    -0.224 NA
HETATM    7  C6  UNL     1      26.975   1.843  52.851  1.00  0.00     0.141 A 
HETATM    8  C11 UNL     1      25.855   1.078  53.087  1.00  0.00     0.042 A 
HETATM    9  C12 UNL     1      24.728   1.389  52.372  1.00  0.00     0.057 A 
HETATM   10  C13 UNL     1      23.510   0.760  52.449  1.00  0.00     0.103 A 
ENDROOT
BRANCH  10  11
HETATM   11  O2  UNL     1      22.289   0.864  51.884  1.00  0.00    -0.347 OA
BRANCH  11  12
HETATM   12  C14 UNL     1      22.012   1.173  50.562  1.00  0.00     0.206 C 
BRANCH  12  13
HETATM   13  C15 UNL     1      21.764   2.602  50.296  1.00  0.00     0.299 C 
BRANCH  13  14
HETATM   14  N4  UNL     1      20.458   2.918  49.790  1.00  0.00     0.090 N 
HETATM   15  C16 UNL     1      19.726   1.703  49.568  1.00  0.00     0.272 C 
HETATM   16  C17 UNL     1      18.232   1.857  49.720  1.00  0.00     0.030 C 
HETATM   17  C18 UNL     1      17.814   2.279  51.100  1.00  0.00     0.003 C 
HETATM   18  C19 UNL     1      19.001   2.962  51.777  1.00  0.00     0.030 C 
HETATM   19  C20 UNL     1      19.682   3.762  50.664  1.00  0.00     0.272 C 
ENDBRANCH  13  14
ENDBRANCH  12  13
ENDBRANCH  11  12
ENDBRANCH  10  11
BRANCH   1  20
HETATM   20  O1  UNL     1      22.388  -1.118  53.654  1.00  0.00    -0.353 OA
HETATM   21  C1  UNL     1      21.961  -1.417  54.939  1.00  0.00     0.210 C 
ENDBRANCH   1  20
BRANCH   7  22
HETATM   22  N3  UNL     1      26.951   2.918  51.888  1.00  0.00    -0.350 N 
HETATM   23  H6  UNL     1      27.148   3.859  52.302  1.00  0.00     0.166 HD
BRANCH  22  24
HETATM   24  C7  UNL     1      26.679   2.665  50.526  1.00  0.00     0.090 C 
HETATM   25  C8  UNL     1      26.306   3.378  49.493  1.00  0.00     0.018 C 
BRANCH  25  26
HETATM   26  C9  UNL     1      26.008   4.777  49.314  1.00  0.00     0.013 C 
HETATM   27  C10 UNL     1      26.739   5.766  48.838  1.00  0.00     0.084 C 
HETATM   28 CL1  UNL     1      28.386   5.474  48.288  1.00  0.00    -0.097 Cl
ENDBRANCH  25  26
ENDBRANCH  22  24
ENDBRANCH   7  22
TORSDOF 8
ENDMDL
