MODEL 1
REMARK VINA RESULT:      -7.2      0.000      0.000
REMARK  3 active torsions:
REMARK  status: ('A' for Active; 'I' for Inactive)
REMARK    1  A    between atoms: C7_7  and  C8_8 
REMARK    2  A    between atoms: C14_15  and  C15_16 
REMARK    3  A    between atoms: C15_16  and  O1_17 
ROOT
HETATM    1  C1  UNL     1      28.819  -0.906  53.444  1.00  0.00     0.018 C 
HETATM    2  C2  UNL     1      27.662  -0.551  53.334  1.00  0.00    -0.077 C 
HETATM    3  C3  UNL     1      26.308  -0.119  53.187  1.00  0.00     0.023 A 
HETATM    4  C4  UNL     1      25.278  -0.893  53.641  1.00  0.00     0.021 A 
HETATM    5  C5  UNL     1      23.977  -0.481  53.500  1.00  0.00     0.002 A 
HETATM    6  C6  UNL     1      23.791   0.730  52.887  1.00  0.00     0.012 A 
HETATM    7  C7  UNL     1      24.756   1.618  52.380  1.00  0.00    -0.021 A 
HETATM    8  C17 UNL     1      25.988   1.072  52.594  1.00  0.00    -0.032 A 
HETATM    9  C18 UNL     1      27.130   1.906  52.188  1.00  0.00     0.050 C 
ENDROOT
BRANCH   7  10
HETATM   10  C8  UNL     1      24.363   2.884  51.813  1.00  0.00    -0.029 C 
HETATM   11  C9  UNL     1      23.756   3.679  52.712  1.00  0.00     0.028 C 
HETATM   12  C10 UNL     1      23.198   5.017  52.696  1.00  0.00     0.117 C 
HETATM   13  N1  UNL     1      23.330   5.650  51.537  1.00  0.00    -0.265 NA
HETATM   14  C11 UNL     1      24.035   4.887  50.532  1.00  0.00     0.046 A 
HETATM   15  C12 UNL     1      24.683   4.950  49.387  1.00  0.00     0.003 A 
HETATM   16  C14 UNL     1      24.178   3.415  50.485  1.00  0.00     0.056 A 
HETATM   17  C13 UNL     1      25.002   3.453  49.315  1.00  0.00     0.052 A 
BRANCH  16  18
HETATM   18  C15 UNL     1      22.672   2.973  50.057  1.00  0.00     0.188 C 
BRANCH  18  19
HETATM   19  O1  UNL     1      22.729   1.628  49.747  1.00  0.00    -0.394 OA
HETATM   20  C16 UNL     1      21.473   1.052  49.938  1.00  0.00     0.201 C 
ENDBRANCH  18  19
ENDBRANCH  16  18
ENDBRANCH   7  10
TORSDOF 3
ENDMDL
MODEL 2
REMARK VINA RESULT:      -6.9      2.810      5.529
REMARK  3 active torsions:
REMARK  status: ('A' for Active; 'I' for Inactive)
REMARK    1  A    between atoms: C7_7  and  C8_8 
REMARK    2  A    between atoms: C14_15  and  C15_16 
REMARK    3  A    between atoms: C15_16  and  O1_17 
ROOT
HETATM    1  C1  UNL     1      29.266   5.545  48.382  1.00  0.00     0.018 C 
HETATM    2  C2  UNL     1      28.056   5.590  48.469  1.00  0.00    -0.077 C 
HETATM    3  C3  UNL     1      26.633   5.628  48.589  1.00  0.00     0.023 A 
HETATM    4  C4  UNL     1      25.930   6.728  48.188  1.00  0.00     0.021 A 
HETATM    5  C5  UNL     1      24.563   6.767  48.303  1.00  0.00     0.002 A 
HETATM    6  C6  UNL     1      23.971   5.653  48.835  1.00  0.00     0.012 A 
HETATM    7  C7  UNL     1      24.574   4.463  49.283  1.00  0.00    -0.021 A 
HETATM    8  C17 UNL     1      25.921   4.578  49.103  1.00  0.00    -0.032 A 
HETATM    9  C18 UNL     1      26.710   3.386  49.452  1.00  0.00     0.050 C 
ENDROOT
BRANCH   7  10
HETATM   10  C8  UNL     1      23.769   3.369  49.765  1.00  0.00    -0.029 C 
HETATM   11  C9  UNL     1      22.947   2.883  48.818  1.00  0.00     0.028 C 
HETATM   12  C10 UNL     1      21.973   1.812  48.747  1.00  0.00     0.117 C 
HETATM   13  N1  UNL     1      21.863   1.098  49.861  1.00  0.00    -0.265 NA
HETATM   14  C11 UNL     1      22.765   1.514  50.912  1.00  0.00     0.046 A 
HETATM   15  C12 UNL     1      23.333   1.164  52.047  1.00  0.00     0.003 A 
HETATM   16  C14 UNL     1      23.392   2.847  51.056  1.00  0.00     0.056 A 
HETATM   17  C13 UNL     1      24.134   2.460  52.218  1.00  0.00     0.052 A 
BRANCH  16  18
HETATM   18  C15 UNL     1      22.113   3.740  51.519  1.00  0.00     0.188 C 
BRANCH  18  19
HETATM   19  O1  UNL     1      22.606   4.984  51.863  1.00  0.00    -0.394 OA
HETATM   20  C16 UNL     1      21.739   5.974  51.398  1.00  0.00     0.201 C 
ENDBRANCH  18  19
ENDBRANCH  16  18
ENDBRANCH   7  10
TORSDOF 3
ENDMDL
MODEL 3
REMARK VINA RESULT:      -6.7      2.222      4.123
REMARK  3 active torsions:
REMARK  status: ('A' for Active; 'I' for Inactive)
REMARK    1  A    between atoms: C7_7  and  C8_8 
REMARK    2  A    between atoms: C14_15  and  C15_16 
REMARK    3  A    between atoms: C15_16  and  O1_17 
ROOT
HETATM    1  C1  UNL     1      27.647  -0.213  54.064  1.00  0.00     0.018 C 
HETATM    2  C2  UNL     1      26.973   0.437  53.290  1.00  0.00    -0.077 C 
HETATM    3  C3  UNL     1      26.162   1.196  52.392  1.00  0.00     0.023 A 
HETATM    4  C4  UNL     1      26.713   2.179  51.619  1.00  0.00     0.021 A 
HETATM    5  C5  UNL     1      25.936   2.911  50.757  1.00  0.00     0.002 A 
HETATM    6  C6  UNL     1      24.604   2.594  50.728  1.00  0.00     0.012 A 
HETATM    7  C7  UNL     1      23.916   1.612  51.465  1.00  0.00    -0.021 A 
HETATM    8  C17 UNL     1      24.817   0.976  52.268  1.00  0.00    -0.032 A 
HETATM    9  C18 UNL     1      24.281  -0.139  53.063  1.00  0.00     0.050 C 
ENDROOT
BRANCH   7  10
HETATM   10  C8  UNL     1      22.508   1.389  51.254  1.00  0.00    -0.029 C 
HETATM   11  C9  UNL     1      22.185   1.363  49.948  1.00  0.00     0.028 C 
HETATM   12  C10 UNL     1      20.967   1.158  49.190  1.00  0.00     0.117 C 
HETATM   13  N1  UNL     1      19.897   0.901  49.933  1.00  0.00    -0.265 NA
HETATM   14  C11 UNL     1      20.172   0.844  51.352  1.00  0.00     0.046 A 
HETATM   15  C12 UNL     1      19.725   0.438  52.522  1.00  0.00     0.003 A 
HETATM   16  C14 UNL     1      21.310   1.479  52.053  1.00  0.00     0.056 A 
HETATM   17  C13 UNL     1      20.931   0.939  53.324  1.00  0.00     0.052 A 
BRANCH  16  18
HETATM   18  C15 UNL     1      20.875   3.046  51.992  1.00  0.00     0.188 C 
BRANCH  18  19
HETATM   19  O1  UNL     1      21.931   3.767  52.514  1.00  0.00    -0.394 OA
HETATM   20  C16 UNL     1      21.965   5.033  51.928  1.00  0.00     0.201 C 
ENDBRANCH  18  19
ENDBRANCH  16  18
ENDBRANCH   7  10
TORSDOF 3
ENDMDL
MODEL 4
REMARK VINA RESULT:      -6.7      1.070      2.644
REMARK  3 active torsions:
REMARK  status: ('A' for Active; 'I' for Inactive)
REMARK    1  A    between atoms: C7_7  and  C8_8 
REMARK    2  A    between atoms: C14_15  and  C15_16 
REMARK    3  A    between atoms: C15_16  and  O1_17 
ROOT
HETATM    1  C1  UNL     1      21.393  -1.640  54.341  1.00  0.00     0.018 C 
HETATM    2  C2  UNL     1      22.373  -1.046  53.936  1.00  0.00    -0.077 C 
HETATM    3  C3  UNL     1      23.512  -0.326  53.463  1.00  0.00     0.023 A 
HETATM    4  C4  UNL     1      24.764  -0.866  53.558  1.00  0.00     0.021 A 
HETATM    5  C5  UNL     1      25.860  -0.177  53.104  1.00  0.00     0.002 A 
HETATM    6  C6  UNL     1      25.616   1.058  52.565  1.00  0.00     0.012 A 
HETATM    7  C7  UNL     1      24.387   1.723  52.409  1.00  0.00    -0.021 A 
HETATM    8  C17 UNL     1      23.403   0.917  52.901  1.00  0.00    -0.032 A 
HETATM    9  C18 UNL     1      22.031   1.427  52.751  1.00  0.00     0.050 C 
ENDROOT
BRANCH   7  10
HETATM   10  C8  UNL     1      24.325   3.010  51.761  1.00  0.00    -0.029 C 
HETATM   11  C9  UNL     1      23.706   3.933  52.518  1.00  0.00     0.028 C 
HETATM   12  C10 UNL     1      23.397   5.343  52.379  1.00  0.00     0.117 C 
HETATM   13  N1  UNL     1      23.845   5.893  51.257  1.00  0.00    -0.265 NA
HETATM   14  C11 UNL     1      24.585   4.980  50.414  1.00  0.00     0.046 A 
HETATM   15  C12 UNL     1      25.434   4.884  49.412  1.00  0.00     0.003 A 
HETATM   16  C14 UNL     1      24.481   3.504  50.415  1.00  0.00     0.056 A 
HETATM   17  C13 UNL     1      25.502   3.353  49.422  1.00  0.00     0.052 A 
BRANCH  16  18
HETATM   18  C15 UNL     1      23.027   3.296  49.715  1.00  0.00     0.188 C 
BRANCH  18  19
HETATM   19  O1  UNL     1      22.894   1.942  49.480  1.00  0.00    -0.394 OA
HETATM   20  C16 UNL     1      22.027   1.739  48.405  1.00  0.00     0.201 C 
ENDBRANCH  18  19
ENDBRANCH  16  18
ENDBRANCH   7  10
TORSDOF 3
ENDMDL
MODEL 5
REMARK VINA RESULT:      -6.5      2.397      5.144
REMARK  3 active torsions:
REMARK  status: ('A' for Active; 'I' for Inactive)
REMARK    1  A    between atoms: C7_7  and  C8_8 
REMARK    2  A    between atoms: C14_15  and  C15_16 
REMARK    3  A    between atoms: C15_16  and  O1_17 
ROOT
HETATM    1  C1  UNL     1      18.674  -0.026  51.935  1.00  0.00     0.018 C 
HETATM    2  C2  UNL     1      19.754  -0.182  52.468  1.00  0.00    -0.077 C 
HETATM    3  C3  UNL     1      21.031  -0.344  53.087  1.00  0.00     0.023 A 
HETATM    4  C4  UNL     1      21.198  -1.229  54.115  1.00  0.00     0.021 A 
HETATM    5  C5  UNL     1      22.423  -1.386  54.713  1.00  0.00     0.002 A 
HETATM    6  C6  UNL     1      23.439  -0.612  54.218  1.00  0.00     0.012 A 
HETATM    7  C7  UNL     1      23.401   0.328  53.172  1.00  0.00    -0.021 A 
HETATM    8  C17 UNL     1      22.128   0.368  52.685  1.00  0.00    -0.032 A 
HETATM    9  C18 UNL     1      21.920   1.253  51.528  1.00  0.00     0.050 C 
ENDROOT
BRANCH   7  10
HETATM   10  C8  UNL     1      24.600   1.011  52.755  1.00  0.00    -0.029 C 
HETATM   11  C9  UNL     1      24.419   1.717  51.625  1.00  0.00     0.028 C 
HETATM   12  C10 UNL     1      25.246   2.579  50.803  1.00  0.00     0.117 C 
HETATM   13  N1  UNL     1      26.476   2.760  51.265  1.00  0.00    -0.265 NA
HETATM   14  C11 UNL     1      26.734   2.086  52.519  1.00  0.00     0.046 A 
HETATM   15  C12 UNL     1      27.528   2.025  53.567  1.00  0.00     0.003 A 
HETATM   16  C14 UNL     1      26.009   0.910  53.049  1.00  0.00     0.056 A 
HETATM   17  C13 UNL     1      26.763   0.895  54.267  1.00  0.00     0.052 A 
BRANCH  16  18
HETATM   18  C15 UNL     1      26.565  -0.263  52.069  1.00  0.00     0.188 C 
BRANCH  18  19
HETATM   19  O1  UNL     1      26.248  -1.464  52.673  1.00  0.00    -0.394 OA
HETATM   20  C16 UNL     1      27.361  -2.306  52.649  1.00  0.00     0.201 C 
ENDBRANCH  18  19
ENDBRANCH  16  18
ENDBRANCH   7  10
TORSDOF 3
ENDMDL
MODEL 6
REMARK VINA RESULT:      -6.5      2.198      4.378
REMARK  3 active torsions:
REMARK  status: ('A' for Active; 'I' for Inactive)
REMARK    1  A    between atoms: C7_7  and  C8_8 
REMARK    2  A    between atoms: C14_15  and  C15_16 
REMARK    3  A    between atoms: C15_16  and  O1_17 
ROOT
HETATM    1  C1  UNL     1      18.505  -0.418  52.606  1.00  0.00     0.018 C 
HETATM    2  C2  UNL     1      19.688  -0.374  52.881  1.00  0.00    -0.077 C 
HETATM    3  C3  UNL     1      21.080  -0.300  53.194  1.00  0.00     0.023 A 
HETATM    4  C4  UNL     1      21.605  -1.048  54.210  1.00  0.00     0.021 A 
HETATM    5  C5  UNL     1      22.941  -0.979  54.513  1.00  0.00     0.002 A 
HETATM    6  C6  UNL     1      23.690  -0.127  53.746  1.00  0.00     0.012 A 
HETATM    7  C7  UNL     1      23.276   0.692  52.679  1.00  0.00    -0.021 A 
HETATM    8  C17 UNL     1      21.936   0.512  52.501  1.00  0.00    -0.032 A 
HETATM    9  C18 UNL     1      21.343   1.242  51.370  1.00  0.00     0.050 C 
ENDROOT
BRANCH   7  10
HETATM   10  C8  UNL     1      24.233   1.487  51.950  1.00  0.00    -0.029 C 
HETATM   11  C9  UNL     1      25.490   1.309  52.397  1.00  0.00     0.028 C 
HETATM   12  C10 UNL     1      26.797   1.818  52.029  1.00  0.00     0.117 C 
HETATM   13  N1  UNL     1      26.792   2.635  50.984  1.00  0.00    -0.265 NA
HETATM   14  C11 UNL     1      25.483   2.827  50.399  1.00  0.00     0.046 A 
HETATM   15  C12 UNL     1      24.827   3.235  49.333  1.00  0.00     0.003 A 
HETATM   16  C14 UNL     1      24.181   2.633  51.076  1.00  0.00     0.056 A 
HETATM   17  C13 UNL     1      23.432   2.937  49.894  1.00  0.00     0.052 A 
BRANCH  16  18
HETATM   18  C15 UNL     1      24.153   3.923  52.067  1.00  0.00     0.188 C 
BRANCH  18  19
HETATM   19  O1  UNL     1      22.899   3.948  52.644  1.00  0.00    -0.394 OA
HETATM   20  C16 UNL     1      22.242   5.124  52.279  1.00  0.00     0.201 C 
ENDBRANCH  18  19
ENDBRANCH  16  18
ENDBRANCH   7  10
TORSDOF 3
ENDMDL
MODEL 7
REMARK VINA RESULT:      -6.3      8.047     10.757
REMARK  3 active torsions:
REMARK  status: ('A' for Active; 'I' for Inactive)
REMARK    1  A    between atoms: C7_7  and  C8_8 
REMARK    2  A    between atoms: C14_15  and  C15_16 
REMARK    3  A    between atoms: C15_16  and  O1_17 
ROOT
HETATM    1  C1  UNL     1      26.579   7.197  48.020  1.00  0.00     0.018 C 
HETATM    2  C2  UNL     1      27.722   7.330  47.632  1.00  0.00    -0.077 C 
HETATM    3  C3  UNL     1      29.070   7.462  47.176  1.00  0.00     0.023 A 
HETATM    4  C4  UNL     1      29.465   8.575  46.487  1.00  0.00     0.021 A 
HETATM    5  C5  UNL     1      30.758   8.704  46.048  1.00  0.00     0.002 A 
HETATM    6  C6  UNL     1      31.601   7.665  46.340  1.00  0.00     0.012 A 
HETATM    7  C7  UNL     1      31.324   6.475  47.036  1.00  0.00    -0.021 A 
HETATM    8  C17 UNL     1      30.011   6.496  47.405  1.00  0.00    -0.032 A 
HETATM    9  C18 UNL     1      29.561   5.351  48.213  1.00  0.00     0.050 C 
ENDROOT
BRANCH   7  10
HETATM   10  C8  UNL     1      32.368   5.515  47.294  1.00  0.00    -0.029 C 
HETATM   11  C9  UNL     1      33.399   6.053  47.970  1.00  0.00     0.028 C 
HETATM   12  C10 UNL     1      34.658   5.561  48.496  1.00  0.00     0.117 C 
HETATM   13  N1  UNL     1      34.858   4.263  48.308  1.00  0.00    -0.265 NA
HETATM   14  C11 UNL     1      33.762   3.592  47.645  1.00  0.00     0.046 A 
HETATM   15  C12 UNL     1      33.208   2.426  47.388  1.00  0.00     0.003 A 
HETATM   16  C14 UNL     1      32.743   4.222  46.776  1.00  0.00     0.056 A 
HETATM   17  C13 UNL     1      32.032   2.994  46.584  1.00  0.00     0.052 A 
BRANCH  16  18
HETATM   18  C15 UNL     1      33.625   4.537  45.445  1.00  0.00     0.188 C 
BRANCH  18  19
HETATM   19  O1  UNL     1      32.740   4.984  44.484  1.00  0.00    -0.394 OA
HETATM   20  C16 UNL     1      33.274   4.753  43.215  1.00  0.00     0.201 C 
ENDBRANCH  18  19
ENDBRANCH  16  18
ENDBRANCH   7  10
TORSDOF 3
ENDMDL
MODEL 8
REMARK VINA RESULT:      -6.3      2.164      4.216
REMARK  3 active torsions:
REMARK  status: ('A' for Active; 'I' for Inactive)
REMARK    1  A    between atoms: C7_7  and  C8_8 
REMARK    2  A    between atoms: C14_15  and  C15_16 
REMARK    3  A    between atoms: C15_16  and  O1_17 
ROOT
HETATM    1  C1  UNL     1      27.462   4.666  48.678  1.00  0.00     0.018 C 
HETATM    2  C2  UNL     1      26.833   3.968  49.448  1.00  0.00    -0.077 C 
HETATM    3  C3  UNL     1      26.074   3.147  50.337  1.00  0.00     0.023 A 
HETATM    4  C4  UNL     1      26.700   2.360  51.262  1.00  0.00     0.021 A 
HETATM    5  C5  UNL     1      25.974   1.570  52.117  1.00  0.00     0.002 A 
HETATM    6  C6  UNL     1      24.612   1.625  51.979  1.00  0.00     0.012 A 
HETATM    7  C7  UNL     1      23.849   2.388  51.077  1.00  0.00    -0.021 A 
HETATM    8  C17 UNL     1      24.706   3.113  50.303  1.00  0.00    -0.032 A 
HETATM    9  C18 UNL     1      24.072   4.031  49.344  1.00  0.00     0.050 C 
ENDROOT
BRANCH   7  10
HETATM   10  C8  UNL     1      22.408   2.353  51.122  1.00  0.00    -0.029 C 
HETATM   11  C9  UNL     1      21.896   3.359  51.854  1.00  0.00     0.028 C 
HETATM   12  C10 UNL     1      20.562   3.804  52.204  1.00  0.00     0.117 C 
HETATM   13  N1  UNL     1      19.585   3.086  51.664  1.00  0.00    -0.265 NA
HETATM   14  C11 UNL     1      20.052   2.020  50.805  1.00  0.00     0.046 A 
HETATM   15  C12 UNL     1      19.713   1.175  49.853  1.00  0.00     0.003 A 
HETATM   16  C14 UNL     1      21.383   1.375  50.847  1.00  0.00     0.056 A 
HETATM   17  C13 UNL     1      21.100   0.534  49.724  1.00  0.00     0.052 A 
BRANCH  16  18
HETATM   18  C15 UNL     1      21.257   0.497  52.212  1.00  0.00     0.188 C 
BRANCH  18  19
HETATM   19  O1  UNL     1      22.245  -0.466  52.152  1.00  0.00    -0.394 OA
HETATM   20  C16 UNL     1      22.327  -1.125  53.380  1.00  0.00     0.201 C 
ENDBRANCH  18  19
ENDBRANCH  16  18
ENDBRANCH   7  10
TORSDOF 3
ENDMDL
MODEL 9
REMARK VINA RESULT:      -6.3      2.432      4.698
REMARK  3 active torsions:
REMARK  status: ('A' for Active; 'I' for Inactive)
REMARK    1  A    between atoms: C7_7  and  C8_8 
REMARK    2  A    between atoms: C14_15  and  C15_16 
REMARK    3  A    between atoms: C15_16  and  O1_17 
ROOT
HETATM    1  C1  UNL     1      27.248   5.001  48.730  1.00  0.00     0.018 C 
HETATM    2  C2  UNL     1      26.717   4.182  49.453  1.00  0.00    -0.077 C 
HETATM    3  C3  UNL     1      26.075   3.215  50.286  1.00  0.00     0.023 A 
HETATM    4  C4  UNL     1      26.783   2.541  51.241  1.00  0.00     0.021 A 
HETATM    5  C5  UNL     1      26.170   1.611  52.042  1.00  0.00     0.002 A 
HETATM    6  C6  UNL     1      24.833   1.412  51.820  1.00  0.00     0.012 A 
HETATM    7  C7  UNL     1      23.994   2.035  50.879  1.00  0.00    -0.021 A 
HETATM    8  C17 UNL     1      24.743   2.925  50.167  1.00  0.00    -0.032 A 
HETATM    9  C18 UNL     1      24.005   3.726  49.178  1.00  0.00     0.050 C 
ENDROOT
BRANCH   7  10
HETATM   10  C8  UNL     1      22.586   1.729  50.834  1.00  0.00    -0.029 C 
HETATM   11  C9  UNL     1      22.123   1.637  49.575  1.00  0.00     0.028 C 
HETATM   12  C10 UNL     1      20.842   1.340  48.965  1.00  0.00     0.117 C 
HETATM   13  N1  UNL     1      19.877   1.054  49.831  1.00  0.00    -0.265 NA
HETATM   14  C11 UNL     1      20.310   1.064  51.211  1.00  0.00     0.046 A 
HETATM   15  C12 UNL     1      20.019   0.677  52.436  1.00  0.00     0.003 A 
HETATM   16  C14 UNL     1      21.481   1.784  51.760  1.00  0.00     0.056 A 
HETATM   17  C13 UNL     1      21.276   1.272  53.081  1.00  0.00     0.052 A 
BRANCH  16  18
HETATM   18  C15 UNL     1      20.952   3.322  51.700  1.00  0.00     0.188 C 
BRANCH  18  19
HETATM   19  O1  UNL     1      21.985   4.111  52.168  1.00  0.00    -0.394 OA
HETATM   20  C16 UNL     1      21.862   5.398  51.643  1.00  0.00     0.201 C 
ENDBRANCH  18  19
ENDBRANCH  16  18
ENDBRANCH   7  10
TORSDOF 3
ENDMDL
