MODEL 1
REMARK VINA RESULT:      -7.7      0.000      0.000
REMARK  6 active torsions:
REMARK  status: ('A' for Active; 'I' for Inactive)
REMARK    1  A    between atoms: C4_5  and  N2_6 
REMARK    2  A    between atoms: C7_10  and  O1_11 
REMARK    3  A    between atoms: O1_11  and  C8_12 
REMARK    4  A    between atoms: C8_12  and  C9_13 
REMARK    5  A    between atoms: C9_13  and  C10_14 
REMARK    6  A    between atoms: C10_14  and  C11_15 
ROOT
HETATM    1  N2  UNL     1      23.083   0.463  52.942  1.00  0.00    -0.338 N 
HETATM    2  C5  UNL     1      22.155   1.458  52.580  1.00  0.00     0.119 A 
HETATM    3  C6  UNL     1      20.855   1.212  52.765  1.00  0.00     0.082 A 
HETATM    4 CL1  UNL     1      19.752   2.488  52.296  1.00  0.00    -0.080 Cl
HETATM    5  C7  UNL     1      20.430  -0.064  53.330  1.00  0.00     0.089 A 
HETATM    6  C12 UNL     1      21.283  -0.994  53.669  1.00  0.00     0.032 A 
HETATM    7  C13 UNL     1      22.735  -0.827  53.509  1.00  0.00     0.160 A 
ENDROOT
BRANCH   1   8
HETATM    8  C4  UNL     1      24.419   0.620  52.791  1.00  0.00     0.106 C 
HETATM    9  C3  UNL     1      24.998   1.453  51.938  1.00  0.00     0.080 C 
HETATM   10  C2  UNL     1      26.386   1.932  51.906  1.00  0.00     0.062 C 
HETATM   11  N1  UNL     1      27.026   2.727  51.196  1.00  0.00    -0.294 NA
HETATM   12  C16 UNL     1      27.419   1.515  52.839  1.00  0.00    -0.007 A 
HETATM   13  C1  UNL     1      26.543   3.482  50.094  1.00  0.00     0.178 C 
HETATM   14  C15 UNL     1      27.197   0.642  53.918  1.00  0.00     0.193 A 
HETATM   15  C17 UNL     1      28.717   1.523  53.336  1.00  0.00     0.048 A 
HETATM   16  C14 UNL     1      26.555  -0.085  54.627  1.00  0.00     0.074 A 
HETATM   17  S1  UNL     1      28.409   0.366  54.757  1.00  0.00    -0.158 SA
HETATM   18  N3  UNL     1      25.247  -0.213  53.665  1.00  0.00    -0.361 N 
HETATM   19  H15 UNL     1      24.975  -1.272  53.666  1.00  0.00     0.162 HD
ENDBRANCH   1   8
BRANCH   5  20
HETATM   20  O1  UNL     1      19.056  -0.203  53.474  1.00  0.00    -0.349 OA
BRANCH  20  21
HETATM   21  C8  UNL     1      18.332  -0.775  52.405  1.00  0.00     0.179 C 
BRANCH  21  22
HETATM   22  C9  UNL     1      17.175  -1.631  52.890  1.00  0.00     0.056 C 
BRANCH  22  23
HETATM   23  C10 UNL     1      17.751  -2.754  53.664  1.00  0.00     0.003 C 
BRANCH  23  24
HETATM   24  C11 UNL     1      17.169  -3.944  53.648  1.00  0.00     0.396 C 
HETATM   25  F1  UNL     1      16.902  -5.281  53.637  1.00  0.00    -0.431 F 
ENDBRANCH  23  24
ENDBRANCH  22  23
ENDBRANCH  21  22
ENDBRANCH  20  21
ENDBRANCH   5  20
TORSDOF 6
ENDMDL
MODEL 2
REMARK VINA RESULT:      -7.3      1.749      2.070
REMARK  6 active torsions:
REMARK  status: ('A' for Active; 'I' for Inactive)
REMARK    1  A    between atoms: C4_5  and  N2_6 
REMARK    2  A    between atoms: C7_10  and  O1_11 
REMARK    3  A    between atoms: O1_11  and  C8_12 
REMARK    4  A    between atoms: C8_12  and  C9_13 
REMARK    5  A    between atoms: C9_13  and  C10_14 
REMARK    6  A    between atoms: C10_14  and  C11_15 
ROOT
HETATM    1  N2  UNL     1      23.111   0.423  53.041  1.00  0.00    -0.338 N 
HETATM    2  C5  UNL     1      22.176   1.410  52.678  1.00  0.00     0.119 A 
HETATM    3  C6  UNL     1      20.879   1.161  52.879  1.00  0.00     0.082 A 
HETATM    4 CL1  UNL     1      19.766   2.427  52.407  1.00  0.00    -0.080 Cl
HETATM    5  C7  UNL     1      20.465  -0.110  53.463  1.00  0.00     0.089 A 
HETATM    6  C12 UNL     1      21.325  -1.032  53.804  1.00  0.00     0.032 A 
HETATM    7  C13 UNL     1      22.775  -0.862  53.627  1.00  0.00     0.160 A 
ENDROOT
BRANCH   1   8
HETATM    8  C4  UNL     1      24.446   0.583  52.874  1.00  0.00     0.106 C 
HETATM    9  C3  UNL     1      25.012   1.404  52.001  1.00  0.00     0.080 C 
HETATM   10  C2  UNL     1      26.398   1.889  51.948  1.00  0.00     0.062 C 
HETATM   11  N1  UNL     1      27.027   2.675  51.219  1.00  0.00    -0.294 NA
HETATM   12  C16 UNL     1      27.442   1.492  52.877  1.00  0.00    -0.007 A 
HETATM   13  C1  UNL     1      26.530   3.410  50.109  1.00  0.00     0.178 C 
HETATM   14  C15 UNL     1      27.235   0.636  53.972  1.00  0.00     0.193 A 
HETATM   15  C17 UNL     1      28.745   1.514  53.361  1.00  0.00     0.048 A 
HETATM   16  C14 UNL     1      26.603  -0.082  54.700  1.00  0.00     0.074 A 
HETATM   17  S1  UNL     1      28.456   0.379  54.804  1.00  0.00    -0.158 SA
HETATM   18  N3  UNL     1      25.286  -0.232  53.754  1.00  0.00    -0.361 N 
HETATM   19  H15 UNL     1      25.019  -1.292  53.774  1.00  0.00     0.162 HD
ENDBRANCH   1   8
BRANCH   5  20
HETATM   20  O1  UNL     1      19.093  -0.252  53.623  1.00  0.00    -0.349 OA
BRANCH  20  21
HETATM   21  C8  UNL     1      18.398  -1.056  52.694  1.00  0.00     0.179 C 
BRANCH  21  22
HETATM   22  C9  UNL     1      17.026  -0.492  52.362  1.00  0.00     0.056 C 
BRANCH  22  23
HETATM   23  C10 UNL     1      16.954  -0.348  50.890  1.00  0.00     0.003 C 
BRANCH  23  24
HETATM   24  C11 UNL     1      17.900   0.311  50.237  1.00  0.00     0.396 C 
HETATM   25  F1  UNL     1      19.077   0.737  49.697  1.00  0.00    -0.431 F 
ENDBRANCH  23  24
ENDBRANCH  22  23
ENDBRANCH  21  22
ENDBRANCH  20  21
ENDBRANCH   5  20
TORSDOF 6
ENDMDL
MODEL 3
REMARK VINA RESULT:      -7.2      5.240      8.506
REMARK  6 active torsions:
REMARK  status: ('A' for Active; 'I' for Inactive)
REMARK    1  A    between atoms: C4_5  and  N2_6 
REMARK    2  A    between atoms: C7_10  and  O1_11 
REMARK    3  A    between atoms: O1_11  and  C8_12 
REMARK    4  A    between atoms: C8_12  and  C9_13 
REMARK    5  A    between atoms: C9_13  and  C10_14 
REMARK    6  A    between atoms: C10_14  and  C11_15 
ROOT
HETATM    1  N2  UNL     1      25.399   2.781  51.234  1.00  0.00    -0.338 N 
HETATM    2  C5  UNL     1      24.452   3.820  51.299  1.00  0.00     0.119 A 
HETATM    3  C6  UNL     1      24.595   4.862  50.474  1.00  0.00     0.082 A 
HETATM    4 CL1  UNL     1      23.385   6.121  50.602  1.00  0.00    -0.080 Cl
HETATM    5  C7  UNL     1      25.713   4.899  49.538  1.00  0.00     0.089 A 
HETATM    6  C12 UNL     1      26.597   3.940  49.471  1.00  0.00     0.032 A 
HETATM    7  C13 UNL     1      26.534   2.748  50.331  1.00  0.00     0.160 A 
ENDROOT
BRANCH   1   8
HETATM    8  C4  UNL     1      25.339   1.686  52.030  1.00  0.00     0.106 C 
HETATM    9  C3  UNL     1      26.332   1.236  52.784  1.00  0.00     0.080 C 
HETATM   10  C2  UNL     1      26.290   0.279  53.898  1.00  0.00     0.062 C 
HETATM   11  N1  UNL     1      27.127  -0.183  54.692  1.00  0.00    -0.294 NA
HETATM   12  C16 UNL     1      25.087  -0.395  54.356  1.00  0.00    -0.007 A 
HETATM   13  C1  UNL     1      28.515   0.114  54.754  1.00  0.00     0.178 C 
HETATM   14  C15 UNL     1      23.807  -0.170  53.818  1.00  0.00     0.193 A 
HETATM   15  C17 UNL     1      24.396  -1.274  55.181  1.00  0.00     0.048 A 
HETATM   16  C14 UNL     1      22.999   0.323  53.078  1.00  0.00     0.074 A 
HETATM   17  S1  UNL     1      22.712  -0.968  54.459  1.00  0.00    -0.158 SA
HETATM   18  N3  UNL     1      24.054   0.985  52.028  1.00  0.00    -0.361 N 
HETATM   19  H15 UNL     1      23.664   0.765  51.030  1.00  0.00     0.162 HD
ENDBRANCH   1   8
BRANCH   5  20
HETATM   20  O1  UNL     1      25.755   6.031  48.735  1.00  0.00    -0.349 OA
BRANCH  20  21
HETATM   21  C8  UNL     1      26.758   6.990  48.993  1.00  0.00     0.179 C 
BRANCH  21  22
HETATM   22  C9  UNL     1      27.453   7.448  47.722  1.00  0.00     0.056 C 
BRANCH  22  23
HETATM   23  C10 UNL     1      28.903   7.199  47.898  1.00  0.00     0.003 C 
BRANCH  23  24
HETATM   24  C11 UNL     1      29.360   5.959  47.989  1.00  0.00     0.396 C 
HETATM   25  F1  UNL     1      29.684   4.654  47.767  1.00  0.00    -0.431 F 
ENDBRANCH  23  24
ENDBRANCH  22  23
ENDBRANCH  21  22
ENDBRANCH  20  21
ENDBRANCH   5  20
TORSDOF 6
ENDMDL
MODEL 4
REMARK VINA RESULT:      -7.1      5.412      7.450
REMARK  6 active torsions:
REMARK  status: ('A' for Active; 'I' for Inactive)
REMARK    1  A    between atoms: C4_5  and  N2_6 
REMARK    2  A    between atoms: C7_10  and  O1_11 
REMARK    3  A    between atoms: O1_11  and  C8_12 
REMARK    4  A    between atoms: C8_12  and  C9_13 
REMARK    5  A    between atoms: C9_13  and  C10_14 
REMARK    6  A    between atoms: C10_14  and  C11_15 
ROOT
HETATM    1  N2  UNL     1      25.533   3.285  50.734  1.00  0.00    -0.338 N 
HETATM    2  C5  UNL     1      24.305   2.998  51.360  1.00  0.00     0.119 A 
HETATM    3  C6  UNL     1      24.215   1.893  52.106  1.00  0.00     0.082 A 
HETATM    4 CL1  UNL     1      22.663   1.592  52.858  1.00  0.00    -0.080 Cl
HETATM    5  C7  UNL     1      25.374   1.020  52.254  1.00  0.00     0.089 A 
HETATM    6  C12 UNL     1      26.517   1.277  51.677  1.00  0.00     0.032 A 
HETATM    7  C13 UNL     1      26.727   2.465  50.836  1.00  0.00     0.160 A 
ENDROOT
BRANCH   1   8
HETATM    8  C4  UNL     1      25.720   4.379  49.959  1.00  0.00     0.106 C 
HETATM    9  C3  UNL     1      24.976   5.475  49.993  1.00  0.00     0.080 C 
HETATM   10  C2  UNL     1      25.263   6.809  49.448  1.00  0.00     0.062 C 
HETATM   11  N1  UNL     1      24.676   7.904  49.451  1.00  0.00    -0.294 NA
HETATM   12  C16 UNL     1      26.465   7.151  48.707  1.00  0.00    -0.007 A 
HETATM   13  C1  UNL     1      23.423   8.212  50.047  1.00  0.00     0.178 C 
HETATM   14  C15 UNL     1      27.523   6.256  48.469  1.00  0.00     0.193 A 
HETATM   15  C17 UNL     1      27.279   8.030  48.003  1.00  0.00     0.048 A 
HETATM   16  C14 UNL     1      28.103   5.205  48.519  1.00  0.00     0.074 A 
HETATM   17  S1  UNL     1      28.668   6.835  47.695  1.00  0.00    -0.158 SA
HETATM   18  N3  UNL     1      26.850   4.298  49.030  1.00  0.00    -0.361 N 
HETATM   19  H15 UNL     1      26.874   3.385  48.430  1.00  0.00     0.162 HD
ENDBRANCH   1   8
BRANCH   5  20
HETATM   20  O1  UNL     1      25.158  -0.096  53.052  1.00  0.00    -0.349 OA
BRANCH  20  21
HETATM   21  C8  UNL     1      26.271  -0.671  53.703  1.00  0.00     0.179 C 
BRANCH  21  22
HETATM   22  C9  UNL     1      26.738   0.166  54.883  1.00  0.00     0.056 C 
BRANCH  22  23
HETATM   23  C10 UNL     1      28.219   0.139  54.883  1.00  0.00     0.003 C 
BRANCH  23  24
HETATM   24  C11 UNL     1      28.875  -0.479  53.912  1.00  0.00     0.396 C 
HETATM   25  F1  UNL     1      29.827  -0.963  53.064  1.00  0.00    -0.431 F 
ENDBRANCH  23  24
ENDBRANCH  22  23
ENDBRANCH  21  22
ENDBRANCH  20  21
ENDBRANCH   5  20
TORSDOF 6
ENDMDL
MODEL 5
REMARK VINA RESULT:      -6.9      5.873      9.039
REMARK  6 active torsions:
REMARK  status: ('A' for Active; 'I' for Inactive)
REMARK    1  A    between atoms: C4_5  and  N2_6 
REMARK    2  A    between atoms: C7_10  and  O1_11 
REMARK    3  A    between atoms: O1_11  and  C8_12 
REMARK    4  A    between atoms: C8_12  and  C9_13 
REMARK    5  A    between atoms: C9_13  and  C10_14 
REMARK    6  A    between atoms: C10_14  and  C11_15 
ROOT
HETATM    1  N2  UNL     1      25.405   2.943  51.273  1.00  0.00    -0.338 N 
HETATM    2  C5  UNL     1      26.466   3.197  50.384  1.00  0.00     0.119 A 
HETATM    3  C6  UNL     1      26.455   4.340  49.691  1.00  0.00     0.082 A 
HETATM    4 CL1  UNL     1      27.801   4.597  48.601  1.00  0.00    -0.080 Cl
HETATM    5  C7  UNL     1      25.360   5.286  49.870  1.00  0.00     0.089 A 
HETATM    6  C12 UNL     1      24.371   5.060  50.693  1.00  0.00     0.032 A 
HETATM    7  C13 UNL     1      24.285   3.836  51.504  1.00  0.00     0.160 A 
ENDROOT
BRANCH   1   8
HETATM    8  C4  UNL     1      25.329   1.813  52.016  1.00  0.00     0.106 C 
HETATM    9  C3  UNL     1      26.315   1.311  52.745  1.00  0.00     0.080 C 
HETATM   10  C2  UNL     1      26.260   0.303  53.812  1.00  0.00     0.062 C 
HETATM   11  N1  UNL     1      27.092  -0.210  54.581  1.00  0.00    -0.294 NA
HETATM   12  C16 UNL     1      25.047  -0.373  54.241  1.00  0.00    -0.007 A 
HETATM   13  C1  UNL     1      28.484   0.062  54.653  1.00  0.00     0.178 C 
HETATM   14  C15 UNL     1      23.771  -0.102  53.718  1.00  0.00     0.193 A 
HETATM   15  C17 UNL     1      24.344  -1.279  55.025  1.00  0.00     0.048 A 
HETATM   16  C14 UNL     1      22.969   0.440  53.004  1.00  0.00     0.074 A 
HETATM   17  S1  UNL     1      22.663  -0.911  54.323  1.00  0.00    -0.158 SA
HETATM   18  N3  UNL     1      24.033   1.133  51.984  1.00  0.00    -0.361 N 
HETATM   19  H15 UNL     1      23.637   0.968  50.978  1.00  0.00     0.162 HD
ENDBRANCH   1   8
BRANCH   5  20
HETATM   20  O1  UNL     1      25.459   6.436  49.097  1.00  0.00    -0.349 OA
BRANCH  20  21
HETATM   21  C8  UNL     1      25.981   7.599  49.703  1.00  0.00     0.179 C 
BRANCH  21  22
HETATM   22  C9  UNL     1      27.006   8.294  48.823  1.00  0.00     0.056 C 
BRANCH  22  23
HETATM   23  C10 UNL     1      27.762   9.234  49.683  1.00  0.00     0.003 C 
BRANCH  23  24
HETATM   24  C11 UNL     1      29.070   9.373  49.529  1.00  0.00     0.396 C 
HETATM   25  F1  UNL     1      30.424   9.367  49.688  1.00  0.00    -0.431 F 
ENDBRANCH  23  24
ENDBRANCH  22  23
ENDBRANCH  21  22
ENDBRANCH  20  21
ENDBRANCH   5  20
TORSDOF 6
ENDMDL
MODEL 6
REMARK VINA RESULT:      -6.9      4.345      6.490
REMARK  6 active torsions:
REMARK  status: ('A' for Active; 'I' for Inactive)
REMARK    1  A    between atoms: C4_5  and  N2_6 
REMARK    2  A    between atoms: C7_10  and  O1_11 
REMARK    3  A    between atoms: O1_11  and  C8_12 
REMARK    4  A    between atoms: C8_12  and  C9_13 
REMARK    5  A    between atoms: C9_13  and  C10_14 
REMARK    6  A    between atoms: C10_14  and  C11_15 
ROOT
HETATM    1  N2  UNL     1      25.610   3.611  50.065  1.00  0.00    -0.338 N 
HETATM    2  C5  UNL     1      26.534   2.845  50.800  1.00  0.00     0.119 A 
HETATM    3  C6  UNL     1      26.067   1.875  51.593  1.00  0.00     0.082 A 
HETATM    4 CL1  UNL     1      27.265   0.959  52.481  1.00  0.00    -0.080 Cl
HETATM    5  C7  UNL     1      24.631   1.634  51.676  1.00  0.00     0.089 A 
HETATM    6  C12 UNL     1      23.766   2.339  50.998  1.00  0.00     0.032 A 
HETATM    7  C13 UNL     1      24.170   3.428  50.096  1.00  0.00     0.160 A 
ENDROOT
BRANCH   1   8
HETATM    8  C4  UNL     1      25.987   4.615  49.238  1.00  0.00     0.106 C 
HETATM    9  C3  UNL     1      25.234   5.655  48.908  1.00  0.00     0.080 C 
HETATM   10  C2  UNL     1      25.631   6.930  48.297  1.00  0.00     0.062 C 
HETATM   11  N1  UNL     1      25.038   7.977  47.982  1.00  0.00    -0.294 NA
HETATM   12  C16 UNL     1      26.988   7.262  47.898  1.00  0.00    -0.007 A 
HETATM   13  C1  UNL     1      23.657   8.268  48.141  1.00  0.00     0.178 C 
HETATM   14  C15 UNL     1      28.094   6.418  48.099  1.00  0.00     0.193 A 
HETATM   15  C17 UNL     1      27.949   8.103  47.349  1.00  0.00     0.048 A 
HETATM   16  C14 UNL     1      28.664   5.421  48.455  1.00  0.00     0.074 A 
HETATM   17  S1  UNL     1      29.401   6.976  47.620  1.00  0.00    -0.158 SA
HETATM   18  N3  UNL     1      27.342   4.500  48.697  1.00  0.00    -0.361 N 
HETATM   19  H15 UNL     1      27.570   3.525  48.258  1.00  0.00     0.162 HD
ENDBRANCH   1   8
BRANCH   5  20
HETATM   20  O1  UNL     1      24.269   0.601  52.531  1.00  0.00    -0.349 OA
BRANCH  20  21
HETATM   21  C8  UNL     1      23.010   0.678  53.167  1.00  0.00     0.179 C 
BRANCH  21  22
HETATM   22  C9  UNL     1      22.062  -0.410  52.693  1.00  0.00     0.056 C 
BRANCH  22  23
HETATM   23  C10 UNL     1      21.766  -1.275  53.859  1.00  0.00     0.003 C 
BRANCH  23  24
HETATM   24  C11 UNL     1      22.492  -1.179  54.962  1.00  0.00     0.396 C 
HETATM   25  F1  UNL     1      23.288  -1.422  56.042  1.00  0.00    -0.431 F 
ENDBRANCH  23  24
ENDBRANCH  22  23
ENDBRANCH  21  22
ENDBRANCH  20  21
ENDBRANCH   5  20
TORSDOF 6
ENDMDL
MODEL 7
REMARK VINA RESULT:      -6.8      4.716      8.465
REMARK  6 active torsions:
REMARK  status: ('A' for Active; 'I' for Inactive)
REMARK    1  A    between atoms: C4_5  and  N2_6 
REMARK    2  A    between atoms: C7_10  and  O1_11 
REMARK    3  A    between atoms: O1_11  and  C8_12 
REMARK    4  A    between atoms: C8_12  and  C9_13 
REMARK    5  A    between atoms: C9_13  and  C10_14 
REMARK    6  A    between atoms: C10_14  and  C11_15 
ROOT
HETATM    1  N2  UNL     1      21.469   0.255  52.936  1.00  0.00    -0.338 N 
HETATM    2  C5  UNL     1      22.235  -0.457  53.878  1.00  0.00     0.119 A 
HETATM    3  C6  UNL     1      23.547  -0.212  53.946  1.00  0.00     0.082 A 
HETATM    4 CL1  UNL     1      24.445  -1.129  55.137  1.00  0.00    -0.080 Cl
HETATM    5  C7  UNL     1      24.148   0.775  53.056  1.00  0.00     0.089 A 
HETATM    6  C12 UNL     1      23.446   1.441  52.178  1.00  0.00     0.032 A 
HETATM    7  C13 UNL     1      21.996   1.250  52.020  1.00  0.00     0.160 A 
ENDROOT
BRANCH   1   8
HETATM    8  C4  UNL     1      20.135   0.074  52.792  1.00  0.00     0.106 C 
HETATM    9  C3  UNL     1      19.372   0.692  51.902  1.00  0.00     0.080 C 
HETATM   10  C2  UNL     1      18.016   0.355  51.448  1.00  0.00     0.062 C 
HETATM   11  N1  UNL     1      17.228   0.823  50.608  1.00  0.00    -0.294 NA
HETATM   12  C16 UNL     1      17.232  -0.755  51.961  1.00  0.00    -0.007 A 
HETATM   13  C1  UNL     1      17.438   1.939  49.755  1.00  0.00     0.178 C 
HETATM   14  C15 UNL     1      17.701  -1.673  52.917  1.00  0.00     0.193 A 
HETATM   15  C17 UNL     1      16.088  -1.543  52.019  1.00  0.00     0.048 A 
HETATM   16  C14 UNL     1      18.491  -2.146  53.689  1.00  0.00     0.074 A 
HETATM   17  S1  UNL     1      16.721  -2.746  53.285  1.00  0.00    -0.158 SA
HETATM   18  N3  UNL     1      19.535  -0.896  53.711  1.00  0.00    -0.361 N 
HETATM   19  H15 UNL     1      19.798  -0.741  54.761  1.00  0.00     0.162 HD
ENDBRANCH   1   8
BRANCH   5  20
HETATM   20  O1  UNL     1      25.517   0.942  53.220  1.00  0.00    -0.349 OA
BRANCH  20  21
HETATM   21  C8  UNL     1      26.372   0.420  52.226  1.00  0.00     0.179 C 
BRANCH  21  22
HETATM   22  C9  UNL     1      27.242  -0.709  52.753  1.00  0.00     0.056 C 
BRANCH  22  23
HETATM   23  C10 UNL     1      28.143  -0.131  53.776  1.00  0.00     0.003 C 
BRANCH  23  24
HETATM   24  C11 UNL     1      29.368  -0.611  53.934  1.00  0.00     0.396 C 
HETATM   25  F1  UNL     1      30.471  -1.408  54.018  1.00  0.00    -0.431 F 
ENDBRANCH  23  24
ENDBRANCH  22  23
ENDBRANCH  21  22
ENDBRANCH  20  21
ENDBRANCH   5  20
TORSDOF 6
ENDMDL
MODEL 8
REMARK VINA RESULT:      -6.7      4.662      8.378
REMARK  6 active torsions:
REMARK  status: ('A' for Active; 'I' for Inactive)
REMARK    1  A    between atoms: C4_5  and  N2_6 
REMARK    2  A    between atoms: C7_10  and  O1_11 
REMARK    3  A    between atoms: O1_11  and  C8_12 
REMARK    4  A    between atoms: C8_12  and  C9_13 
REMARK    5  A    between atoms: C9_13  and  C10_14 
REMARK    6  A    between atoms: C10_14  and  C11_15 
ROOT
HETATM    1  N2  UNL     1      22.882   1.145  52.408  1.00  0.00    -0.338 N 
HETATM    2  C5  UNL     1      23.586   0.116  53.062  1.00  0.00     0.119 A 
HETATM    3  C6  UNL     1      24.739   0.420  53.666  1.00  0.00     0.082 A 
HETATM    4 CL1  UNL     1      25.567  -0.901  54.463  1.00  0.00    -0.080 Cl
HETATM    5  C7  UNL     1      25.235   1.792  53.636  1.00  0.00     0.089 A 
HETATM    6  C12 UNL     1      24.590   2.753  53.031  1.00  0.00     0.032 A 
HETATM    7  C13 UNL     1      23.313   2.529  52.336  1.00  0.00     0.160 A 
ENDROOT
BRANCH   1   8
HETATM    8  C4  UNL     1      21.708   0.933  51.767  1.00  0.00     0.106 C 
HETATM    9  C3  UNL     1      20.710   0.194  52.228  1.00  0.00     0.080 C 
HETATM   10  C2  UNL     1      19.308   0.150  51.789  1.00  0.00     0.062 C 
HETATM   11  N1  UNL     1      18.290  -0.459  52.160  1.00  0.00    -0.294 NA
HETATM   12  C16 UNL     1      18.768   0.930  50.690  1.00  0.00    -0.007 A 
HETATM   13  C1  UNL     1      18.179  -1.387  53.230  1.00  0.00     0.178 C 
HETATM   14  C15 UNL     1      19.514   1.862  49.947  1.00  0.00     0.193 A 
HETATM   15  C17 UNL     1      17.743   1.335  49.842  1.00  0.00     0.048 A 
HETATM   16  C14 UNL     1      20.494   2.482  49.632  1.00  0.00     0.074 A 
HETATM   17  S1  UNL     1      18.742   2.562  48.868  1.00  0.00    -0.158 SA
HETATM   18  N3  UNL     1      21.577   1.601  50.470  1.00  0.00    -0.361 N 
HETATM   19  H15 UNL     1      22.424   1.444  49.797  1.00  0.00     0.162 HD
ENDBRANCH   1   8
BRANCH   5  20
HETATM   20  O1  UNL     1      26.441   1.984  54.297  1.00  0.00    -0.349 OA
BRANCH  20  21
HETATM   21  C8  UNL     1      27.586   2.265  53.520  1.00  0.00     0.179 C 
BRANCH  21  22
HETATM   22  C9  UNL     1      28.159   1.016  52.872  1.00  0.00     0.056 C 
BRANCH  22  23
HETATM   23  C10 UNL     1      29.093   0.403  53.845  1.00  0.00     0.003 C 
BRANCH  23  24
HETATM   24  C11 UNL     1      29.335  -0.899  53.807  1.00  0.00     0.396 C 
HETATM   25  F1  UNL     1      29.892  -2.131  53.637  1.00  0.00    -0.431 F 
ENDBRANCH  23  24
ENDBRANCH  22  23
ENDBRANCH  21  22
ENDBRANCH  20  21
ENDBRANCH   5  20
TORSDOF 6
ENDMDL
MODEL 9
REMARK VINA RESULT:      -6.6      2.089      3.013
REMARK  6 active torsions:
REMARK  status: ('A' for Active; 'I' for Inactive)
REMARK    1  A    between atoms: C4_5  and  N2_6 
REMARK    2  A    between atoms: C7_10  and  O1_11 
REMARK    3  A    between atoms: O1_11  and  C8_12 
REMARK    4  A    between atoms: C8_12  and  C9_13 
REMARK    5  A    between atoms: C9_13  and  C10_14 
REMARK    6  A    between atoms: C10_14  and  C11_15 
ROOT
HETATM    1  N2  UNL     1      21.708   0.475  52.712  1.00  0.00    -0.338 N 
HETATM    2  C5  UNL     1      20.572   0.878  51.985  1.00  0.00     0.119 A 
HETATM    3  C6  UNL     1      19.410   0.266  52.231  1.00  0.00     0.082 A 
HETATM    4 CL1  UNL     1      18.034   0.812  51.295  1.00  0.00    -0.080 Cl
HETATM    5  C7  UNL     1      19.344  -0.792  53.233  1.00  0.00     0.089 A 
HETATM    6  C12 UNL     1      20.392  -1.173  53.913  1.00  0.00     0.032 A 
HETATM    7  C13 UNL     1      21.718  -0.567  53.723  1.00  0.00     0.160 A 
ENDROOT
BRANCH   1   8
HETATM    8  C4  UNL     1      22.928   1.035  52.531  1.00  0.00     0.106 C 
HETATM    9  C3  UNL     1      24.085   0.423  52.736  1.00  0.00     0.080 C 
HETATM   10  C2  UNL     1      25.430   0.806  52.283  1.00  0.00     0.062 C 
HETATM   11  N1  UNL     1      26.564   0.305  52.374  1.00  0.00    -0.294 NA
HETATM   12  C16 UNL     1      25.728   2.009  51.525  1.00  0.00    -0.007 A 
HETATM   13  C1  UNL     1      26.922  -0.913  53.011  1.00  0.00     0.178 C 
HETATM   14  C15 UNL     1      24.754   2.924  51.088  1.00  0.00     0.193 A 
HETATM   15  C17 UNL     1      26.592   2.884  50.876  1.00  0.00     0.048 A 
HETATM   16  C14 UNL     1      23.645   3.371  50.963  1.00  0.00     0.074 A 
HETATM   17  S1  UNL     1      25.294   4.086  50.308  1.00  0.00    -0.158 SA
HETATM   18  N3  UNL     1      22.913   2.423  52.068  1.00  0.00    -0.361 N 
HETATM   19  H15 UNL     1      22.261   3.083  52.647  1.00  0.00     0.162 HD
ENDBRANCH   1   8
BRANCH   5  20
HETATM   20  O1  UNL     1      18.084  -1.352  53.399  1.00  0.00    -0.349 OA
BRANCH  20  21
HETATM   21  C8  UNL     1      18.007  -2.712  53.769  1.00  0.00     0.179 C 
BRANCH  21  22
HETATM   22  C9  UNL     1      16.724  -3.366  53.283  1.00  0.00     0.056 C 
BRANCH  22  23
HETATM   23  C10 UNL     1      16.685  -4.734  53.849  1.00  0.00     0.003 C 
BRANCH  23  24
HETATM   24  C11 UNL     1      15.584  -5.465  53.752  1.00  0.00     0.396 C 
HETATM   25  F1  UNL     1      14.660  -6.424  53.461  1.00  0.00    -0.431 F 
ENDBRANCH  23  24
ENDBRANCH  22  23
ENDBRANCH  21  22
ENDBRANCH  20  21
ENDBRANCH   5  20
TORSDOF 6
ENDMDL
