MODEL 1
REMARK VINA RESULT:      -8.4      0.000      0.000
REMARK  6 active torsions:
REMARK  status: ('A' for Active; 'I' for Inactive)
REMARK    1  A    between atoms: C1_2  and  N1_3 
REMARK    2  A    between atoms: C1_2  and  C8_12 
REMARK    3  A    between atoms: N1_3  and  C2_4 
REMARK    4  A    between atoms: C2_4  and  C3_5 
REMARK    5  A    between atoms: C3_5  and  N2_6 
REMARK    6  A    between atoms: N3_19  and  C15_20 
ROOT
HETATM    1  C8  UNL     1      23.260   1.753  52.335  1.00  0.00     0.002 A 
HETATM    2  C9  UNL     1      22.429   2.813  52.694  1.00  0.00     0.015 A 
HETATM    3  C10 UNL     1      22.525   4.056  52.068  1.00  0.00     0.010 A 
HETATM    4  C11 UNL     1      23.468   4.214  51.079  1.00  0.00    -0.036 A 
HETATM    5  C12 UNL     1      24.319   3.207  50.678  1.00  0.00    -0.030 A 
HETATM    6  C13 UNL     1      24.191   1.986  51.325  1.00  0.00     0.024 A 
HETATM    7  C14 UNL     1      25.352   3.307  49.624  1.00  0.00     0.182 C 
HETATM    8  N3  UNL     1      25.504   4.662  49.144  1.00  0.00    -0.308 N 
HETATM    9  N4  UNL     1      24.268   5.311  49.063  1.00  0.00    -0.233 NA
HETATM   10  C21 UNL     1      23.646   5.514  50.353  1.00  0.00     0.149 C 
HETATM   11  H22 UNL     1      23.637   4.764  48.439  1.00  0.00     0.147 HD
ENDROOT
BRANCH   1  12
HETATM   12  C1  UNL     1      23.139   0.466  53.005  1.00  0.00     0.106 C 
HETATM   13  S1  UNL     1      21.558   0.472  53.393  1.00  0.00    -0.060 SA
BRANCH  12  14
HETATM   14  N1  UNL     1      24.054  -0.579  53.297  1.00  0.00    -0.379 N 
HETATM   15  H1  UNL     1      23.726  -1.503  52.983  1.00  0.00     0.160 HD
BRANCH  14  16
HETATM   16  C2  UNL     1      25.276  -0.196  53.978  1.00  0.00     0.140 C 
BRANCH  16  17
HETATM   17  C3  UNL     1      26.493  -0.815  53.336  1.00  0.00     0.136 C 
BRANCH  17  18
HETATM   18  N2  UNL     1      27.657   0.003  53.391  1.00  0.00    -0.407 N 
HETATM   19  C4  UNL     1      28.280   0.107  54.663  1.00  0.00     0.143 C 
HETATM   20  C5  UNL     1      29.361   1.161  54.576  1.00  0.00     0.187 C 
HETATM   21  O1  UNL     1      28.669   2.375  54.420  1.00  0.00    -0.388 OA
HETATM   22  C6  UNL     1      28.070   2.446  53.192  1.00  0.00     0.187 C 
HETATM   23  C7  UNL     1      27.538   1.188  52.626  1.00  0.00     0.143 C 
ENDBRANCH  17  18
ENDBRANCH  16  17
ENDBRANCH  14  16
ENDBRANCH  12  14
ENDBRANCH   1  12
BRANCH   8  24
HETATM   24  C15 UNL     1      26.669   5.404  48.756  1.00  0.00     0.047 A 
HETATM   25  C16 UNL     1      27.903   4.805  48.620  1.00  0.00     0.032 A 
HETATM   26  C17 UNL     1      28.933   5.612  48.251  1.00  0.00     0.028 A 
HETATM   27  C18 UNL     1      28.880   6.950  47.999  1.00  0.00     0.055 A 
HETATM   28 CL1  UNL     1      30.242   7.939  47.526  1.00  0.00    -0.083 Cl
HETATM   29  C19 UNL     1      27.613   7.508  48.148  1.00  0.00     0.058 A 
HETATM   30 CL2  UNL     1      27.445   9.239  47.842  1.00  0.00    -0.082 Cl
HETATM   31  C20 UNL     1      26.491   6.758  48.525  1.00  0.00     0.056 A 
ENDBRANCH   8  24
TORSDOF 6
ENDMDL
MODEL 2
REMARK VINA RESULT:      -8.3      3.116      4.863
REMARK  6 active torsions:
REMARK  status: ('A' for Active; 'I' for Inactive)
REMARK    1  A    between atoms: C1_2  and  N1_3 
REMARK    2  A    between atoms: C1_2  and  C8_12 
REMARK    3  A    between atoms: N1_3  and  C2_4 
REMARK    4  A    between atoms: C2_4  and  C3_5 
REMARK    5  A    between atoms: C3_5  and  N2_6 
REMARK    6  A    between atoms: N3_19  and  C15_20 
ROOT
HETATM    1  C8  UNL     1      25.715   5.028  49.542  1.00  0.00     0.002 A 
HETATM    2  C9  UNL     1      25.170   6.254  49.160  1.00  0.00     0.015 A 
HETATM    3  C10 UNL     1      25.923   7.196  48.460  1.00  0.00     0.010 A 
HETATM    4  C11 UNL     1      27.227   6.887  48.152  1.00  0.00    -0.036 A 
HETATM    5  C12 UNL     1      27.824   5.695  48.499  1.00  0.00    -0.030 A 
HETATM    6  C13 UNL     1      27.041   4.784  49.195  1.00  0.00     0.024 A 
HETATM    7  C14 UNL     1      29.217   5.298  48.200  1.00  0.00     0.182 C 
HETATM    8  N3  UNL     1      29.977   6.385  47.626  1.00  0.00    -0.308 N 
HETATM    9  N4  UNL     1      29.194   7.139  46.746  1.00  0.00    -0.233 NA
HETATM   10  C21 UNL     1      28.112   7.839  47.404  1.00  0.00     0.149 C 
HETATM   11  H22 UNL     1      28.820   6.512  46.002  1.00  0.00     0.147 HD
ENDROOT
BRANCH   1  12
HETATM   12  C1  UNL     1      24.908   4.062  50.274  1.00  0.00     0.106 C 
HETATM   13  S1  UNL     1      23.849   3.616  49.121  1.00  0.00    -0.060 SA
BRANCH  12  14
HETATM   14  N1  UNL     1      24.934   3.566  51.603  1.00  0.00    -0.379 N 
HETATM   15  H1  UNL     1      24.605   4.252  52.296  1.00  0.00     0.160 HD
BRANCH  14  16
HETATM   16  C2  UNL     1      25.411   2.207  51.776  1.00  0.00     0.140 C 
BRANCH  16  17
HETATM   17  C3  UNL     1      26.912   2.153  51.920  1.00  0.00     0.136 C 
BRANCH  17  18
HETATM   18  N2  UNL     1      27.357   1.801  53.226  1.00  0.00    -0.407 N 
HETATM   19  C4  UNL     1      28.597   1.113  53.292  1.00  0.00     0.143 C 
HETATM   20  C5  UNL     1      28.805   0.648  54.716  1.00  0.00     0.187 C 
HETATM   21  O1  UNL     1      27.834  -0.351  54.913  1.00  0.00    -0.388 OA
HETATM   22  C6  UNL     1      26.576   0.185  54.946  1.00  0.00     0.187 C 
HETATM   23  C7  UNL     1      26.311   1.340  54.061  1.00  0.00     0.143 C 
ENDBRANCH  17  18
ENDBRANCH  16  17
ENDBRANCH  14  16
ENDBRANCH  12  14
ENDBRANCH   1  12
BRANCH   8  24
HETATM   24  C15 UNL     1      31.342   6.787  47.810  1.00  0.00     0.047 A 
HETATM   25  C16 UNL     1      31.718   8.112  47.820  1.00  0.00     0.032 A 
HETATM   26  C17 UNL     1      33.041   8.368  48.000  1.00  0.00     0.028 A 
HETATM   27  C18 UNL     1      34.038   7.456  48.171  1.00  0.00     0.055 A 
HETATM   28 CL1  UNL     1      35.729   7.845  48.398  1.00  0.00    -0.083 Cl
HETATM   29  C19 UNL     1      33.609   6.132  48.155  1.00  0.00     0.058 A 
HETATM   30 CL2  UNL     1      34.833   4.877  48.371  1.00  0.00    -0.082 Cl
HETATM   31  C20 UNL     1      32.268   5.770  47.976  1.00  0.00     0.056 A 
ENDBRANCH   8  24
TORSDOF 6
ENDMDL
MODEL 3
REMARK VINA RESULT:      -8.3      2.550      3.830
REMARK  6 active torsions:
REMARK  status: ('A' for Active; 'I' for Inactive)
REMARK    1  A    between atoms: C1_2  and  N1_3 
REMARK    2  A    between atoms: C1_2  and  C8_12 
REMARK    3  A    between atoms: N1_3  and  C2_4 
REMARK    4  A    between atoms: C2_4  and  C3_5 
REMARK    5  A    between atoms: C3_5  and  N2_6 
REMARK    6  A    between atoms: N3_19  and  C15_20 
ROOT
HETATM    1  C8  UNL     1      24.767   4.336  50.102  1.00  0.00     0.002 A 
HETATM    2  C9  UNL     1      24.335   5.646  50.303  1.00  0.00     0.015 A 
HETATM    3  C10 UNL     1      25.111   6.736  49.910  1.00  0.00     0.010 A 
HETATM    4  C11 UNL     1      26.326   6.487  49.314  1.00  0.00    -0.036 A 
HETATM    5  C12 UNL     1      26.809   5.218  49.085  1.00  0.00    -0.030 A 
HETATM    6  C13 UNL     1      26.007   4.161  49.491  1.00  0.00     0.024 A 
HETATM    7  C14 UNL     1      28.101   4.879  48.450  1.00  0.00     0.182 C 
HETATM    8  N3  UNL     1      28.917   6.052  48.226  1.00  0.00    -0.308 N 
HETATM    9  N4  UNL     1      28.136   7.142  47.830  1.00  0.00    -0.233 NA
HETATM   10  C21 UNL     1      27.228   7.595  48.861  1.00  0.00     0.149 C 
HETATM   11  H22 UNL     1      27.607   6.886  46.969  1.00  0.00     0.147 HD
ENDROOT
BRANCH   1  12
HETATM   12  C1  UNL     1      23.937   3.216  50.522  1.00  0.00     0.106 C 
HETATM   13  S1  UNL     1      22.506   3.637  49.871  1.00  0.00    -0.060 SA
BRANCH  12  14
HETATM   14  N1  UNL     1      24.184   2.041  51.278  1.00  0.00    -0.379 N 
HETATM   15  H1  UNL     1      23.732   1.205  50.883  1.00  0.00     0.160 HD
BRANCH  14  16
HETATM   16  C2  UNL     1      25.009   2.195  52.461  1.00  0.00     0.140 C 
BRANCH  16  17
HETATM   17  C3  UNL     1      25.439   0.862  53.022  1.00  0.00     0.136 C 
BRANCH  17  18
HETATM   18  N2  UNL     1      26.836   0.765  53.281  1.00  0.00    -0.407 N 
HETATM   19  C4  UNL     1      27.194   0.283  54.567  1.00  0.00     0.143 C 
HETATM   20  C5  UNL     1      28.689   0.440  54.733  1.00  0.00     0.187 C 
HETATM   21  O1  UNL     1      28.900   1.829  54.803  1.00  0.00    -0.388 OA
HETATM   22  C6  UNL     1      28.659   2.426  53.596  1.00  0.00     0.187 C 
HETATM   23  C7  UNL     1      27.570   1.861  52.768  1.00  0.00     0.143 C 
ENDBRANCH  17  18
ENDBRANCH  16  17
ENDBRANCH  14  16
ENDBRANCH  12  14
ENDBRANCH   1  12
BRANCH   8  24
HETATM   24  C15 UNL     1      30.333   6.255  48.340  1.00  0.00     0.047 A 
HETATM   25  C16 UNL     1      30.862   7.406  48.882  1.00  0.00     0.032 A 
HETATM   26  C17 UNL     1      32.219   7.485  48.934  1.00  0.00     0.028 A 
HETATM   27  C18 UNL     1      33.113   6.550  48.509  1.00  0.00     0.055 A 
HETATM   28 CL1  UNL     1      34.853   6.707  48.601  1.00  0.00    -0.083 Cl
HETATM   29  C19 UNL     1      32.530   5.406  47.971  1.00  0.00     0.058 A 
HETATM   30 CL2  UNL     1      33.612   4.135  47.393  1.00  0.00    -0.082 Cl
HETATM   31  C20 UNL     1      31.143   5.233  47.875  1.00  0.00     0.056 A 
ENDBRANCH   8  24
TORSDOF 6
ENDMDL
MODEL 4
REMARK VINA RESULT:      -7.9      2.655      4.240
REMARK  6 active torsions:
REMARK  status: ('A' for Active; 'I' for Inactive)
REMARK    1  A    between atoms: C1_2  and  N1_3 
REMARK    2  A    between atoms: C1_2  and  C8_12 
REMARK    3  A    between atoms: N1_3  and  C2_4 
REMARK    4  A    between atoms: C2_4  and  C3_5 
REMARK    5  A    between atoms: C3_5  and  N2_6 
REMARK    6  A    between atoms: N3_19  and  C15_20 
ROOT
HETATM    1  C8  UNL     1      24.624   1.642  52.472  1.00  0.00     0.002 A 
HETATM    2  C9  UNL     1      23.782   2.626  52.991  1.00  0.00     0.015 A 
HETATM    3  C10 UNL     1      23.691   3.887  52.405  1.00  0.00     0.010 A 
HETATM    4  C11 UNL     1      24.458   4.143  51.292  1.00  0.00    -0.036 A 
HETATM    5  C12 UNL     1      25.308   3.216  50.730  1.00  0.00    -0.030 A 
HETATM    6  C13 UNL     1      25.369   1.972  51.343  1.00  0.00     0.024 A 
HETATM    7  C14 UNL     1      26.158   3.423  49.537  1.00  0.00     0.182 C 
HETATM    8  N3  UNL     1      26.135   4.798  49.090  1.00  0.00    -0.308 N 
HETATM    9  N4  UNL     1      24.858   5.351  49.220  1.00  0.00    -0.233 NA
HETATM   10  C21 UNL     1      24.428   5.471  50.596  1.00  0.00     0.149 C 
HETATM   11  H22 UNL     1      24.180   4.772  48.679  1.00  0.00     0.147 HD
ENDROOT
BRANCH   1  12
HETATM   12  C1  UNL     1      24.701   0.333  53.104  1.00  0.00     0.106 C 
HETATM   13  S1  UNL     1      26.203  -0.123  52.675  1.00  0.00    -0.060 SA
BRANCH  12  14
HETATM   14  N1  UNL     1      23.801  -0.433  53.891  1.00  0.00    -0.379 N 
HETATM   15  H1  UNL     1      24.100  -0.523  54.872  1.00  0.00     0.160 HD
BRANCH  14  16
HETATM   16  C2  UNL     1      22.633  -0.958  53.210  1.00  0.00     0.140 C 
BRANCH  16  17
HETATM   17  C3  UNL     1      21.383  -0.195  53.572  1.00  0.00     0.136 C 
BRANCH  17  18
HETATM   18  N2  UNL     1      20.726   0.403  52.459  1.00  0.00    -0.407 N 
HETATM   19  C4  UNL     1      21.381   0.265  51.207  1.00  0.00     0.143 C 
HETATM   20  C5  UNL     1      20.655   1.123  50.195  1.00  0.00     0.187 C 
HETATM   21  O1  UNL     1      20.920   2.447  50.590  1.00  0.00    -0.388 OA
HETATM   22  C6  UNL     1      20.283   2.748  51.762  1.00  0.00     0.187 C 
HETATM   23  C7  UNL     1      20.161   1.665  52.762  1.00  0.00     0.143 C 
ENDBRANCH  17  18
ENDBRANCH  16  17
ENDBRANCH  14  16
ENDBRANCH  12  14
ENDBRANCH   1  12
BRANCH   8  24
HETATM   24  C15 UNL     1      27.171   5.637  48.558  1.00  0.00     0.047 A 
HETATM   25  C16 UNL     1      26.927   6.934  48.161  1.00  0.00     0.032 A 
HETATM   26  C17 UNL     1      27.987   7.629  47.671  1.00  0.00     0.028 A 
HETATM   27  C18 UNL     1      29.267   7.184  47.529  1.00  0.00     0.055 A 
HETATM   28 CL1  UNL     1      30.595   8.127  46.890  1.00  0.00    -0.083 Cl
HETATM   29  C19 UNL     1      29.463   5.870  47.945  1.00  0.00     0.058 A 
HETATM   30 CL2  UNL     1      31.093   5.205  47.799  1.00  0.00    -0.082 Cl
HETATM   31  C20 UNL     1      28.433   5.075  48.463  1.00  0.00     0.056 A 
ENDBRANCH   8  24
TORSDOF 6
ENDMDL
MODEL 5
REMARK VINA RESULT:      -7.9      3.531      6.936
REMARK  6 active torsions:
REMARK  status: ('A' for Active; 'I' for Inactive)
REMARK    1  A    between atoms: C1_2  and  N1_3 
REMARK    2  A    between atoms: C1_2  and  C8_12 
REMARK    3  A    between atoms: N1_3  and  C2_4 
REMARK    4  A    between atoms: C2_4  and  C3_5 
REMARK    5  A    between atoms: C3_5  and  N2_6 
REMARK    6  A    between atoms: N3_19  and  C15_20 
ROOT
HETATM    1  C8  UNL     1      20.715   2.444  50.928  1.00  0.00     0.002 A 
HETATM    2  C9  UNL     1      20.100   1.193  50.953  1.00  0.00     0.015 A 
HETATM    3  C10 UNL     1      20.688   0.106  51.599  1.00  0.00     0.010 A 
HETATM    4  C11 UNL     1      21.902   0.298  52.218  1.00  0.00    -0.036 A 
HETATM    5  C12 UNL     1      22.561   1.508  52.231  1.00  0.00    -0.030 A 
HETATM    6  C13 UNL     1      21.942   2.564  51.576  1.00  0.00     0.024 A 
HETATM    7  C14 UNL     1      23.863   1.783  52.876  1.00  0.00     0.182 C 
HETATM    8  N3  UNL     1      24.484   0.578  53.376  1.00  0.00    -0.308 N 
HETATM    9  N4  UNL     1      23.534  -0.292  53.919  1.00  0.00    -0.233 NA
HETATM   10  C21 UNL     1      22.610  -0.812  52.936  1.00  0.00     0.149 C 
HETATM   11  H22 UNL     1      23.016   0.201  54.677  1.00  0.00     0.147 HD
ENDROOT
BRANCH   1  12
HETATM   12  C1  UNL     1      20.080   3.562  50.245  1.00  0.00     0.106 C 
HETATM   13  S1  UNL     1      18.800   3.823  51.216  1.00  0.00    -0.060 SA
BRANCH  12  14
HETATM   14  N1  UNL     1      20.386   4.298  49.071  1.00  0.00    -0.379 N 
HETATM   15  H1  UNL     1      19.841   5.167  48.986  1.00  0.00     0.160 HD
BRANCH  14  16
HETATM   16  C2  UNL     1      21.391   3.728  48.195  1.00  0.00     0.140 C 
BRANCH  16  17
HETATM   17  C3  UNL     1      22.510   4.701  47.916  1.00  0.00     0.136 C 
BRANCH  17  18
HETATM   18  N2  UNL     1      23.411   4.876  49.005  1.00  0.00    -0.407 N 
HETATM   19  C4  UNL     1      24.009   6.159  49.113  1.00  0.00     0.143 C 
HETATM   20  C5  UNL     1      25.073   6.097  50.186  1.00  0.00     0.187 C 
HETATM   21  O1  UNL     1      26.082   5.279  49.646  1.00  0.00    -0.388 OA
HETATM   22  C6  UNL     1      25.665   3.980  49.550  1.00  0.00     0.187 C 
HETATM   23  C7  UNL     1      24.241   3.750  49.222  1.00  0.00     0.143 C 
ENDBRANCH  17  18
ENDBRANCH  16  17
ENDBRANCH  14  16
ENDBRANCH  12  14
ENDBRANCH   1  12
BRANCH   8  24
HETATM   24  C15 UNL     1      25.857   0.160  53.399  1.00  0.00     0.047 A 
HETATM   25  C16 UNL     1      26.249  -1.082  52.951  1.00  0.00     0.032 A 
HETATM   26  C17 UNL     1      27.577  -1.364  53.027  1.00  0.00     0.028 A 
HETATM   27  C18 UNL     1      28.565  -0.552  53.497  1.00  0.00     0.055 A 
HETATM   28 CL1  UNL     1      30.261  -0.970  53.571  1.00  0.00    -0.083 Cl
HETATM   29  C19 UNL     1      28.119   0.692  53.937  1.00  0.00     0.058 A 
HETATM   30 CL2  UNL     1      29.329   1.815  54.564  1.00  0.00    -0.082 Cl
HETATM   31  C20 UNL     1      26.772   1.073  53.899  1.00  0.00     0.056 A 
ENDBRANCH   8  24
TORSDOF 6
ENDMDL
MODEL 6
REMARK VINA RESULT:      -7.6      7.378     10.496
REMARK  6 active torsions:
REMARK  status: ('A' for Active; 'I' for Inactive)
REMARK    1  A    between atoms: C1_2  and  N1_3 
REMARK    2  A    between atoms: C1_2  and  C8_12 
REMARK    3  A    between atoms: N1_3  and  C2_4 
REMARK    4  A    between atoms: C2_4  and  C3_5 
REMARK    5  A    between atoms: C3_5  and  N2_6 
REMARK    6  A    between atoms: N3_19  and  C15_20 
ROOT
HETATM    1  C8  UNL     1      17.000  -0.440  51.907  1.00  0.00     0.002 A 
HETATM    2  C9  UNL     1      16.945  -1.616  52.655  1.00  0.00     0.015 A 
HETATM    3  C10 UNL     1      18.014  -2.018  53.455  1.00  0.00     0.010 A 
HETATM    4  C11 UNL     1      19.136  -1.222  53.490  1.00  0.00    -0.036 A 
HETATM    5  C12 UNL     1      19.252  -0.049  52.776  1.00  0.00    -0.030 A 
HETATM    6  C13 UNL     1      18.166   0.316  51.993  1.00  0.00     0.024 A 
HETATM    7  C14 UNL     1      20.424   0.853  52.768  1.00  0.00     0.182 C 
HETATM    8  N3  UNL     1      21.546   0.287  53.483  1.00  0.00    -0.308 N 
HETATM    9  N4  UNL     1      21.123  -0.403  54.623  1.00  0.00    -0.233 NA
HETATM   10  C21 UNL     1      20.334  -1.576  54.319  1.00  0.00     0.149 C 
HETATM   11  H22 UNL     1      20.584   0.248  55.233  1.00  0.00     0.147 HD
ENDROOT
BRANCH   1  12
HETATM   12  C1  UNL     1      15.870  -0.043  51.079  1.00  0.00     0.106 C 
HETATM   13  S1  UNL     1      16.643   0.616  49.807  1.00  0.00    -0.060 SA
BRANCH  12  14
HETATM   14  N1  UNL     1      14.462  -0.144  51.225  1.00  0.00    -0.379 N 
HETATM   15  H1  UNL     1      14.047  -0.876  50.632  1.00  0.00     0.160 HD
BRANCH  14  16
HETATM   16  C2  UNL     1      13.841   0.776  52.158  1.00  0.00     0.140 C 
BRANCH  16  17
HETATM   17  C3  UNL     1      12.547   1.334  51.618  1.00  0.00     0.136 C 
BRANCH  17  18
HETATM   18  N2  UNL     1      12.095   2.505  52.292  1.00  0.00    -0.407 N 
HETATM   19  C4  UNL     1      12.981   3.614  52.267  1.00  0.00     0.143 C 
HETATM   20  C5  UNL     1      12.433   4.679  53.191  1.00  0.00     0.187 C 
HETATM   21  O1  UNL     1      12.574   4.141  54.483  1.00  0.00    -0.388 OA
HETATM   22  C6  UNL     1      11.716   3.094  54.677  1.00  0.00     0.187 C 
HETATM   23  C7  UNL     1      11.441   2.221  53.515  1.00  0.00     0.143 C 
ENDBRANCH  17  18
ENDBRANCH  16  17
ENDBRANCH  14  16
ENDBRANCH  12  14
ENDBRANCH   1  12
BRANCH   8  24
HETATM   24  C15 UNL     1      22.956   0.324  53.214  1.00  0.00     0.047 A 
HETATM   25  C16 UNL     1      23.836  -0.552  53.812  1.00  0.00     0.032 A 
HETATM   26  C17 UNL     1      25.147  -0.416  53.481  1.00  0.00     0.028 A 
HETATM   27  C18 UNL     1      25.688   0.491  52.621  1.00  0.00     0.055 A 
HETATM   28 CL1  UNL     1      27.389   0.619  52.232  1.00  0.00    -0.083 Cl
HETATM   29  C19 UNL     1      24.759   1.352  52.042  1.00  0.00     0.058 A 
HETATM   30 CL2  UNL     1      25.368   2.565  50.911  1.00  0.00    -0.082 Cl
HETATM   31  C20 UNL     1      23.388   1.290  52.321  1.00  0.00     0.056 A 
ENDBRANCH   8  24
TORSDOF 6
ENDMDL
MODEL 7
REMARK VINA RESULT:      -7.6      3.195      5.328
REMARK  6 active torsions:
REMARK  status: ('A' for Active; 'I' for Inactive)
REMARK    1  A    between atoms: C1_2  and  N1_3 
REMARK    2  A    between atoms: C1_2  and  C8_12 
REMARK    3  A    between atoms: N1_3  and  C2_4 
REMARK    4  A    between atoms: C2_4  and  C3_5 
REMARK    5  A    between atoms: C3_5  and  N2_6 
REMARK    6  A    between atoms: N3_19  and  C15_20 
ROOT
HETATM    1  C8  UNL     1      24.624   0.687  52.586  1.00  0.00     0.002 A 
HETATM    2  C9  UNL     1      25.957   0.504  52.219  1.00  0.00     0.015 A 
HETATM    3  C10 UNL     1      26.630   1.439  51.433  1.00  0.00     0.010 A 
HETATM    4  C11 UNL     1      25.942   2.557  51.022  1.00  0.00    -0.036 A 
HETATM    5  C12 UNL     1      24.626   2.798  51.350  1.00  0.00    -0.030 A 
HETATM    6  C13 UNL     1      23.992   1.843  52.133  1.00  0.00     0.024 A 
HETATM    7  C14 UNL     1      23.828   3.975  50.944  1.00  0.00     0.182 C 
HETATM    8  N3  UNL     1      24.538   4.809  49.999  1.00  0.00    -0.308 N 
HETATM    9  N4  UNL     1      25.899   4.881  50.311  1.00  0.00    -0.233 NA
HETATM   10  C21 UNL     1      26.582   3.614  50.173  1.00  0.00     0.149 C 
HETATM   11  H22 UNL     1      26.005   5.246  51.282  1.00  0.00     0.147 HD
ENDROOT
BRANCH   1  12
HETATM   12  C1  UNL     1      23.945  -0.305  53.407  1.00  0.00     0.106 C 
HETATM   13  S1  UNL     1      25.144  -0.732  54.421  1.00  0.00    -0.060 SA
BRANCH  12  14
HETATM   14  N1  UNL     1      22.628  -0.832  53.421  1.00  0.00    -0.379 N 
HETATM   15  H1  UNL     1      22.496  -1.607  52.757  1.00  0.00     0.160 HD
BRANCH  14  16
HETATM   16  C2  UNL     1      21.694  -0.213  54.343  1.00  0.00     0.140 C 
BRANCH  16  17
HETATM   17  C3  UNL     1      20.346   0.018  53.705  1.00  0.00     0.136 C 
BRANCH  17  18
HETATM   18  N2  UNL     1      20.396   0.791  52.510  1.00  0.00    -0.407 N 
HETATM   19  C4  UNL     1      20.371   2.199  52.683  1.00  0.00     0.143 C 
HETATM   20  C5  UNL     1      20.226   2.842  51.322  1.00  0.00     0.187 C 
HETATM   21  O1  UNL     1      18.923   2.512  50.906  1.00  0.00    -0.388 OA
HETATM   22  C6  UNL     1      18.817   1.177  50.629  1.00  0.00     0.187 C 
HETATM   23  C7  UNL     1      19.606   0.248  51.468  1.00  0.00     0.143 C 
ENDBRANCH  17  18
ENDBRANCH  16  17
ENDBRANCH  14  16
ENDBRANCH  12  14
ENDBRANCH   1  12
BRANCH   8  24
HETATM   24  C15 UNL     1      24.080   5.536  48.849  1.00  0.00     0.047 A 
HETATM   25  C16 UNL     1      22.929   5.188  48.177  1.00  0.00     0.032 A 
HETATM   26  C17 UNL     1      22.600   5.951  47.101  1.00  0.00     0.028 A 
HETATM   27  C18 UNL     1      23.285   7.024  46.613  1.00  0.00     0.055 A 
HETATM   28 CL1  UNL     1      22.812   7.970  45.220  1.00  0.00    -0.083 Cl
HETATM   29  C19 UNL     1      24.438   7.336  47.327  1.00  0.00     0.058 A 
HETATM   30 CL2  UNL     1      25.392   8.714  46.769  1.00  0.00    -0.082 Cl
HETATM   31  C20 UNL     1      24.859   6.609  48.448  1.00  0.00     0.056 A 
ENDBRANCH   8  24
TORSDOF 6
ENDMDL
MODEL 8
REMARK VINA RESULT:      -7.5      4.915      8.033
REMARK  6 active torsions:
REMARK  status: ('A' for Active; 'I' for Inactive)
REMARK    1  A    between atoms: C1_2  and  N1_3 
REMARK    2  A    between atoms: C1_2  and  C8_12 
REMARK    3  A    between atoms: N1_3  and  C2_4 
REMARK    4  A    between atoms: C2_4  and  C3_5 
REMARK    5  A    between atoms: C3_5  and  N2_6 
REMARK    6  A    between atoms: N3_19  and  C15_20 
ROOT
HETATM    1  C8  UNL     1      17.930   0.219  51.220  1.00  0.00     0.002 A 
HETATM    2  C9  UNL     1      17.562  -0.797  52.101  1.00  0.00     0.015 A 
HETATM    3  C10 UNL     1      18.418  -1.226  53.115  1.00  0.00     0.010 A 
HETATM    4  C11 UNL     1      19.647  -0.618  53.227  1.00  0.00    -0.036 A 
HETATM    5  C12 UNL     1      20.071   0.391  52.389  1.00  0.00    -0.030 A 
HETATM    6  C13 UNL     1      19.189   0.788  51.394  1.00  0.00     0.024 A 
HETATM    7  C14 UNL     1      21.375   1.086  52.454  1.00  0.00     0.182 C 
HETATM    8  N3  UNL     1      22.266   0.476  53.415  1.00  0.00    -0.308 N 
HETATM    9  N4  UNL     1      21.570   0.055  54.553  1.00  0.00    -0.233 NA
HETATM   10  C21 UNL     1      20.634  -1.014  54.284  1.00  0.00     0.149 C 
HETATM   11  H22 UNL     1      21.075   0.873  54.970  1.00  0.00     0.147 HD
ENDROOT
BRANCH   1  12
HETATM   12  C1  UNL     1      17.017   0.646  50.169  1.00  0.00     0.106 C 
HETATM   13  S1  UNL     1      15.589   0.197  50.807  1.00  0.00    -0.060 SA
BRANCH  12  14
HETATM   14  N1  UNL     1      17.194   1.281  48.912  1.00  0.00    -0.379 N 
HETATM   15  H1  UNL     1      17.056   0.644  48.116  1.00  0.00     0.160 HD
BRANCH  14  16
HETATM   16  C2  UNL     1      17.536   2.690  48.943  1.00  0.00     0.140 C 
BRANCH  16  17
HETATM   17  C3  UNL     1      18.663   3.014  47.994  1.00  0.00     0.136 C 
BRANCH  17  18
HETATM   18  N2  UNL     1      19.938   3.110  48.622  1.00  0.00    -0.407 N 
HETATM   19  C4  UNL     1      20.544   4.393  48.600  1.00  0.00     0.143 C 
HETATM   20  C5  UNL     1      21.957   4.260  49.122  1.00  0.00     0.187 C 
HETATM   21  O1  UNL     1      22.639   3.529  48.132  1.00  0.00    -0.388 OA
HETATM   22  C6  UNL     1      22.203   2.233  48.089  1.00  0.00     0.187 C 
HETATM   23  C7  UNL     1      20.768   1.993  48.361  1.00  0.00     0.143 C 
ENDBRANCH  17  18
ENDBRANCH  16  17
ENDBRANCH  14  16
ENDBRANCH  12  14
ENDBRANCH   1  12
BRANCH   8  24
HETATM   24  C15 UNL     1      23.682   0.250  53.382  1.00  0.00     0.047 A 
HETATM   25  C16 UNL     1      24.296  -0.656  54.219  1.00  0.00     0.032 A 
HETATM   26  C17 UNL     1      25.644  -0.780  54.096  1.00  0.00     0.028 A 
HETATM   27  C18 UNL     1      26.457  -0.106  53.235  1.00  0.00     0.055 A 
HETATM   28 CL1  UNL     1      28.191  -0.307  53.122  1.00  0.00    -0.083 Cl
HETATM   29  C19 UNL     1      25.790   0.796  52.410  1.00  0.00     0.058 A 
HETATM   30 CL2  UNL     1      26.762   1.718  51.259  1.00  0.00    -0.082 Cl
HETATM   31  C20 UNL     1      24.405   0.994  52.463  1.00  0.00     0.056 A 
ENDBRANCH   8  24
TORSDOF 6
ENDMDL
MODEL 9
REMARK VINA RESULT:      -7.4      5.190      8.381
REMARK  6 active torsions:
REMARK  status: ('A' for Active; 'I' for Inactive)
REMARK    1  A    between atoms: C1_2  and  N1_3 
REMARK    2  A    between atoms: C1_2  and  C8_12 
REMARK    3  A    between atoms: N1_3  and  C2_4 
REMARK    4  A    between atoms: C2_4  and  C3_5 
REMARK    5  A    between atoms: C3_5  and  N2_6 
REMARK    6  A    between atoms: N3_19  and  C15_20 
ROOT
HETATM    1  C8  UNL     1      28.497   7.460  47.434  1.00  0.00     0.002 A 
HETATM    2  C9  UNL     1      27.758   8.567  47.850  1.00  0.00     0.015 A 
HETATM    3  C10 UNL     1      26.671   8.433  48.713  1.00  0.00     0.010 A 
HETATM    4  C11 UNL     1      26.340   7.171  49.149  1.00  0.00    -0.036 A 
HETATM    5  C12 UNL     1      27.030   6.037  48.777  1.00  0.00    -0.030 A 
HETATM    6  C13 UNL     1      28.105   6.214  47.917  1.00  0.00     0.024 A 
HETATM    7  C14 UNL     1      26.730   4.655  49.207  1.00  0.00     0.182 C 
HETATM    8  N3  UNL     1      25.498   4.578  49.959  1.00  0.00    -0.308 N 
HETATM    9  N4  UNL     1      25.348   5.687  50.798  1.00  0.00    -0.233 NA
HETATM   10  C21 UNL     1      25.187   6.929  50.076  1.00  0.00     0.149 C 
HETATM   11  H22 UNL     1      26.170   5.743  51.436  1.00  0.00     0.147 HD
ENDROOT
BRANCH   1  12
HETATM   12  C1  UNL     1      29.627   7.629  46.531  1.00  0.00     0.106 C 
HETATM   13  S1  UNL     1      28.993   8.656  45.439  1.00  0.00    -0.060 SA
BRANCH  12  14
HETATM   14  N1  UNL     1      30.947   7.107  46.501  1.00  0.00    -0.379 N 
HETATM   15  H1  UNL     1      31.272   6.886  45.550  1.00  0.00     0.160 HD
BRANCH  14  16
HETATM   16  C2  UNL     1      31.615   6.968  47.781  1.00  0.00     0.140 C 
BRANCH  16  17
HETATM   17  C3  UNL     1      33.089   6.692  47.617  1.00  0.00     0.136 C 
BRANCH  17  18
HETATM   18  N2  UNL     1      33.470   5.361  47.950  1.00  0.00    -0.407 N 
HETATM   19  C4  UNL     1      34.711   4.922  47.421  1.00  0.00     0.143 C 
HETATM   20  C5  UNL     1      34.851   3.443  47.704  1.00  0.00     0.187 C 
HETATM   21  O1  UNL     1      33.881   2.828  46.891  1.00  0.00    -0.388 OA
HETATM   22  C6  UNL     1      32.618   3.108  47.334  1.00  0.00     0.187 C 
HETATM   23  C7  UNL     1      32.387   4.450  47.913  1.00  0.00     0.143 C 
ENDBRANCH  17  18
ENDBRANCH  16  17
ENDBRANCH  14  16
ENDBRANCH  12  14
ENDBRANCH   1  12
BRANCH   8  24
HETATM   24  C15 UNL     1      24.459   3.588  49.976  1.00  0.00     0.047 A 
HETATM   25  C16 UNL     1      23.532   3.487  48.962  1.00  0.00     0.032 A 
HETATM   26  C17 UNL     1      22.594   2.511  49.091  1.00  0.00     0.028 A 
HETATM   27  C18 UNL     1      22.470   1.620  50.114  1.00  0.00     0.055 A 
HETATM   28 CL1  UNL     1      21.240   0.382  50.227  1.00  0.00    -0.083 Cl
HETATM   29  C19 UNL     1      23.431   1.762  51.113  1.00  0.00     0.058 A 
HETATM   30 CL2  UNL     1      23.351   0.649  52.482  1.00  0.00    -0.082 Cl
HETATM   31  C20 UNL     1      24.435   2.737  51.068  1.00  0.00     0.056 A 
ENDBRANCH   8  24
TORSDOF 6
ENDMDL
