MODEL 1
REMARK VINA RESULT:      -8.3      0.000      0.000
REMARK  4 active torsions:
REMARK  status: ('A' for Active; 'I' for Inactive)
REMARK    1  A    between atoms: O1_1  and  C1_2 
REMARK    2  A    between atoms: C1_2  and  C2_3 
REMARK    3  A    between atoms: C10_12  and  N2_13 
REMARK    4  A    between atoms: N2_13  and  C11_14 
ROOT
HETATM    1  C2  UNL     1      28.019   1.062  54.056  1.00  0.00    -0.033 C 
HETATM    2  C3  UNL     1      27.385   0.302  55.024  1.00  0.00     0.010 C 
HETATM    3  C4  UNL     1      26.021  -0.385  54.873  1.00  0.00     0.010 C 
HETATM    4  C5  UNL     1      25.611  -0.578  53.637  1.00  0.00    -0.021 C 
HETATM    5  C6  UNL     1      26.415  -0.989  52.339  1.00  0.00     0.098 C 
HETATM    6  C7  UNL     1      26.519   0.571  52.150  1.00  0.00     0.014 C 
HETATM    7  C8  UNL     1      27.466   1.347  52.656  1.00  0.00     0.034 C 
HETATM    8  N1  UNL     1      25.326   1.180  51.578  1.00  0.00    -0.354 N 
HETATM    9  C9  UNL     1      24.026   0.793  52.216  1.00  0.00     0.108 A 
HETATM   10  C10 UNL     1      22.835   1.333  51.910  1.00  0.00     0.158 A 
HETATM   11  N3  UNL     1      21.948   0.868  52.775  1.00  0.00    -0.222 NA
HETATM   12  C17 UNL     1      22.079   0.028  53.791  1.00  0.00     0.236 A 
HETATM   13  N4  UNL     1      23.303  -0.547  54.124  1.00  0.00    -0.239 NA
HETATM   14  C18 UNL     1      24.263  -0.133  53.297  1.00  0.00     0.095 A 
HETATM   15  H9  UNL     1      25.588   1.839  50.868  1.00  0.00     0.166 HD
ENDROOT
BRANCH  10  16
HETATM   16  N2  UNL     1      22.983   2.174  50.821  1.00  0.00    -0.339 N 
HETATM   17  H10 UNL     1      23.367   1.995  49.902  1.00  0.00     0.167 HD
BRANCH  16  18
HETATM   18  C11 UNL     1      22.559   3.521  50.890  1.00  0.00     0.035 A 
HETATM   19  C12 UNL     1      21.258   3.958  50.846  1.00  0.00     0.032 A 
HETATM   20  C13 UNL     1      20.854   5.272  50.917  1.00  0.00     0.046 A 
HETATM   21  C14 UNL     1      21.801   6.259  51.043  1.00  0.00     0.138 A 
HETATM   22  F1  UNL     1      21.432   7.554  51.115  1.00  0.00    -0.204 F 
HETATM   23  C15 UNL     1      23.122   5.867  51.091  1.00  0.00     0.074 A 
HETATM   24 CL1  UNL     1      24.291   7.154  51.252  1.00  0.00    -0.081 Cl
HETATM   25  C16 UNL     1      23.473   4.536  51.017  1.00  0.00     0.056 A 
ENDBRANCH  16  18
ENDBRANCH  10  16
BRANCH   1  26
HETATM   26  C1  UNL     1      29.262   1.752  54.239  1.00  0.00     0.202 C 
BRANCH  26  27
HETATM   27  O1  UNL     1      29.355   2.789  53.349  1.00  0.00    -0.396 OA
HETATM   28  H1  UNL     1      29.331   3.672  53.785  1.00  0.00     0.209 HD
ENDBRANCH  26  27
ENDBRANCH   1  26
TORSDOF 4
ENDMDL
MODEL 2
REMARK VINA RESULT:      -8.3      3.575      4.771
REMARK  4 active torsions:
REMARK  status: ('A' for Active; 'I' for Inactive)
REMARK    1  A    between atoms: O1_1  and  C1_2 
REMARK    2  A    between atoms: C1_2  and  C2_3 
REMARK    3  A    between atoms: C10_12  and  N2_13 
REMARK    4  A    between atoms: N2_13  and  C11_14 
ROOT
HETATM    1  C2  UNL     1      28.284  -0.944  53.314  1.00  0.00    -0.033 C 
HETATM    2  C3  UNL     1      28.598   0.363  53.643  1.00  0.00     0.010 C 
HETATM    3  C4  UNL     1      27.588   1.480  53.944  1.00  0.00     0.010 C 
HETATM    4  C5  UNL     1      26.378   1.082  54.278  1.00  0.00    -0.021 C 
HETATM    5  C6  UNL     1      25.905  -0.139  55.163  1.00  0.00     0.098 C 
HETATM    6  C7  UNL     1      25.852  -0.874  53.771  1.00  0.00     0.014 C 
HETATM    7  C8  UNL     1      26.864  -1.507  53.196  1.00  0.00     0.034 C 
HETATM    8  N1  UNL     1      24.653  -0.589  52.996  1.00  0.00    -0.354 N 
HETATM    9  C9  UNL     1      24.290   0.860  52.863  1.00  0.00     0.108 A 
HETATM   10  C10 UNL     1      23.294   1.329  52.095  1.00  0.00     0.158 A 
HETATM   11  N3  UNL     1      23.370   2.650  52.100  1.00  0.00    -0.222 NA
HETATM   12  C17 UNL     1      24.215   3.472  52.704  1.00  0.00     0.236 A 
HETATM   13  N4  UNL     1      25.253   3.008  53.509  1.00  0.00    -0.239 NA
HETATM   14  C18 UNL     1      25.252   1.676  53.563  1.00  0.00     0.095 A 
HETATM   15  H9  UNL     1      24.292  -1.439  52.603  1.00  0.00     0.166 HD
ENDROOT
BRANCH  10  16
HETATM   16  N2  UNL     1      22.573   0.265  51.582  1.00  0.00    -0.339 N 
HETATM   17  H10 UNL     1      22.811  -0.397  50.856  1.00  0.00     0.167 HD
BRANCH  16  18
HETATM   18  C11 UNL     1      21.287  -0.042  52.083  1.00  0.00     0.035 A 
HETATM   19  C12 UNL     1      21.014  -0.614  53.301  1.00  0.00     0.032 A 
HETATM   20  C13 UNL     1      19.758  -0.907  53.782  1.00  0.00     0.046 A 
HETATM   21  C14 UNL     1      18.659  -0.616  53.010  1.00  0.00     0.138 A 
HETATM   22  F1  UNL     1      17.418  -0.892  53.458  1.00  0.00    -0.204 F 
HETATM   23  C15 UNL     1      18.885  -0.040  51.778  1.00  0.00     0.074 A 
HETATM   24 CL1  UNL     1      17.462   0.311  50.831  1.00  0.00    -0.081 Cl
HETATM   25  C16 UNL     1      20.165   0.233  51.344  1.00  0.00     0.056 A 
ENDBRANCH  16  18
ENDBRANCH  10  16
BRANCH   1  26
HETATM   26  C1  UNL     1      29.239  -1.955  52.970  1.00  0.00     0.202 C 
BRANCH  26  27
HETATM   27  O1  UNL     1      28.668  -3.195  53.085  1.00  0.00    -0.396 OA
HETATM   28  H1  UNL     1      27.985  -3.239  53.795  1.00  0.00     0.209 HD
ENDBRANCH  26  27
ENDBRANCH   1  26
TORSDOF 4
ENDMDL
MODEL 3
REMARK VINA RESULT:      -8.1      2.287      2.493
REMARK  4 active torsions:
REMARK  status: ('A' for Active; 'I' for Inactive)
REMARK    1  A    between atoms: O1_1  and  C1_2 
REMARK    2  A    between atoms: C1_2  and  C2_3 
REMARK    3  A    between atoms: C10_12  and  N2_13 
REMARK    4  A    between atoms: N2_13  and  C11_14 
ROOT
HETATM    1  C2  UNL     1      28.066   0.986  54.131  1.00  0.00    -0.033 C 
HETATM    2  C3  UNL     1      27.320   0.077  54.860  1.00  0.00     0.010 C 
HETATM    3  C4  UNL     1      25.919  -0.433  54.492  1.00  0.00     0.010 C 
HETATM    4  C5  UNL     1      25.571  -0.290  53.231  1.00  0.00    -0.021 C 
HETATM    5  C6  UNL     1      26.417  -0.448  51.906  1.00  0.00     0.098 C 
HETATM    6  C7  UNL     1      26.650   1.097  52.104  1.00  0.00     0.014 C 
HETATM    7  C8  UNL     1      27.621   1.644  52.821  1.00  0.00     0.034 C 
HETATM    8  N1  UNL     1      25.542   1.926  51.650  1.00  0.00    -0.354 N 
HETATM    9  C9  UNL     1      24.181   1.513  52.122  1.00  0.00     0.108 A 
HETATM   10  C10 UNL     1      23.054   2.212  51.909  1.00  0.00     0.158 A 
HETATM   11  N3  UNL     1      22.084   1.634  52.599  1.00  0.00    -0.222 NA
HETATM   12  C17 UNL     1      22.091   0.568  53.386  1.00  0.00     0.236 A 
HETATM   13  N4  UNL     1      23.246  -0.175  53.618  1.00  0.00    -0.239 NA
HETATM   14  C18 UNL     1      24.282   0.339  52.956  1.00  0.00     0.095 A 
HETATM   15  H9  UNL     1      25.894   2.710  51.132  1.00  0.00     0.166 HD
ENDROOT
BRANCH  10  16
HETATM   16  N2  UNL     1      23.329   3.273  51.063  1.00  0.00    -0.339 N 
HETATM   17  H10 UNL     1      23.821   4.139  51.238  1.00  0.00     0.167 HD
BRANCH  16  18
HETATM   18  C11 UNL     1      22.906   3.246  49.714  1.00  0.00     0.035 A 
HETATM   19  C12 UNL     1      22.449   2.143  49.037  1.00  0.00     0.032 A 
HETATM   20  C13 UNL     1      22.036   2.125  47.724  1.00  0.00     0.046 A 
HETATM   21  C14 UNL     1      22.068   3.291  46.996  1.00  0.00     0.138 A 
HETATM   22  F1  UNL     1      21.668   3.302  45.709  1.00  0.00    -0.204 F 
HETATM   23  C15 UNL     1      22.520   4.425  47.636  1.00  0.00     0.074 A 
HETATM   24 CL1  UNL     1      22.544   5.881  46.673  1.00  0.00    -0.081 Cl
HETATM   25  C16 UNL     1      22.922   4.387  48.954  1.00  0.00     0.056 A 
ENDBRANCH  16  18
ENDBRANCH  10  16
BRANCH   1  26
HETATM   26  C1  UNL     1      29.344   1.502  54.525  1.00  0.00     0.202 C 
BRANCH  26  27
HETATM   27  O1  UNL     1      29.569   2.707  53.914  1.00  0.00    -0.396 OA
HETATM   28  H1  UNL     1      29.255   3.473  54.448  1.00  0.00     0.209 HD
ENDBRANCH  26  27
ENDBRANCH   1  26
TORSDOF 4
ENDMDL
MODEL 4
REMARK VINA RESULT:      -8.1      2.986      3.377
REMARK  4 active torsions:
REMARK  status: ('A' for Active; 'I' for Inactive)
REMARK    1  A    between atoms: O1_1  and  C1_2 
REMARK    2  A    between atoms: C1_2  and  C2_3 
REMARK    3  A    between atoms: C10_12  and  N2_13 
REMARK    4  A    between atoms: N2_13  and  C11_14 
ROOT
HETATM    1  C2  UNL     1      27.687   1.576  53.682  1.00  0.00    -0.033 C 
HETATM    2  C3  UNL     1      27.594   0.609  54.668  1.00  0.00     0.010 C 
HETATM    3  C4  UNL     1      26.445  -0.395  54.833  1.00  0.00     0.010 C 
HETATM    4  C5  UNL     1      25.701  -0.595  53.766  1.00  0.00    -0.021 C 
HETATM    5  C6  UNL     1      26.098  -0.686  52.238  1.00  0.00     0.098 C 
HETATM    6  C7  UNL     1      25.787   0.858  52.269  1.00  0.00     0.014 C 
HETATM    7  C8  UNL     1      26.652   1.812  52.577  1.00  0.00     0.034 C 
HETATM    8  N1  UNL     1      24.369   1.178  52.187  1.00  0.00    -0.354 N 
HETATM    9  C9  UNL     1      23.473   0.421  53.121  1.00  0.00     0.108 A 
HETATM   10  C10 UNL     1      22.161   0.656  53.277  1.00  0.00     0.158 A 
HETATM   11  N3  UNL     1      21.736  -0.086  54.288  1.00  0.00    -0.222 NA
HETATM   12  C17 UNL     1      22.379  -0.936  55.075  1.00  0.00     0.236 A 
HETATM   13  N4  UNL     1      23.739  -1.199  54.928  1.00  0.00    -0.239 NA
HETATM   14  C18 UNL     1      24.254  -0.490  53.923  1.00  0.00     0.095 A 
HETATM   15  H9  UNL     1      24.227   1.933  51.541  1.00  0.00     0.166 HD
ENDROOT
BRANCH  10  16
HETATM   16  N2  UNL     1      21.749   1.586  52.338  1.00  0.00    -0.339 N 
HETATM   17  H10 UNL     1      22.253   2.350  51.909  1.00  0.00     0.167 HD
BRANCH  16  18
HETATM   18  C11 UNL     1      20.433   1.552  51.822  1.00  0.00     0.035 A 
HETATM   19  C12 UNL     1      19.843   0.485  51.191  1.00  0.00     0.032 A 
HETATM   20  C13 UNL     1      18.560   0.460  50.694  1.00  0.00     0.046 A 
HETATM   21  C14 UNL     1      17.770   1.578  50.821  1.00  0.00     0.138 A 
HETATM   22  F1  UNL     1      16.509   1.580  50.343  1.00  0.00    -0.204 F 
HETATM   23  C15 UNL     1      18.321   2.675  51.448  1.00  0.00     0.074 A 
HETATM   24 CL1  UNL     1      17.282   4.072  51.587  1.00  0.00    -0.081 Cl
HETATM   25  C16 UNL     1      19.612   2.646  51.929  1.00  0.00     0.056 A 
ENDBRANCH  16  18
ENDBRANCH  10  16
BRANCH   1  26
HETATM   26  C1  UNL     1      28.735   2.549  53.584  1.00  0.00     0.202 C 
BRANCH  26  27
HETATM   27  O1  UNL     1      29.599   2.411  54.638  1.00  0.00    -0.396 OA
HETATM   28  H1  UNL     1      30.545   2.477  54.371  1.00  0.00     0.209 HD
ENDBRANCH  26  27
ENDBRANCH   1  26
TORSDOF 4
ENDMDL
MODEL 5
REMARK VINA RESULT:      -8.0      4.393      7.318
REMARK  4 active torsions:
REMARK  status: ('A' for Active; 'I' for Inactive)
REMARK    1  A    between atoms: O1_1  and  C1_2 
REMARK    2  A    between atoms: C1_2  and  C2_3 
REMARK    3  A    between atoms: C10_12  and  N2_13 
REMARK    4  A    between atoms: N2_13  and  C11_14 
ROOT
HETATM    1  C2  UNL     1      19.354   0.915  50.718  1.00  0.00    -0.033 C 
HETATM    2  C3  UNL     1      18.772   0.272  51.797  1.00  0.00     0.010 C 
HETATM    3  C4  UNL     1      19.429   0.041  53.165  1.00  0.00     0.010 C 
HETATM    4  C5  UNL     1      20.448   0.824  53.449  1.00  0.00    -0.021 C 
HETATM    5  C6  UNL     1      20.685   2.356  53.142  1.00  0.00     0.098 C 
HETATM    6  C7  UNL     1      21.376   1.787  51.846  1.00  0.00     0.014 C 
HETATM    7  C8  UNL     1      20.765   1.513  50.704  1.00  0.00     0.034 C 
HETATM    8  N1  UNL     1      22.737   1.315  52.060  1.00  0.00    -0.354 N 
HETATM    9  C9  UNL     1      22.935   0.401  53.231  1.00  0.00     0.108 A 
HETATM   10  C10 UNL     1      24.085  -0.228  53.523  1.00  0.00     0.158 A 
HETATM   11  N3  UNL     1      23.845  -1.065  54.520  1.00  0.00    -0.222 NA
HETATM   12  C17 UNL     1      22.732  -1.325  55.190  1.00  0.00     0.236 A 
HETATM   13  N4  UNL     1      21.529  -0.682  54.908  1.00  0.00    -0.239 NA
HETATM   14  C18 UNL     1      21.679   0.187  53.909  1.00  0.00     0.095 A 
HETATM   15  H9  UNL     1      23.330   1.636  51.316  1.00  0.00     0.166 HD
ENDROOT
BRANCH  10  16
HETATM   16  N2  UNL     1      25.079   0.221  52.671  1.00  0.00    -0.339 N 
HETATM   17  H10 UNL     1      25.014   0.735  51.803  1.00  0.00     0.167 HD
BRANCH  16  18
HETATM   18  C11 UNL     1      26.441  -0.015  52.967  1.00  0.00     0.035 A 
HETATM   19  C12 UNL     1      27.112  -1.198  52.776  1.00  0.00     0.032 A 
HETATM   20  C13 UNL     1      28.439  -1.419  53.064  1.00  0.00     0.046 A 
HETATM   21  C14 UNL     1      29.192  -0.395  53.589  1.00  0.00     0.138 A 
HETATM   22  F1  UNL     1      30.494  -0.585  53.880  1.00  0.00    -0.204 F 
HETATM   23  C15 UNL     1      28.559   0.812  53.798  1.00  0.00     0.074 A 
HETATM   24 CL1  UNL     1      29.552   2.083  54.466  1.00  0.00    -0.081 Cl
HETATM   25  C16 UNL     1      27.226   0.980  53.491  1.00  0.00     0.056 A 
ENDBRANCH  16  18
ENDBRANCH  10  16
BRANCH   1  26
HETATM   26  C1  UNL     1      18.750   1.061  49.427  1.00  0.00     0.202 C 
BRANCH  26  27
HETATM   27  O1  UNL     1      17.592   0.331  49.368  1.00  0.00    -0.396 OA
HETATM   28  H1  UNL     1      17.502  -0.180  48.530  1.00  0.00     0.209 HD
ENDBRANCH  26  27
ENDBRANCH   1  26
TORSDOF 4
ENDMDL
MODEL 6
REMARK VINA RESULT:      -7.9      5.240      7.305
REMARK  4 active torsions:
REMARK  status: ('A' for Active; 'I' for Inactive)
REMARK    1  A    between atoms: O1_1  and  C1_2 
REMARK    2  A    between atoms: C1_2  and  C2_3 
REMARK    3  A    between atoms: C10_12  and  N2_13 
REMARK    4  A    between atoms: N2_13  and  C11_14 
ROOT
HETATM    1  C2  UNL     1      22.725   3.789  52.189  1.00  0.00    -0.033 C 
HETATM    2  C3  UNL     1      23.841   3.109  52.643  1.00  0.00     0.010 C 
HETATM    3  C4  UNL     1      23.939   1.593  52.866  1.00  0.00     0.010 C 
HETATM    4  C5  UNL     1      23.044   0.863  52.236  1.00  0.00    -0.021 C 
HETATM    5  C6  UNL     1      22.424   1.018  50.790  1.00  0.00     0.098 C 
HETATM    6  C7  UNL     1      21.328   1.844  51.563  1.00  0.00     0.014 C 
HETATM    7  C8  UNL     1      21.384   3.141  51.826  1.00  0.00     0.034 C 
HETATM    8  N1  UNL     1      20.327   1.022  52.227  1.00  0.00    -0.354 N 
HETATM    9  C9  UNL     1      20.855  -0.103  53.065  1.00  0.00     0.108 A 
HETATM   10  C10 UNL     1      20.101  -0.894  53.844  1.00  0.00     0.158 A 
HETATM   11  N3  UNL     1      20.917  -1.661  54.550  1.00  0.00    -0.222 NA
HETATM   12  C17 UNL     1      22.240  -1.733  54.576  1.00  0.00     0.236 A 
HETATM   13  N4  UNL     1      23.042  -0.926  53.773  1.00  0.00    -0.239 NA
HETATM   14  C18 UNL     1      22.298  -0.115  53.021  1.00  0.00     0.095 A 
HETATM   15  H9  UNL     1      19.412   1.402  52.065  1.00  0.00     0.166 HD
ENDROOT
BRANCH  10  16
HETATM   16  N2  UNL     1      18.765  -0.607  53.628  1.00  0.00    -0.339 N 
HETATM   17  H10 UNL     1      18.280   0.280  53.613  1.00  0.00     0.167 HD
BRANCH  16  18
HETATM   18  C11 UNL     1      17.838  -1.644  53.370  1.00  0.00     0.035 A 
HETATM   19  C12 UNL     1      17.904  -2.922  53.866  1.00  0.00     0.032 A 
HETATM   20  C13 UNL     1      16.996  -3.925  53.613  1.00  0.00     0.046 A 
HETATM   21  C14 UNL     1      15.918  -3.664  52.801  1.00  0.00     0.138 A 
HETATM   22  F1  UNL     1      15.014  -4.629  52.537  1.00  0.00    -0.204 F 
HETATM   23  C15 UNL     1      15.810  -2.392  52.280  1.00  0.00     0.074 A 
HETATM   24 CL1  UNL     1      14.427  -2.106  51.254  1.00  0.00    -0.081 Cl
HETATM   25  C16 UNL     1      16.749  -1.424  52.566  1.00  0.00     0.056 A 
ENDBRANCH  16  18
ENDBRANCH  10  16
BRANCH   1  26
HETATM   26  C1  UNL     1      22.631   5.212  52.051  1.00  0.00     0.202 C 
BRANCH  26  27
HETATM   27  O1  UNL     1      23.740   5.807  52.593  1.00  0.00    -0.396 OA
HETATM   28  H1  UNL     1      24.051   6.584  52.073  1.00  0.00     0.209 HD
ENDBRANCH  26  27
ENDBRANCH   1  26
TORSDOF 4
ENDMDL
MODEL 7
REMARK VINA RESULT:      -7.8      8.081     10.839
REMARK  4 active torsions:
REMARK  status: ('A' for Active; 'I' for Inactive)
REMARK    1  A    between atoms: O1_1  and  C1_2 
REMARK    2  A    between atoms: C1_2  and  C2_3 
REMARK    3  A    between atoms: C10_12  and  N2_13 
REMARK    4  A    between atoms: N2_13  and  C11_14 
ROOT
HETATM    1  C2  UNL     1      25.797   7.310  50.052  1.00  0.00    -0.033 C 
HETATM    2  C3  UNL     1      26.266   8.576  50.357  1.00  0.00     0.010 C 
HETATM    3  C4  UNL     1      27.562   9.205  49.826  1.00  0.00     0.010 C 
HETATM    4  C5  UNL     1      28.055   8.662  48.733  1.00  0.00    -0.021 C 
HETATM    5  C6  UNL     1      27.328   8.092  47.450  1.00  0.00     0.098 C 
HETATM    6  C7  UNL     1      27.398   6.739  48.253  1.00  0.00     0.014 C 
HETATM    7  C8  UNL     1      26.494   6.312  49.122  1.00  0.00     0.034 C 
HETATM    8  N1  UNL     1      28.691   6.074  48.180  1.00  0.00    -0.354 N 
HETATM    9  C9  UNL     1      29.886   6.935  48.457  1.00  0.00     0.108 A 
HETATM   10  C10 UNL     1      31.147   6.484  48.552  1.00  0.00     0.158 A 
HETATM   11  N3  UNL     1      31.906   7.490  48.958  1.00  0.00    -0.222 NA
HETATM   12  C17 UNL     1      31.604   8.747  49.248  1.00  0.00     0.236 A 
HETATM   13  N4  UNL     1      30.304   9.239  49.151  1.00  0.00    -0.239 NA
HETATM   14  C18 UNL     1      29.465   8.286  48.745  1.00  0.00     0.095 A 
HETATM   15  H9  UNL     1      28.560   5.091  48.020  1.00  0.00     0.166 HD
ENDROOT
BRANCH  10  16
HETATM   16  N2  UNL     1      31.179   5.145  48.204  1.00  0.00    -0.339 N 
HETATM   17  H10 UNL     1      30.525   4.401  48.404  1.00  0.00     0.167 HD
BRANCH  16  18
HETATM   18  C11 UNL     1      32.252   4.625  47.443  1.00  0.00     0.035 A 
HETATM   19  C12 UNL     1      33.251   3.810  47.913  1.00  0.00     0.032 A 
HETATM   20  C13 UNL     1      34.289   3.305  47.164  1.00  0.00     0.046 A 
HETATM   21  C14 UNL     1      34.369   3.621  45.829  1.00  0.00     0.138 A 
HETATM   22  F1  UNL     1      35.376   3.141  45.072  1.00  0.00    -0.204 F 
HETATM   23  C15 UNL     1      33.386   4.439  45.312  1.00  0.00     0.074 A 
HETATM   24 CL1  UNL     1      33.526   4.815  43.613  1.00  0.00    -0.081 Cl
HETATM   25  C16 UNL     1      32.366   4.917  46.108  1.00  0.00     0.056 A 
ENDBRANCH  16  18
ENDBRANCH  10  16
BRANCH   1  26
HETATM   26  C1  UNL     1      24.619   6.715  50.611  1.00  0.00     0.202 C 
BRANCH  26  27
HETATM   27  O1  UNL     1      24.575   6.948  51.960  1.00  0.00    -0.396 OA
HETATM   28  H1  UNL     1      24.654   6.124  52.495  1.00  0.00     0.209 HD
ENDBRANCH  26  27
ENDBRANCH   1  26
TORSDOF 4
ENDMDL
MODEL 8
REMARK VINA RESULT:      -7.8      3.555      6.775
REMARK  4 active torsions:
REMARK  status: ('A' for Active; 'I' for Inactive)
REMARK    1  A    between atoms: O1_1  and  C1_2 
REMARK    2  A    between atoms: C1_2  and  C2_3 
REMARK    3  A    between atoms: C10_12  and  N2_13 
REMARK    4  A    between atoms: N2_13  and  C11_14 
ROOT
HETATM    1  C2  UNL     1      25.183   6.992  49.145  1.00  0.00    -0.033 C 
HETATM    2  C3  UNL     1      24.378   6.533  48.117  1.00  0.00     0.010 C 
HETATM    3  C4  UNL     1      23.267   5.481  48.249  1.00  0.00     0.010 C 
HETATM    4  C5  UNL     1      22.805   5.288  49.467  1.00  0.00    -0.021 C 
HETATM    5  C6  UNL     1      22.530   6.313  50.638  1.00  0.00     0.098 C 
HETATM    6  C7  UNL     1      24.003   5.937  51.048  1.00  0.00     0.014 C 
HETATM    7  C8  UNL     1      25.102   6.530  50.604  1.00  0.00     0.034 C 
HETATM    8  N1  UNL     1      24.113   4.681  51.775  1.00  0.00    -0.354 N 
HETATM    9  C9  UNL     1      23.399   3.510  51.170  1.00  0.00     0.108 A 
HETATM   10  C10 UNL     1      23.477   2.250  51.625  1.00  0.00     0.158 A 
HETATM   11  N3  UNL     1      22.852   1.469  50.758  1.00  0.00    -0.222 NA
HETATM   12  C17 UNL     1      22.230   1.751  49.623  1.00  0.00     0.236 A 
HETATM   13  N4  UNL     1      22.132   3.051  49.133  1.00  0.00    -0.239 NA
HETATM   14  C18 UNL     1      22.738   3.912  49.951  1.00  0.00     0.095 A 
HETATM   15  H9  UNL     1      24.732   4.793  52.558  1.00  0.00     0.166 HD
ENDROOT
BRANCH  10  16
HETATM   16  N2  UNL     1      24.184   2.238  52.814  1.00  0.00    -0.339 N 
HETATM   17  H10 UNL     1      23.986   2.687  53.699  1.00  0.00     0.167 HD
BRANCH  16  18
HETATM   18  C11 UNL     1      25.390   1.508  52.927  1.00  0.00     0.035 A 
HETATM   19  C12 UNL     1      25.564   0.186  52.603  1.00  0.00     0.032 A 
HETATM   20  C13 UNL     1      26.742  -0.516  52.712  1.00  0.00     0.046 A 
HETATM   21  C14 UNL     1      27.864   0.125  53.181  1.00  0.00     0.138 A 
HETATM   22  F1  UNL     1      29.031  -0.538  53.298  1.00  0.00    -0.204 F 
HETATM   23  C15 UNL     1      27.737   1.456  53.520  1.00  0.00     0.074 A 
HETATM   24 CL1  UNL     1      29.186   2.231  54.111  1.00  0.00    -0.081 Cl
HETATM   25  C16 UNL     1      26.531   2.112  53.390  1.00  0.00     0.056 A 
ENDBRANCH  16  18
ENDBRANCH  10  16
BRANCH   1  26
HETATM   26  C1  UNL     1      26.260   7.925  48.989  1.00  0.00     0.202 C 
BRANCH  26  27
HETATM   27  O1  UNL     1      27.097   7.856  50.071  1.00  0.00    -0.396 OA
HETATM   28  H1  UNL     1      28.020   8.129  49.861  1.00  0.00     0.209 HD
ENDBRANCH  26  27
ENDBRANCH   1  26
TORSDOF 4
ENDMDL
MODEL 9
REMARK VINA RESULT:      -7.8      4.033      7.218
REMARK  4 active torsions:
REMARK  status: ('A' for Active; 'I' for Inactive)
REMARK    1  A    between atoms: O1_1  and  C1_2 
REMARK    2  A    between atoms: C1_2  and  C2_3 
REMARK    3  A    between atoms: C10_12  and  N2_13 
REMARK    4  A    between atoms: N2_13  and  C11_14 
ROOT
HETATM    1  C2  UNL     1      26.319   8.571  49.481  1.00  0.00    -0.033 C 
HETATM    2  C3  UNL     1      25.839   8.219  48.232  1.00  0.00     0.010 C 
HETATM    3  C4  UNL     1      24.710   7.216  47.955  1.00  0.00     0.010 C 
HETATM    4  C5  UNL     1      23.906   6.967  48.967  1.00  0.00    -0.021 C 
HETATM    5  C6  UNL     1      23.328   7.926  50.082  1.00  0.00     0.098 C 
HETATM    6  C7  UNL     1      24.605   7.453  50.873  1.00  0.00     0.014 C 
HETATM    7  C8  UNL     1      25.801   8.019  50.814  1.00  0.00     0.034 C 
HETATM    8  N1  UNL     1      24.462   6.148  51.503  1.00  0.00    -0.354 N 
HETATM    9  C9  UNL     1      23.925   5.055  50.628  1.00  0.00     0.108 A 
HETATM   10  C10 UNL     1      23.831   3.766  50.988  1.00  0.00     0.158 A 
HETATM   11  N3  UNL     1      23.468   3.074  49.920  1.00  0.00    -0.222 NA
HETATM   12  C17 UNL     1      23.213   3.459  48.678  1.00  0.00     0.236 A 
HETATM   13  N4  UNL     1      23.299   4.792  48.283  1.00  0.00    -0.239 NA
HETATM   14  C18 UNL     1      23.662   5.567  49.304  1.00  0.00     0.095 A 
HETATM   15  H9  UNL     1      24.828   6.179  52.437  1.00  0.00     0.166 HD
ENDROOT
BRANCH  10  16
HETATM   16  N2  UNL     1      24.158   3.642  52.328  1.00  0.00    -0.339 N 
HETATM   17  H10 UNL     1      24.233   4.344  53.051  1.00  0.00     0.167 HD
BRANCH  16  18
HETATM   18  C11 UNL     1      24.448   2.374  52.883  1.00  0.00     0.035 A 
HETATM   19  C12 UNL     1      23.574   1.320  52.982  1.00  0.00     0.032 A 
HETATM   20  C13 UNL     1      23.866   0.088  53.522  1.00  0.00     0.046 A 
HETATM   21  C14 UNL     1      25.128  -0.147  54.014  1.00  0.00     0.138 A 
HETATM   22  F1  UNL     1      25.440  -1.345  54.547  1.00  0.00    -0.204 F 
HETATM   23  C15 UNL     1      26.040   0.884  53.936  1.00  0.00     0.074 A 
HETATM   24 CL1  UNL     1      27.629   0.542  54.572  1.00  0.00    -0.081 Cl
HETATM   25  C16 UNL     1      25.695   2.100  53.384  1.00  0.00     0.056 A 
ENDBRANCH  16  18
ENDBRANCH  10  16
BRANCH   1  26
HETATM   26  C1  UNL     1      27.420   9.459  49.717  1.00  0.00     0.202 C 
BRANCH  26  27
HETATM   27  O1  UNL     1      27.585   9.649  51.063  1.00  0.00    -0.396 OA
HETATM   28  H1  UNL     1      26.897   9.195  51.603  1.00  0.00     0.209 HD
ENDBRANCH  26  27
ENDBRANCH   1  26
TORSDOF 4
ENDMDL
