MODEL 1
REMARK VINA RESULT:      -7.6      0.000      0.000
REMARK  5 active torsions:
REMARK  status: ('A' for Active; 'I' for Inactive)
REMARK    1  A    between atoms: C2_2  and  N1_3 
REMARK    2  A    between atoms: C2_2  and  C5_8 
REMARK    3  A    between atoms: C3_4  and  C4_6 
REMARK    4  A    between atoms: C9_14  and  O1_15 
REMARK    5  A    between atoms: C11_17  and  O2_18 
ROOT
HETATM    1  O2  UNL     1      25.632  -0.968  55.171  1.00  0.00    -0.238 OA
HETATM    2  C12 UNL     1      24.340  -1.266  55.500  1.00  0.00     0.234 C 
HETATM    3  N4  UNL     1      23.230  -1.535  55.777  1.00  0.00    -0.164 NA
ENDROOT
BRANCH   1   4
HETATM    4  C11 UNL     1      25.940  -0.064  54.163  1.00  0.00     0.123 A 
HETATM    5  C9  UNL     1      27.266   0.249  53.942  1.00  0.00     0.105 A 
HETATM    6  C8  UNL     1      27.672   1.138  52.962  1.00  0.00     0.072 A 
HETATM    7  C7  UNL     1      26.728   1.750  52.159  1.00  0.00     0.073 A 
HETATM    8  N3  UNL     1      27.025   2.624  51.185  1.00  0.00    -0.241 NA
HETATM    9  C14 UNL     1      25.403   1.439  52.377  1.00  0.00     0.027 A 
HETATM   10  C6  UNL     1      26.095   3.213  50.412  1.00  0.00     0.234 A 
HETATM   11  N2  UNL     1      24.772   2.927  50.602  1.00  0.00    -0.239 NA
HETATM   12  C5  UNL     1      24.467   2.052  51.575  1.00  0.00     0.098 A 
HETATM   13  C13 UNL     1      25.009   0.553  53.356  1.00  0.00     0.057 A 
BRANCH   5  14
HETATM   14  O1  UNL     1      28.232  -0.352  54.734  1.00  0.00    -0.353 OA
HETATM   15  C10 UNL     1      29.466  -0.686  54.123  1.00  0.00     0.210 C 
ENDBRANCH   5  14
BRANCH  12  16
HETATM   16  C2  UNL     1      23.038   1.820  51.693  1.00  0.00     0.078 C 
HETATM   17  C1  UNL     1      22.306   1.517  50.632  1.00  0.00     0.048 C 
BRANCH  16  18
HETATM   18  N1  UNL     1      21.952   1.772  52.585  1.00  0.00    -0.237 NA
HETATM   19  C3  UNL     1      21.542   0.600  52.991  1.00  0.00     0.132 C 
HETATM   20 CL1  UNL     1      22.121  -1.010  52.616  1.00  0.00    -0.065 Cl
BRANCH  19  21
HETATM   21  C4  UNL     1      20.389   0.488  53.941  1.00  0.00     0.294 C 
HETATM   22  F1  UNL     1      20.879   0.501  55.226  1.00  0.00    -0.248 F 
ENDBRANCH  19  21
ENDBRANCH  16  18
ENDBRANCH  12  16
ENDBRANCH   1   4
TORSDOF 5
ENDMDL
MODEL 2
REMARK VINA RESULT:      -7.6      3.682      6.588
REMARK  5 active torsions:
REMARK  status: ('A' for Active; 'I' for Inactive)
REMARK    1  A    between atoms: C2_2  and  N1_3 
REMARK    2  A    between atoms: C2_2  and  C5_8 
REMARK    3  A    between atoms: C3_4  and  C4_6 
REMARK    4  A    between atoms: C9_14  and  O1_15 
REMARK    5  A    between atoms: C11_17  and  O2_18 
ROOT
HETATM    1  O2  UNL     1      21.344   1.095  50.999  1.00  0.00    -0.238 OA
HETATM    2  C12 UNL     1      22.198   1.822  50.218  1.00  0.00     0.234 C 
HETATM    3  N4  UNL     1      22.932   2.436  49.536  1.00  0.00    -0.164 NA
ENDROOT
BRANCH   1   4
HETATM    4  C11 UNL     1      21.776   0.453  52.152  1.00  0.00     0.123 A 
HETATM    5  C9  UNL     1      20.830  -0.092  52.995  1.00  0.00     0.105 A 
HETATM    6  C8  UNL     1      21.161  -0.751  54.167  1.00  0.00     0.072 A 
HETATM    7  C7  UNL     1      22.489  -0.880  54.527  1.00  0.00     0.073 A 
HETATM    8  N3  UNL     1      22.907  -1.500  55.641  1.00  0.00    -0.241 NA
HETATM    9  C14 UNL     1      23.437  -0.337  53.686  1.00  0.00     0.027 A 
HETATM   10  C6  UNL     1      24.203  -1.618  55.980  1.00  0.00     0.234 A 
HETATM   11  N2  UNL     1      25.168  -1.091  55.168  1.00  0.00    -0.239 NA
HETATM   12  C5  UNL     1      24.758  -0.469  54.050  1.00  0.00     0.098 A 
HETATM   13  C13 UNL     1      23.096   0.317  52.522  1.00  0.00     0.057 A 
BRANCH   5  14
HETATM   14  O1  UNL     1      19.491   0.025  52.656  1.00  0.00    -0.353 OA
HETATM   15  C10 UNL     1      18.605  -0.976  53.127  1.00  0.00     0.210 C 
ENDBRANCH   5  14
BRANCH  12  16
HETATM   16  C2  UNL     1      25.860   0.054  53.261  1.00  0.00     0.078 C 
HETATM   17  C1  UNL     1      26.450  -0.688  52.337  1.00  0.00     0.048 C 
BRANCH  16  18
HETATM   18  N1  UNL     1      26.679   1.174  53.032  1.00  0.00    -0.237 NA
HETATM   19  C3  UNL     1      27.775   1.287  53.735  1.00  0.00     0.132 C 
HETATM   20 CL1  UNL     1      28.454   0.251  54.974  1.00  0.00    -0.065 Cl
BRANCH  19  21
HETATM   21  C4  UNL     1      28.685   2.459  53.534  1.00  0.00     0.294 C 
HETATM   22  F1  UNL     1      29.584   2.497  54.574  1.00  0.00    -0.248 F 
ENDBRANCH  19  21
ENDBRANCH  16  18
ENDBRANCH  12  16
ENDBRANCH   1   4
TORSDOF 5
ENDMDL
MODEL 3
REMARK VINA RESULT:      -7.4      3.368      5.574
REMARK  5 active torsions:
REMARK  status: ('A' for Active; 'I' for Inactive)
REMARK    1  A    between atoms: C2_2  and  N1_3 
REMARK    2  A    between atoms: C2_2  and  C5_8 
REMARK    3  A    between atoms: C3_4  and  C4_6 
REMARK    4  A    between atoms: C9_14  and  O1_15 
REMARK    5  A    between atoms: C11_17  and  O2_18 
ROOT
HETATM    1  O2  UNL     1      21.726  -0.562  53.233  1.00  0.00    -0.238 OA
HETATM    2  C12 UNL     1      22.024  -1.238  54.382  1.00  0.00     0.234 C 
HETATM    3  N4  UNL     1      22.271  -1.811  55.378  1.00  0.00    -0.164 NA
ENDROOT
BRANCH   1   4
HETATM    4  C11 UNL     1      22.637   0.300  52.634  1.00  0.00     0.123 A 
HETATM    5  C9  UNL     1      22.161   1.259  51.764  1.00  0.00     0.105 A 
HETATM    6  C8  UNL     1      22.989   2.162  51.119  1.00  0.00     0.072 A 
HETATM    7  C7  UNL     1      24.352   2.120  51.343  1.00  0.00     0.073 A 
HETATM    8  N3  UNL     1      25.232   2.952  50.765  1.00  0.00    -0.241 NA
HETATM    9  C14 UNL     1      24.830   1.163  52.212  1.00  0.00     0.027 A 
HETATM   10  C6  UNL     1      26.557   2.899  50.990  1.00  0.00     0.234 A 
HETATM   11  N2  UNL     1      27.064   1.963  51.847  1.00  0.00    -0.239 NA
HETATM   12  C5  UNL     1      26.189   1.126  52.430  1.00  0.00     0.098 A 
HETATM   13  C13 UNL     1      23.997   0.268  52.848  1.00  0.00     0.057 A 
BRANCH   5  14
HETATM   14  O1  UNL     1      20.797   1.321  51.524  1.00  0.00    -0.353 OA
HETATM   15  C10 UNL     1      20.047   2.279  52.251  1.00  0.00     0.210 C 
ENDBRANCH   5  14
BRANCH  12  16
HETATM   16  C2  UNL     1      26.829   0.172  53.319  1.00  0.00     0.078 C 
HETATM   17  C1  UNL     1      26.877   0.382  54.625  1.00  0.00     0.048 C 
BRANCH  16  18
HETATM   18  N1  UNL     1      27.516  -1.054  53.386  1.00  0.00    -0.237 NA
HETATM   19  C3  UNL     1      28.822  -1.024  53.420  1.00  0.00     0.132 C 
HETATM   20 CL1  UNL     1      29.939   0.325  53.396  1.00  0.00    -0.065 Cl
BRANCH  19  21
HETATM   21  C4  UNL     1      29.606  -2.298  53.492  1.00  0.00     0.294 C 
HETATM   22  F1  UNL     1      28.766  -3.345  53.194  1.00  0.00    -0.248 F 
ENDBRANCH  19  21
ENDBRANCH  16  18
ENDBRANCH  12  16
ENDBRANCH   1   4
TORSDOF 5
ENDMDL
MODEL 4
REMARK VINA RESULT:      -7.0      3.507      6.426
REMARK  5 active torsions:
REMARK  status: ('A' for Active; 'I' for Inactive)
REMARK    1  A    between atoms: C2_2  and  N1_3 
REMARK    2  A    between atoms: C2_2  and  C5_8 
REMARK    3  A    between atoms: C3_4  and  C4_6 
REMARK    4  A    between atoms: C9_14  and  O1_15 
REMARK    5  A    between atoms: C11_17  and  O2_18 
ROOT
HETATM    1  O2  UNL     1      24.255   3.098  50.451  1.00  0.00    -0.238 OA
HETATM    2  C12 UNL     1      25.611   3.202  50.324  1.00  0.00     0.234 C 
HETATM    3  N4  UNL     1      26.777   3.285  50.203  1.00  0.00    -0.164 NA
ENDROOT
BRANCH   1   4
HETATM    4  C11 UNL     1      23.671   2.287  51.416  1.00  0.00     0.123 A 
HETATM    5  C9  UNL     1      22.327   2.447  51.685  1.00  0.00     0.105 A 
HETATM    6  C8  UNL     1      21.656   1.688  52.628  1.00  0.00     0.072 A 
HETATM    7  C7  UNL     1      22.341   0.723  53.343  1.00  0.00     0.073 A 
HETATM    8  N3  UNL     1      21.778  -0.059  54.275  1.00  0.00    -0.241 NA
HETATM    9  C14 UNL     1      23.684   0.561  53.076  1.00  0.00     0.027 A 
HETATM   10  C6  UNL     1      22.456  -0.994  54.965  1.00  0.00     0.234 A 
HETATM   11  N2  UNL     1      23.789  -1.181  54.725  1.00  0.00    -0.239 NA
HETATM   12  C5  UNL     1      24.360  -0.401  53.791  1.00  0.00     0.098 A 
HETATM   13  C13 UNL     1      24.342   1.323  52.135  1.00  0.00     0.057 A 
BRANCH   5  14
HETATM   14  O1  UNL     1      21.618   3.409  50.981  1.00  0.00    -0.353 OA
HETATM   15  C10 UNL     1      20.399   3.866  51.541  1.00  0.00     0.210 C 
ENDBRANCH   5  14
BRANCH  12  16
HETATM   16  C2  UNL     1      25.775  -0.679  53.616  1.00  0.00     0.078 C 
HETATM   17  C1  UNL     1      26.225  -1.250  52.509  1.00  0.00     0.048 C 
BRANCH  16  18
HETATM   18  N1  UNL     1      27.047  -0.584  54.207  1.00  0.00    -0.237 NA
HETATM   19  C3  UNL     1      27.643   0.578  54.196  1.00  0.00     0.132 C 
HETATM   20 CL1  UNL     1      27.131   2.124  53.550  1.00  0.00    -0.065 Cl
BRANCH  19  21
HETATM   21  C4  UNL     1      29.000   0.739  54.811  1.00  0.00     0.294 C 
HETATM   22  F1  UNL     1      29.947   0.381  53.881  1.00  0.00    -0.248 F 
ENDBRANCH  19  21
ENDBRANCH  16  18
ENDBRANCH  12  16
ENDBRANCH   1   4
TORSDOF 5
ENDMDL
MODEL 5
REMARK VINA RESULT:      -7.0      3.009      4.726
REMARK  5 active torsions:
REMARK  status: ('A' for Active; 'I' for Inactive)
REMARK    1  A    between atoms: C2_2  and  N1_3 
REMARK    2  A    between atoms: C2_2  and  C5_8 
REMARK    3  A    between atoms: C3_4  and  C4_6 
REMARK    4  A    between atoms: C9_14  and  O1_15 
REMARK    5  A    between atoms: C11_17  and  O2_18 
ROOT
HETATM    1  O2  UNL     1      27.533   1.239  52.520  1.00  0.00    -0.238 OA
HETATM    2  C12 UNL     1      28.284   1.903  53.448  1.00  0.00     0.234 C 
HETATM    3  N4  UNL     1      28.937   2.463  54.250  1.00  0.00    -0.164 NA
ENDROOT
BRANCH   1   4
HETATM    4  C11 UNL     1      26.190   0.957  52.732  1.00  0.00     0.123 A 
HETATM    5  C9  UNL     1      25.848  -0.285  53.227  1.00  0.00     0.105 A 
HETATM    6  C8  UNL     1      24.538  -0.660  53.471  1.00  0.00     0.072 A 
HETATM    7  C7  UNL     1      23.513   0.233  53.216  1.00  0.00     0.073 A 
HETATM    8  N3  UNL     1      22.215  -0.039  53.421  1.00  0.00    -0.241 NA
HETATM    9  C14 UNL     1      23.851   1.474  52.723  1.00  0.00     0.027 A 
HETATM   10  C6  UNL     1      21.227   0.838  53.168  1.00  0.00     0.234 A 
HETATM   11  N2  UNL     1      21.529   2.078  52.678  1.00  0.00    -0.239 NA
HETATM   12  C5  UNL     1      22.826   2.358  52.471  1.00  0.00     0.098 A 
HETATM   13  C13 UNL     1      25.159   1.837  52.483  1.00  0.00     0.057 A 
BRANCH   5  14
HETATM   14  O1  UNL     1      26.859  -1.197  53.490  1.00  0.00    -0.353 OA
HETATM   15  C10 UNL     1      27.052  -2.248  52.559  1.00  0.00     0.210 C 
ENDBRANCH   5  14
BRANCH  12  16
HETATM   16  C2  UNL     1      23.036   3.697  51.950  1.00  0.00     0.078 C 
HETATM   17  C1  UNL     1      22.017   4.518  51.747  1.00  0.00     0.048 C 
BRANCH  16  18
HETATM   18  N1  UNL     1      24.001   4.621  51.510  1.00  0.00    -0.237 NA
HETATM   19  C3  UNL     1      24.416   4.532  50.275  1.00  0.00     0.132 C 
HETATM   20 CL1  UNL     1      23.975   3.422  48.994  1.00  0.00    -0.065 Cl
BRANCH  19  21
HETATM   21  C4  UNL     1      25.443   5.489  49.751  1.00  0.00     0.294 C 
HETATM   22  F1  UNL     1      26.233   4.826  48.840  1.00  0.00    -0.248 F 
ENDBRANCH  19  21
ENDBRANCH  16  18
ENDBRANCH  12  16
ENDBRANCH   1   4
TORSDOF 5
ENDMDL
MODEL 6
REMARK VINA RESULT:      -7.0      2.304      4.345
REMARK  5 active torsions:
REMARK  status: ('A' for Active; 'I' for Inactive)
REMARK    1  A    between atoms: C2_2  and  N1_3 
REMARK    2  A    between atoms: C2_2  and  C5_8 
REMARK    3  A    between atoms: C3_4  and  C4_6 
REMARK    4  A    between atoms: C9_14  and  O1_15 
REMARK    5  A    between atoms: C11_17  and  O2_18 
ROOT
HETATM    1  O2  UNL     1      27.180   2.289  51.211  1.00  0.00    -0.238 OA
HETATM    2  C12 UNL     1      26.381   3.039  50.395  1.00  0.00     0.234 C 
HETATM    3  N4  UNL     1      25.699   3.695  49.699  1.00  0.00    -0.164 NA
ENDROOT
BRANCH   1   4
HETATM    4  C11 UNL     1      26.652   1.485  52.213  1.00  0.00     0.123 A 
HETATM    5  C9  UNL     1      27.501   1.009  53.191  1.00  0.00     0.105 A 
HETATM    6  C8  UNL     1      27.070   0.202  54.230  1.00  0.00     0.072 A 
HETATM    7  C7  UNL     1      25.736  -0.155  54.310  1.00  0.00     0.073 A 
HETATM    8  N3  UNL     1      25.226  -0.931  55.278  1.00  0.00    -0.241 NA
HETATM    9  C14 UNL     1      24.886   0.320  53.335  1.00  0.00     0.027 A 
HETATM   10  C6  UNL     1      23.926  -1.272  55.344  1.00  0.00     0.234 A 
HETATM   11  N2  UNL     1      23.056  -0.818  54.393  1.00  0.00    -0.239 NA
HETATM   12  C5  UNL     1      23.560  -0.039  53.421  1.00  0.00     0.098 A 
HETATM   13  C13 UNL     1      25.326   1.123  52.305  1.00  0.00     0.057 A 
BRANCH   5  14
HETATM   14  O1  UNL     1      28.843   1.353  53.131  1.00  0.00    -0.353 OA
HETATM   15  C10 UNL     1      29.784   0.406  53.605  1.00  0.00     0.210 C 
ENDBRANCH   5  14
BRANCH  12  16
HETATM   16  C2  UNL     1      22.553   0.387  52.464  1.00  0.00     0.078 C 
HETATM   17  C1  UNL     1      21.262   0.251  52.725  1.00  0.00     0.048 C 
BRANCH  16  18
HETATM   18  N1  UNL     1      22.342   0.965  51.200  1.00  0.00    -0.237 NA
HETATM   19  C3  UNL     1      22.375   2.268  51.108  1.00  0.00     0.132 C 
HETATM   20 CL1  UNL     1      22.649   3.497  52.326  1.00  0.00    -0.065 Cl
BRANCH  19  21
HETATM   21  C4  UNL     1      22.156   2.940  49.787  1.00  0.00     0.294 C 
HETATM   22  F1  UNL     1      22.782   2.199  48.812  1.00  0.00    -0.248 F 
ENDBRANCH  19  21
ENDBRANCH  16  18
ENDBRANCH  12  16
ENDBRANCH   1   4
TORSDOF 5
ENDMDL
MODEL 7
REMARK VINA RESULT:      -6.8      2.442      4.470
REMARK  5 active torsions:
REMARK  status: ('A' for Active; 'I' for Inactive)
REMARK    1  A    between atoms: C2_2  and  N1_3 
REMARK    2  A    between atoms: C2_2  and  C5_8 
REMARK    3  A    between atoms: C3_4  and  C4_6 
REMARK    4  A    between atoms: C9_14  and  O1_15 
REMARK    5  A    between atoms: C11_17  and  O2_18 
ROOT
HETATM    1  O2  UNL     1      26.828   1.782  51.773  1.00  0.00    -0.238 OA
HETATM    2  C12 UNL     1      26.507   2.578  50.711  1.00  0.00     0.234 C 
HETATM    3  N4  UNL     1      26.234   3.276  49.805  1.00  0.00    -0.164 NA
ENDROOT
BRANCH   1   4
HETATM    4  C11 UNL     1      25.858   1.086  52.485  1.00  0.00     0.123 A 
HETATM    5  C9  UNL     1      26.256   0.032  53.281  1.00  0.00     0.105 A 
HETATM    6  C8  UNL     1      25.366  -0.721  54.027  1.00  0.00     0.072 A 
HETATM    7  C7  UNL     1      24.017  -0.422  53.987  1.00  0.00     0.073 A 
HETATM    8  N3  UNL     1      23.080  -1.094  54.674  1.00  0.00    -0.241 NA
HETATM    9  C14 UNL     1      23.616   0.630  53.193  1.00  0.00     0.027 A 
HETATM   10  C6  UNL     1      21.770  -0.794  54.625  1.00  0.00     0.234 A 
HETATM   11  N2  UNL     1      21.339   0.244  53.847  1.00  0.00    -0.239 NA
HETATM   12  C5  UNL     1      22.272   0.923  53.157  1.00  0.00     0.098 A 
HETATM   13  C13 UNL     1      24.511   1.373  52.454  1.00  0.00     0.057 A 
BRANCH   5  14
HETATM   14  O1  UNL     1      27.604  -0.286  53.338  1.00  0.00    -0.353 OA
HETATM   15  C10 UNL     1      28.302   0.025  54.531  1.00  0.00     0.210 C 
ENDBRANCH   5  14
BRANCH  12  16
HETATM   16  C2  UNL     1      21.710   2.002  52.364  1.00  0.00     0.078 C 
HETATM   17  C1  UNL     1      20.493   2.465  52.607  1.00  0.00     0.048 C 
BRANCH  16  18
HETATM   18  N1  UNL     1      21.946   2.888  51.297  1.00  0.00    -0.237 NA
HETATM   19  C3  UNL     1      21.886   2.414  50.081  1.00  0.00     0.132 C 
HETATM   20 CL1  UNL     1      21.549   0.797  49.496  1.00  0.00    -0.065 Cl
BRANCH  19  21
HETATM   21  C4  UNL     1      22.129   3.311  48.907  1.00  0.00     0.294 C 
HETATM   22  F1  UNL     1      23.178   2.801  48.178  1.00  0.00    -0.248 F 
ENDBRANCH  19  21
ENDBRANCH  16  18
ENDBRANCH  12  16
ENDBRANCH   1   4
TORSDOF 5
ENDMDL
MODEL 8
REMARK VINA RESULT:      -6.7      3.484      6.411
REMARK  5 active torsions:
REMARK  status: ('A' for Active; 'I' for Inactive)
REMARK    1  A    between atoms: C2_2  and  N1_3 
REMARK    2  A    between atoms: C2_2  and  C5_8 
REMARK    3  A    between atoms: C3_4  and  C4_6 
REMARK    4  A    between atoms: C9_14  and  O1_15 
REMARK    5  A    between atoms: C11_17  and  O2_18 
ROOT
HETATM    1  O2  UNL     1      25.339   4.130  50.847  1.00  0.00    -0.238 OA
HETATM    2  C12 UNL     1      26.347   3.981  49.938  1.00  0.00     0.234 C 
HETATM    3  N4  UNL     1      27.207   3.859  49.145  1.00  0.00    -0.164 NA
ENDROOT
BRANCH   1   4
HETATM    4  C11 UNL     1      24.533   3.064  51.227  1.00  0.00     0.123 A 
HETATM    5  C9  UNL     1      23.281   2.951  50.660  1.00  0.00     0.105 A 
HETATM    6  C8  UNL     1      22.406   1.925  50.975  1.00  0.00     0.072 A 
HETATM    7  C7  UNL     1      22.783   0.963  51.892  1.00  0.00     0.073 A 
HETATM    8  N3  UNL     1      22.005  -0.067  52.260  1.00  0.00    -0.241 NA
HETATM    9  C14 UNL     1      24.034   1.072  52.460  1.00  0.00     0.027 A 
HETATM   10  C6  UNL     1      22.384  -0.997  53.155  1.00  0.00     0.234 A 
HETATM   11  N2  UNL     1      23.618  -0.917  53.737  1.00  0.00    -0.239 NA
HETATM   12  C5  UNL     1      24.403   0.111  53.373  1.00  0.00     0.098 A 
HETATM   13  C13 UNL     1      24.897   2.098  52.140  1.00  0.00     0.057 A 
BRANCH   5  14
HETATM   14  O1  UNL     1      22.880   3.905  49.737  1.00  0.00    -0.353 OA
HETATM   15  C10 UNL     1      21.488   4.079  49.536  1.00  0.00     0.210 C 
ENDBRANCH   5  14
BRANCH  12  16
HETATM   16  C2  UNL     1      25.689   0.103  54.048  1.00  0.00     0.078 C 
HETATM   17  C1  UNL     1      25.778  -0.162  55.343  1.00  0.00     0.048 C 
BRANCH  16  18
HETATM   18  N1  UNL     1      27.075   0.281  53.884  1.00  0.00    -0.237 NA
HETATM   19  C3  UNL     1      27.753  -0.678  53.312  1.00  0.00     0.132 C 
HETATM   20 CL1  UNL     1      27.236  -2.225  52.674  1.00  0.00    -0.065 Cl
BRANCH  19  21
HETATM   21  C4  UNL     1      29.231  -0.544  53.111  1.00  0.00     0.294 C 
HETATM   22  F1  UNL     1      29.867  -0.972  54.252  1.00  0.00    -0.248 F 
ENDBRANCH  19  21
ENDBRANCH  16  18
ENDBRANCH  12  16
ENDBRANCH   1   4
TORSDOF 5
ENDMDL
MODEL 9
REMARK VINA RESULT:      -6.3      3.072      4.645
REMARK  5 active torsions:
REMARK  status: ('A' for Active; 'I' for Inactive)
REMARK    1  A    between atoms: C2_2  and  N1_3 
REMARK    2  A    between atoms: C2_2  and  C5_8 
REMARK    3  A    between atoms: C3_4  and  C4_6 
REMARK    4  A    between atoms: C9_14  and  O1_15 
REMARK    5  A    between atoms: C11_17  and  O2_18 
ROOT
HETATM    1  O2  UNL     1      23.504   4.638  50.200  1.00  0.00    -0.238 OA
HETATM    2  C12 UNL     1      22.366   5.008  50.859  1.00  0.00     0.234 C 
HETATM    3  N4  UNL     1      21.393   5.339  51.429  1.00  0.00    -0.164 NA
ENDROOT
BRANCH   1   4
HETATM    4  C11 UNL     1      24.341   3.643  50.689  1.00  0.00     0.123 A 
HETATM    5  C9  UNL     1      25.685   3.705  50.383  1.00  0.00     0.105 A 
HETATM    6  C8  UNL     1      26.598   2.762  50.823  1.00  0.00     0.072 A 
HETATM    7  C7  UNL     1      26.167   1.706  51.604  1.00  0.00     0.073 A 
HETATM    8  N3  UNL     1      26.975   0.745  52.076  1.00  0.00    -0.241 NA
HETATM    9  C14 UNL     1      24.825   1.642  51.912  1.00  0.00     0.027 A 
HETATM   10  C6  UNL     1      26.543  -0.279  52.834  1.00  0.00     0.234 A 
HETATM   11  N2  UNL     1      25.218  -0.372  53.158  1.00  0.00    -0.239 NA
HETATM   12  C5  UNL     1      24.402   0.587  52.689  1.00  0.00     0.098 A 
HETATM   13  C13 UNL     1      23.925   2.586  51.468  1.00  0.00     0.057 A 
BRANCH   5  14
HETATM   14  O1  UNL     1      26.141   4.756  49.602  1.00  0.00    -0.353 OA
HETATM   15  C10 UNL     1      27.346   4.562  48.881  1.00  0.00     0.210 C 
ENDBRANCH   5  14
BRANCH  12  16
HETATM   16  C2  UNL     1      23.019   0.394  53.089  1.00  0.00     0.078 C 
HETATM   17  C1  UNL     1      22.615  -0.753  53.614  1.00  0.00     0.048 C 
BRANCH  16  18
HETATM   18  N1  UNL     1      21.750   0.995  53.166  1.00  0.00    -0.237 NA
HETATM   19  C3  UNL     1      21.000   0.982  52.097  1.00  0.00     0.132 C 
HETATM   20 CL1  UNL     1      21.289   0.321  50.500  1.00  0.00    -0.065 Cl
BRANCH  19  21
HETATM   21  C4  UNL     1      19.639   1.608  52.120  1.00  0.00     0.294 C 
HETATM   22  F1  UNL     1      19.747   2.869  52.659  1.00  0.00    -0.248 F 
ENDBRANCH  19  21
ENDBRANCH  16  18
ENDBRANCH  12  16
ENDBRANCH   1   4
TORSDOF 5
ENDMDL
