MODEL 1
REMARK VINA RESULT:      -8.8      0.000      0.000
REMARK  7 active torsions:
REMARK  status: ('A' for Active; 'I' for Inactive)
REMARK    1  A    between atoms: N1_7  and  C7_8 
REMARK    2  A    between atoms: C7_8  and  N2_10 
REMARK    3  A    between atoms: N2_10  and  C8_11 
REMARK    4  A    between atoms: N2_10  and  C16_20 
REMARK    5  A    between atoms: C8_11  and  C9_12 
REMARK    6  A    between atoms: C13_16  and  O1_17 
REMARK    7  A    between atoms: C16_20  and  C17_21 
ROOT
HETATM    1  N2  UNL     1      24.014   2.585  52.048  1.00  0.00    -0.350 N 
ENDROOT
BRANCH   1   2
HETATM    2  C7  UNL     1      24.267   3.272  50.796  1.00  0.00     0.177 C 
HETATM    3  S1  UNL     1      23.012   2.919  49.796  1.00  0.00    -0.040 SA
BRANCH   2   4
HETATM    4  N1  UNL     1      25.132   4.120  50.093  1.00  0.00    -0.326 N 
HETATM    5  C2  UNL     1      24.672   5.459  49.754  1.00  0.00     0.110 A 
HETATM    6  C1  UNL     1      24.421   6.243  51.050  1.00  0.00     0.037 C 
HETATM    7  C3  UNL     1      25.633   6.229  48.966  1.00  0.00    -0.002 A 
HETATM    8  C4  UNL     1      26.836   5.923  48.545  1.00  0.00    -0.001 A 
HETATM    9  C5  UNL     1      27.278   4.592  48.926  1.00  0.00     0.017 A 
HETATM   10  C6  UNL     1      26.437   3.860  49.624  1.00  0.00     0.094 A 
ENDBRANCH   2   4
ENDBRANCH   1   2
BRANCH   1  11
HETATM   11  C8  UNL     1      22.691   2.047  51.947  1.00  0.00     0.159 C 
BRANCH  11  12
HETATM   12  C9  UNL     1      22.280   0.795  52.522  1.00  0.00    -0.065 C 
HETATM   13  C10 UNL     1      22.578   0.039  53.536  1.00  0.00    -0.018 C 
HETATM   14  C11 UNL     1      22.195  -1.248  54.174  1.00  0.00     0.057 C 
HETATM   15  C12 UNL     1      20.737  -1.399  54.245  1.00  0.00     0.009 C 
HETATM   16  C13 UNL     1      19.854  -0.763  53.516  1.00  0.00     0.040 C 
HETATM   17  C14 UNL     1      19.910   0.240  52.454  1.00  0.00     0.068 C 
HETATM   18  C15 UNL     1      21.161   0.255  51.637  1.00  0.00     0.042 C 
BRANCH  16  19
HETATM   19  O1  UNL     1      18.545  -1.160  53.856  1.00  0.00    -0.365 OA
HETATM   20  H15 UNL     1      18.029  -0.715  54.624  1.00  0.00     0.217 HD
ENDBRANCH  16  19
ENDBRANCH  11  12
ENDBRANCH   1  11
BRANCH   1  21
HETATM   21  C16 UNL     1      24.986   2.537  53.121  1.00  0.00     0.164 C 
BRANCH  21  22
HETATM   22  C17 UNL     1      25.902   1.405  53.139  1.00  0.00    -0.040 A 
HETATM   23  C18 UNL     1      26.059   0.376  52.241  1.00  0.00     0.012 A 
HETATM   24  C19 UNL     1      26.978  -0.644  52.295  1.00  0.00     0.043 A 
HETATM   25  C20 UNL     1      27.863  -0.680  53.351  1.00  0.00     0.116 A 
HETATM   26  F1  UNL     1      28.774  -1.678  53.417  1.00  0.00    -0.206 F 
HETATM   27  C21 UNL     1      27.779   0.305  54.295  1.00  0.00     0.043 A 
HETATM   28  C22 UNL     1      26.821   1.310  54.176  1.00  0.00     0.012 A 
ENDBRANCH  21  22
ENDBRANCH   1  21
TORSDOF 7
ENDMDL
MODEL 2
REMARK VINA RESULT:      -8.8      3.120      6.786
REMARK  7 active torsions:
REMARK  status: ('A' for Active; 'I' for Inactive)
REMARK    1  A    between atoms: N1_7  and  C7_8 
REMARK    2  A    between atoms: C7_8  and  N2_10 
REMARK    3  A    between atoms: N2_10  and  C8_11 
REMARK    4  A    between atoms: N2_10  and  C16_20 
REMARK    5  A    between atoms: C8_11  and  C9_12 
REMARK    6  A    between atoms: C13_16  and  O1_17 
REMARK    7  A    between atoms: C16_20  and  C17_21 
ROOT
HETATM    1  N2  UNL     1      23.967   2.787  51.279  1.00  0.00    -0.350 N 
ENDROOT
BRANCH   1   2
HETATM    2  C7  UNL     1      22.682   2.473  51.875  1.00  0.00     0.177 C 
HETATM    3  S1  UNL     1      21.849   3.885  51.982  1.00  0.00    -0.040 SA
BRANCH   2   4
HETATM    4  N1  UNL     1      21.857   1.464  52.386  1.00  0.00    -0.326 N 
HETATM    5  C2  UNL     1      20.621   1.152  51.683  1.00  0.00     0.110 A 
HETATM    6  C1  UNL     1      20.963   0.624  50.283  1.00  0.00     0.037 C 
HETATM    7  C3  UNL     1      19.811   0.130  52.341  1.00  0.00    -0.002 A 
HETATM    8  C4  UNL     1      20.027  -0.563  53.433  1.00  0.00    -0.001 A 
HETATM    9  C5  UNL     1      21.284  -0.251  54.095  1.00  0.00     0.017 A 
HETATM   10  C6  UNL     1      22.037   0.675  53.542  1.00  0.00     0.094 A 
ENDBRANCH   2   4
ENDBRANCH   1   2
BRANCH   1  11
HETATM   11  C8  UNL     1      24.912   2.809  52.356  1.00  0.00     0.159 C 
BRANCH  11  12
HETATM   12  C9  UNL     1      25.707   1.681  52.759  1.00  0.00    -0.065 C 
HETATM   13  C10 UNL     1      25.900   0.445  52.408  1.00  0.00    -0.018 C 
HETATM   14  C11 UNL     1      26.696  -0.754  52.780  1.00  0.00     0.057 C 
HETATM   15  C12 UNL     1      28.098  -0.408  53.041  1.00  0.00     0.009 C 
HETATM   16  C13 UNL     1      28.562   0.781  53.337  1.00  0.00     0.040 C 
HETATM   17  C14 UNL     1      27.980   2.109  53.516  1.00  0.00     0.068 C 
HETATM   18  C15 UNL     1      26.549   2.142  53.943  1.00  0.00     0.042 C 
BRANCH  16  19
HETATM   19  O1  UNL     1      29.959   0.741  53.522  1.00  0.00    -0.365 OA
HETATM   20  H15 UNL     1      30.377   0.517  54.433  1.00  0.00     0.217 HD
ENDBRANCH  16  19
ENDBRANCH  11  12
ENDBRANCH   1  11
BRANCH   1  21
HETATM   21  C16 UNL     1      24.130   3.027  49.860  1.00  0.00     0.164 C 
BRANCH  21  22
HETATM   22  C17 UNL     1      25.208   3.920  49.457  1.00  0.00    -0.040 A 
HETATM   23  C18 UNL     1      26.551   3.672  49.293  1.00  0.00     0.012 A 
HETATM   24  C19 UNL     1      27.514   4.554  48.865  1.00  0.00     0.043 A 
HETATM   25  C20 UNL     1      27.139   5.842  48.556  1.00  0.00     0.116 A 
HETATM   26  F1  UNL     1      28.077   6.722  48.133  1.00  0.00    -0.206 F 
HETATM   27  C21 UNL     1      25.821   6.180  48.691  1.00  0.00     0.043 A 
HETATM   28  C22 UNL     1      24.897   5.233  49.130  1.00  0.00     0.012 A 
ENDBRANCH  21  22
ENDBRANCH   1  21
TORSDOF 7
ENDMDL
MODEL 3
REMARK VINA RESULT:      -8.8      2.805      4.991
REMARK  7 active torsions:
REMARK  status: ('A' for Active; 'I' for Inactive)
REMARK    1  A    between atoms: N1_7  and  C7_8 
REMARK    2  A    between atoms: C7_8  and  N2_10 
REMARK    3  A    between atoms: N2_10  and  C8_11 
REMARK    4  A    between atoms: N2_10  and  C16_20 
REMARK    5  A    between atoms: C8_11  and  C9_12 
REMARK    6  A    between atoms: C13_16  and  O1_17 
REMARK    7  A    between atoms: C16_20  and  C17_21 
ROOT
HETATM    1  N2  UNL     1      23.562   2.928  51.506  1.00  0.00    -0.350 N 
ENDROOT
BRANCH   1   2
HETATM    2  C7  UNL     1      24.141   3.448  50.282  1.00  0.00     0.177 C 
HETATM    3  S1  UNL     1      23.212   2.897  49.044  1.00  0.00    -0.040 SA
BRANCH   2   4
HETATM    4  N1  UNL     1      25.156   4.233  49.723  1.00  0.00    -0.326 N 
HETATM    5  C2  UNL     1      24.857   5.615  49.378  1.00  0.00     0.110 A 
HETATM    6  C1  UNL     1      24.512   6.386  50.660  1.00  0.00     0.037 C 
HETATM    7  C3  UNL     1      25.971   6.318  48.743  1.00  0.00    -0.002 A 
HETATM    8  C4  UNL     1      27.187   5.917  48.462  1.00  0.00    -0.001 A 
HETATM    9  C5  UNL     1      27.464   4.543  48.847  1.00  0.00     0.017 A 
HETATM   10  C6  UNL     1      26.483   3.871  49.409  1.00  0.00     0.094 A 
ENDBRANCH   2   4
ENDBRANCH   1   2
BRANCH   1  11
HETATM   11  C8  UNL     1      24.616   2.922  52.476  1.00  0.00     0.159 C 
BRANCH  11  12
HETATM   12  C9  UNL     1      25.470   1.794  52.736  1.00  0.00    -0.065 C 
HETATM   13  C10 UNL     1      25.769   0.649  52.201  1.00  0.00    -0.018 C 
HETATM   14  C11 UNL     1      26.630  -0.542  52.420  1.00  0.00     0.057 C 
HETATM   15  C12 UNL     1      27.989  -0.157  52.820  1.00  0.00     0.009 C 
HETATM   16  C13 UNL     1      28.350   0.993  53.335  1.00  0.00     0.040 C 
HETATM   17  C14 UNL     1      27.665   2.233  53.693  1.00  0.00     0.068 C 
HETATM   18  C15 UNL     1      26.216   2.103  54.030  1.00  0.00     0.042 C 
BRANCH  16  19
HETATM   19  O1  UNL     1      29.735   1.011  53.597  1.00  0.00    -0.365 OA
HETATM   20  H15 UNL     1      30.395   1.499  52.980  1.00  0.00     0.217 HD
ENDBRANCH  16  19
ENDBRANCH  11  12
ENDBRANCH   1  11
BRANCH   1  21
HETATM   21  C16 UNL     1      22.177   2.513  51.599  1.00  0.00     0.164 C 
BRANCH  21  22
HETATM   22  C17 UNL     1      21.895   1.303  52.359  1.00  0.00    -0.040 A 
HETATM   23  C18 UNL     1      22.408   0.034  52.230  1.00  0.00     0.012 A 
HETATM   24  C19 UNL     1      22.130  -1.060  53.013  1.00  0.00     0.043 A 
HETATM   25  C20 UNL     1      21.242  -0.917  54.057  1.00  0.00     0.116 A 
HETATM   26  F1  UNL     1      20.958  -1.986  54.836  1.00  0.00    -0.206 F 
HETATM   27  C21 UNL     1      20.680   0.312  54.260  1.00  0.00     0.043 A 
HETATM   28  C22 UNL     1      21.009   1.379  53.426  1.00  0.00     0.012 A 
ENDBRANCH  21  22
ENDBRANCH   1  21
TORSDOF 7
ENDMDL
MODEL 4
REMARK VINA RESULT:      -8.6      2.794      5.308
REMARK  7 active torsions:
REMARK  status: ('A' for Active; 'I' for Inactive)
REMARK    1  A    between atoms: N1_7  and  C7_8 
REMARK    2  A    between atoms: C7_8  and  N2_10 
REMARK    3  A    between atoms: N2_10  and  C8_11 
REMARK    4  A    between atoms: N2_10  and  C16_20 
REMARK    5  A    between atoms: C8_11  and  C9_12 
REMARK    6  A    between atoms: C13_16  and  O1_17 
REMARK    7  A    between atoms: C16_20  and  C17_21 
ROOT
HETATM    1  N2  UNL     1      23.958   2.430  51.897  1.00  0.00    -0.350 N 
ENDROOT
BRANCH   1   2
HETATM    2  C7  UNL     1      24.055   3.797  51.422  1.00  0.00     0.177 C 
HETATM    3  S1  UNL     1      23.446   4.757  52.607  1.00  0.00    -0.040 SA
BRANCH   2   4
HETATM    4  N1  UNL     1      24.463   4.634  50.377  1.00  0.00    -0.326 N 
HETATM    5  C2  UNL     1      25.879   4.693  50.045  1.00  0.00     0.110 A 
HETATM    6  C1  UNL     1      26.336   3.311  49.558  1.00  0.00     0.037 C 
HETATM    7  C3  UNL     1      26.195   5.648  48.983  1.00  0.00    -0.002 A 
HETATM    8  C4  UNL     1      25.416   6.427  48.273  1.00  0.00    -0.001 A 
HETATM    9  C5  UNL     1      24.006   6.321  48.607  1.00  0.00     0.017 A 
HETATM   10  C6  UNL     1      23.680   5.484  49.568  1.00  0.00     0.094 A 
ENDBRANCH   2   4
ENDBRANCH   1   2
BRANCH   1  11
HETATM   11  C8  UNL     1      24.804   2.347  53.051  1.00  0.00     0.159 C 
BRANCH  11  12
HETATM   12  C9  UNL     1      26.184   1.943  53.016  1.00  0.00    -0.065 C 
HETATM   13  C10 UNL     1      27.316   2.282  53.554  1.00  0.00    -0.018 C 
HETATM   14  C11 UNL     1      28.755   1.909  53.557  1.00  0.00     0.057 C 
HETATM   15  C12 UNL     1      28.932   0.454  53.638  1.00  0.00     0.009 C 
HETATM   16  C13 UNL     1      28.040  -0.455  53.333  1.00  0.00     0.040 C 
HETATM   17  C14 UNL     1      26.663  -0.438  52.844  1.00  0.00     0.068 C 
HETATM   18  C15 UNL     1      26.268   0.765  52.050  1.00  0.00     0.042 C 
BRANCH  16  19
HETATM   19  O1  UNL     1      28.557  -1.751  53.533  1.00  0.00    -0.365 OA
HETATM   20  H15 UNL     1      29.165  -2.202  52.839  1.00  0.00     0.217 HD
ENDBRANCH  16  19
ENDBRANCH  11  12
ENDBRANCH   1  11
BRANCH   1  21
HETATM   21  C16 UNL     1      23.143   1.431  51.237  1.00  0.00     0.164 C 
BRANCH  21  22
HETATM   22  C17 UNL     1      22.402   0.509  52.088  1.00  0.00    -0.040 A 
HETATM   23  C18 UNL     1      22.855  -0.437  52.976  1.00  0.00     0.012 A 
HETATM   24  C19 UNL     1      22.097  -1.250  53.786  1.00  0.00     0.043 A 
HETATM   25  C20 UNL     1      20.725  -1.138  53.734  1.00  0.00     0.116 A 
HETATM   26  F1  UNL     1      19.966  -1.932  54.525  1.00  0.00    -0.206 F 
HETATM   27  C21 UNL     1      20.185  -0.222  52.876  1.00  0.00     0.043 A 
HETATM   28  C22 UNL     1      21.015   0.570  52.084  1.00  0.00     0.012 A 
ENDBRANCH  21  22
ENDBRANCH   1  21
TORSDOF 7
ENDMDL
MODEL 5
REMARK VINA RESULT:      -8.6      2.631      5.115
REMARK  7 active torsions:
REMARK  status: ('A' for Active; 'I' for Inactive)
REMARK    1  A    between atoms: N1_7  and  C7_8 
REMARK    2  A    between atoms: C7_8  and  N2_10 
REMARK    3  A    between atoms: N2_10  and  C8_11 
REMARK    4  A    between atoms: N2_10  and  C16_20 
REMARK    5  A    between atoms: C8_11  and  C9_12 
REMARK    6  A    between atoms: C13_16  and  O1_17 
REMARK    7  A    between atoms: C16_20  and  C17_21 
ROOT
HETATM    1  N2  UNL     1      23.972   0.647  53.310  1.00  0.00    -0.350 N 
ENDROOT
BRANCH   1   2
HETATM    2  C7  UNL     1      25.088  -0.049  53.922  1.00  0.00     0.177 C 
HETATM    3  S1  UNL     1      24.459  -1.046  55.066  1.00  0.00    -0.040 SA
BRANCH   2   4
HETATM    4  N1  UNL     1      26.476  -0.230  53.931  1.00  0.00    -0.326 N 
HETATM    5  C2  UNL     1      27.050  -1.262  53.080  1.00  0.00     0.110 A 
HETATM    6  C1  UNL     1      26.773  -0.909  51.612  1.00  0.00     0.037 C 
HETATM    7  C3  UNL     1      28.499  -1.403  53.221  1.00  0.00    -0.002 A 
HETATM    8  C4  UNL     1      29.356  -0.741  53.959  1.00  0.00    -0.001 A 
HETATM    9  C5  UNL     1      28.756   0.303  54.773  1.00  0.00     0.017 A 
HETATM   10  C6  UNL     1      27.452   0.454  54.687  1.00  0.00     0.094 A 
ENDBRANCH   2   4
ENDBRANCH   1   2
BRANCH   1  11
HETATM   11  C8  UNL     1      22.980  -0.351  53.038  1.00  0.00     0.159 C 
BRANCH  11  12
HETATM   12  C9  UNL     1      21.605  -0.063  52.732  1.00  0.00    -0.065 C 
HETATM   13  C10 UNL     1      20.846   0.088  51.688  1.00  0.00    -0.018 C 
HETATM   14  C11 UNL     1      19.439   0.383  51.313  1.00  0.00     0.057 C 
HETATM   15  C12 UNL     1      18.492  -0.388  52.129  1.00  0.00     0.009 C 
HETATM   16  C13 UNL     1      18.739  -0.937  53.293  1.00  0.00     0.040 C 
HETATM   17  C14 UNL     1      19.898  -1.021  54.178  1.00  0.00     0.068 C 
HETATM   18  C15 UNL     1      20.886   0.094  54.067  1.00  0.00     0.042 C 
BRANCH  16  19
HETATM   19  O1  UNL     1      17.596  -1.599  53.786  1.00  0.00    -0.365 OA
HETATM   20  H15 UNL     1      16.731  -1.091  54.006  1.00  0.00     0.217 HD
ENDBRANCH  16  19
ENDBRANCH  11  12
ENDBRANCH   1  11
BRANCH   1  21
HETATM   21  C16 UNL     1      23.985   2.074  53.060  1.00  0.00     0.164 C 
BRANCH  21  22
HETATM   22  C17 UNL     1      24.684   2.534  51.869  1.00  0.00    -0.040 A 
HETATM   23  C18 UNL     1      24.189   2.999  50.673  1.00  0.00     0.012 A 
HETATM   24  C19 UNL     1      24.908   3.462  49.597  1.00  0.00     0.043 A 
HETATM   25  C20 UNL     1      26.283   3.479  49.680  1.00  0.00     0.116 A 
HETATM   26  F1  UNL     1      27.004   3.932  48.629  1.00  0.00    -0.206 F 
HETATM   27  C21 UNL     1      26.864   3.032  50.834  1.00  0.00     0.043 A 
HETATM   28  C22 UNL     1      26.072   2.577  51.887  1.00  0.00     0.012 A 
ENDBRANCH  21  22
ENDBRANCH   1  21
TORSDOF 7
ENDMDL
MODEL 6
REMARK VINA RESULT:      -8.5      1.281      2.167
REMARK  7 active torsions:
REMARK  status: ('A' for Active; 'I' for Inactive)
REMARK    1  A    between atoms: N1_7  and  C7_8 
REMARK    2  A    between atoms: C7_8  and  N2_10 
REMARK    3  A    between atoms: N2_10  and  C8_11 
REMARK    4  A    between atoms: N2_10  and  C16_20 
REMARK    5  A    between atoms: C8_11  and  C9_12 
REMARK    6  A    between atoms: C13_16  and  O1_17 
REMARK    7  A    between atoms: C16_20  and  C17_21 
ROOT
HETATM    1  N2  UNL     1      24.630   2.679  51.274  1.00  0.00    -0.350 N 
ENDROOT
BRANCH   1   2
HETATM    2  C7  UNL     1      24.107   3.833  50.569  1.00  0.00     0.177 C 
HETATM    3  S1  UNL     1      23.141   3.261  49.370  1.00  0.00    -0.040 SA
BRANCH   2   4
HETATM    4  N1  UNL     1      24.076   5.230  50.498  1.00  0.00    -0.326 N 
HETATM    5  C2  UNL     1      25.332   5.948  50.333  1.00  0.00     0.110 A 
HETATM    6  C1  UNL     1      25.955   5.561  48.984  1.00  0.00     0.037 C 
HETATM    7  C3  UNL     1      25.185   7.402  50.336  1.00  0.00    -0.002 A 
HETATM    8  C4  UNL     1      24.115   8.154  50.434  1.00  0.00    -0.001 A 
HETATM    9  C5  UNL     1      22.875   7.409  50.565  1.00  0.00     0.017 A 
HETATM   10  C6  UNL     1      22.965   6.096  50.581  1.00  0.00     0.094 A 
ENDBRANCH   2   4
ENDBRANCH   1   2
BRANCH   1  11
HETATM   11  C8  UNL     1      23.758   2.462  52.390  1.00  0.00     0.159 C 
BRANCH  11  12
HETATM   12  C9  UNL     1      23.296   1.170  52.818  1.00  0.00    -0.065 C 
HETATM   13  C10 UNL     1      23.575   0.281  53.723  1.00  0.00    -0.018 C 
HETATM   14  C11 UNL     1      23.141  -1.055  54.207  1.00  0.00     0.057 C 
HETATM   15  C12 UNL     1      21.678  -1.144  54.297  1.00  0.00     0.009 C 
HETATM   16  C13 UNL     1      20.814  -0.381  53.674  1.00  0.00     0.040 C 
HETATM   17  C14 UNL     1      20.901   0.742  52.743  1.00  0.00     0.068 C 
HETATM   18  C15 UNL     1      22.134   0.798  51.902  1.00  0.00     0.042 C 
BRANCH  16  19
HETATM   19  O1  UNL     1      19.494  -0.753  53.996  1.00  0.00    -0.365 OA
HETATM   20  H15 UNL     1      19.067  -0.503  54.896  1.00  0.00     0.217 HD
ENDBRANCH  16  19
ENDBRANCH  11  12
ENDBRANCH   1  11
BRANCH   1  21
HETATM   21  C16 UNL     1      25.822   1.976  50.843  1.00  0.00     0.164 C 
BRANCH  21  22
HETATM   22  C17 UNL     1      26.709   1.472  51.882  1.00  0.00    -0.040 A 
HETATM   23  C18 UNL     1      27.501   2.150  52.779  1.00  0.00     0.012 A 
HETATM   24  C19 UNL     1      28.286   1.611  53.770  1.00  0.00     0.043 A 
HETATM   25  C20 UNL     1      28.315   0.241  53.918  1.00  0.00     0.116 A 
HETATM   26  F1  UNL     1      29.084  -0.303  54.889  1.00  0.00    -0.206 F 
HETATM   27  C21 UNL     1      27.558  -0.515  53.067  1.00  0.00     0.043 A 
HETATM   28  C22 UNL     1      26.784   0.100  52.084  1.00  0.00     0.012 A 
ENDBRANCH  21  22
ENDBRANCH   1  21
TORSDOF 7
ENDMDL
MODEL 7
REMARK VINA RESULT:      -8.5      2.866      5.283
REMARK  7 active torsions:
REMARK  status: ('A' for Active; 'I' for Inactive)
REMARK    1  A    between atoms: N1_7  and  C7_8 
REMARK    2  A    between atoms: C7_8  and  N2_10 
REMARK    3  A    between atoms: N2_10  and  C8_11 
REMARK    4  A    between atoms: N2_10  and  C16_20 
REMARK    5  A    between atoms: C8_11  and  C9_12 
REMARK    6  A    between atoms: C13_16  and  O1_17 
REMARK    7  A    between atoms: C16_20  and  C17_21 
ROOT
HETATM    1  N2  UNL     1      23.549   0.630  53.189  1.00  0.00    -0.350 N 
ENDROOT
BRANCH   1   2
HETATM    2  C7  UNL     1      22.280   0.523  52.495  1.00  0.00     0.177 C 
HETATM    3  S1  UNL     1      21.373  -0.565  53.327  1.00  0.00    -0.040 SA
BRANCH   2   4
HETATM    4  N1  UNL     1      21.508   0.971  51.418  1.00  0.00    -0.326 N 
HETATM    5  C2  UNL     1      20.202   1.554  51.691  1.00  0.00     0.110 A 
HETATM    6  C1  UNL     1      20.390   2.833  52.518  1.00  0.00     0.037 C 
HETATM    7  C3  UNL     1      19.459   1.926  50.488  1.00  0.00    -0.002 A 
HETATM    8  C4  UNL     1      19.786   1.846  49.221  1.00  0.00    -0.001 A 
HETATM    9  C5  UNL     1      21.108   1.289  48.983  1.00  0.00     0.017 A 
HETATM   10  C6  UNL     1      21.804   0.928  50.039  1.00  0.00     0.094 A 
ENDBRANCH   2   4
ENDBRANCH   1   2
BRANCH   1  11
HETATM   11  C8  UNL     1      23.879   2.024  53.206  1.00  0.00     0.159 C 
BRANCH  11  12
HETATM   12  C9  UNL     1      24.603   2.698  52.163  1.00  0.00    -0.065 C 
HETATM   13  C10 UNL     1      25.587   2.464  51.347  1.00  0.00    -0.018 C 
HETATM   14  C11 UNL     1      26.371   3.111  50.262  1.00  0.00     0.057 C 
HETATM   15  C12 UNL     1      25.497   3.812  49.314  1.00  0.00     0.009 C 
HETATM   16  C13 UNL     1      24.270   4.214  49.539  1.00  0.00     0.040 C 
HETATM   17  C14 UNL     1      23.348   4.154  50.670  1.00  0.00     0.068 C 
HETATM   18  C15 UNL     1      23.978   4.082  52.022  1.00  0.00     0.042 C 
BRANCH  16  19
HETATM   19  O1  UNL     1      23.737   4.852  48.401  1.00  0.00    -0.365 OA
HETATM   20  H15 UNL     1      22.791   4.645  48.059  1.00  0.00     0.217 HD
ENDBRANCH  16  19
ENDBRANCH  11  12
ENDBRANCH   1  11
BRANCH   1  21
HETATM   21  C16 UNL     1      24.257  -0.525  53.705  1.00  0.00     0.164 C 
BRANCH  21  22
HETATM   22  C17 UNL     1      25.705  -0.423  53.814  1.00  0.00    -0.040 A 
HETATM   23  C18 UNL     1      26.483   0.167  54.784  1.00  0.00     0.012 A 
HETATM   24  C19 UNL     1      27.855   0.190  54.850  1.00  0.00     0.043 A 
HETATM   25  C20 UNL     1      28.575  -0.433  53.855  1.00  0.00     0.116 A 
HETATM   26  F1  UNL     1      29.927  -0.418  53.907  1.00  0.00    -0.206 F 
HETATM   27  C21 UNL     1      27.884  -1.046  52.847  1.00  0.00     0.043 A 
HETATM   28  C22 UNL     1      26.490  -1.031  52.844  1.00  0.00     0.012 A 
ENDBRANCH  21  22
ENDBRANCH   1  21
TORSDOF 7
ENDMDL
MODEL 8
REMARK VINA RESULT:      -8.4      1.236      1.900
REMARK  7 active torsions:
REMARK  status: ('A' for Active; 'I' for Inactive)
REMARK    1  A    between atoms: N1_7  and  C7_8 
REMARK    2  A    between atoms: C7_8  and  N2_10 
REMARK    3  A    between atoms: N2_10  and  C8_11 
REMARK    4  A    between atoms: N2_10  and  C16_20 
REMARK    5  A    between atoms: C8_11  and  C9_12 
REMARK    6  A    between atoms: C13_16  and  O1_17 
REMARK    7  A    between atoms: C16_20  and  C17_21 
ROOT
HETATM    1  N2  UNL     1      24.186   2.517  51.536  1.00  0.00    -0.350 N 
ENDROOT
BRANCH   1   2
HETATM    2  C7  UNL     1      24.010   3.884  51.085  1.00  0.00     0.177 C 
HETATM    3  S1  UNL     1      23.474   4.746  52.377  1.00  0.00    -0.040 SA
BRANCH   2   4
HETATM    4  N1  UNL     1      24.119   4.772  50.009  1.00  0.00    -0.326 N 
HETATM    5  C2  UNL     1      25.387   5.455  49.795  1.00  0.00     0.110 A 
HETATM    6  C1  UNL     1      26.467   4.413  49.474  1.00  0.00     0.037 C 
HETATM    7  C3  UNL     1      25.364   6.405  48.684  1.00  0.00    -0.002 A 
HETATM    8  C4  UNL     1      24.408   6.717  47.844  1.00  0.00    -0.001 A 
HETATM    9  C5  UNL     1      23.165   5.996  48.064  1.00  0.00     0.017 A 
HETATM   10  C6  UNL     1      23.139   5.141  49.064  1.00  0.00     0.094 A 
ENDBRANCH   2   4
ENDBRANCH   1   2
BRANCH   1  11
HETATM   11  C8  UNL     1      23.148   2.275  52.494  1.00  0.00     0.159 C 
BRANCH  11  12
HETATM   12  C9  UNL     1      22.697   0.968  52.887  1.00  0.00    -0.065 C 
HETATM   13  C10 UNL     1      22.945   0.082  53.803  1.00  0.00    -0.018 C 
HETATM   14  C11 UNL     1      22.519  -1.269  54.254  1.00  0.00     0.057 C 
HETATM   15  C12 UNL     1      21.057  -1.398  54.255  1.00  0.00     0.009 C 
HETATM   16  C13 UNL     1      20.212  -0.655  53.584  1.00  0.00     0.040 C 
HETATM   17  C14 UNL     1      20.323   0.475  52.665  1.00  0.00     0.068 C 
HETATM   18  C15 UNL     1      21.603   0.571  51.901  1.00  0.00     0.042 C 
BRANCH  16  19
HETATM   19  O1  UNL     1      18.885  -1.066  53.824  1.00  0.00    -0.365 OA
HETATM   20  H15 UNL     1      18.572  -2.023  53.626  1.00  0.00     0.217 HD
ENDBRANCH  16  19
ENDBRANCH  11  12
ENDBRANCH   1  11
BRANCH   1  21
HETATM   21  C16 UNL     1      25.252   1.666  51.049  1.00  0.00     0.164 C 
BRANCH  21  22
HETATM   22  C17 UNL     1      26.288   1.288  52.000  1.00  0.00    -0.040 A 
HETATM   23  C18 UNL     1      27.162   2.071  52.717  1.00  0.00     0.012 A 
HETATM   24  C19 UNL     1      28.093   1.651  53.637  1.00  0.00     0.043 A 
HETATM   25  C20 UNL     1      28.199   0.303  53.902  1.00  0.00     0.116 A 
HETATM   26  F1  UNL     1      29.111  -0.124  54.805  1.00  0.00    -0.206 F 
HETATM   27  C21 UNL     1      27.369  -0.552  53.232  1.00  0.00     0.043 A 
HETATM   28  C22 UNL     1      26.447  -0.056  52.312  1.00  0.00     0.012 A 
ENDBRANCH  21  22
ENDBRANCH   1  21
TORSDOF 7
ENDMDL
MODEL 9
REMARK VINA RESULT:      -8.3      3.040      5.602
REMARK  7 active torsions:
REMARK  status: ('A' for Active; 'I' for Inactive)
REMARK    1  A    between atoms: N1_7  and  C7_8 
REMARK    2  A    between atoms: C7_8  and  N2_10 
REMARK    3  A    between atoms: N2_10  and  C8_11 
REMARK    4  A    between atoms: N2_10  and  C16_20 
REMARK    5  A    between atoms: C8_11  and  C9_12 
REMARK    6  A    between atoms: C13_16  and  O1_17 
REMARK    7  A    between atoms: C16_20  and  C17_21 
ROOT
HETATM    1  N2  UNL     1      23.595   1.199  53.169  1.00  0.00    -0.350 N 
ENDROOT
BRANCH   1   2
HETATM    2  C7  UNL     1      22.210   1.411  52.796  1.00  0.00     0.177 C 
HETATM    3  S1  UNL     1      21.303   0.437  53.760  1.00  0.00    -0.040 SA
BRANCH   2   4
HETATM    4  N1  UNL     1      21.328   2.109  51.964  1.00  0.00    -0.326 N 
HETATM    5  C2  UNL     1      21.493   1.994  50.522  1.00  0.00     0.110 A 
HETATM    6  C1  UNL     1      21.254   0.535  50.107  1.00  0.00     0.037 C 
HETATM    7  C3  UNL     1      20.558   2.816  49.755  1.00  0.00    -0.002 A 
HETATM    8  C4  UNL     1      19.591   3.608  50.150  1.00  0.00    -0.001 A 
HETATM    9  C5  UNL     1      19.431   3.677  51.593  1.00  0.00     0.017 A 
HETATM   10  C6  UNL     1      20.262   2.962  52.320  1.00  0.00     0.094 A 
ENDBRANCH   2   4
ENDBRANCH   1   2
BRANCH   1  11
HETATM   11  C8  UNL     1      24.238   2.475  53.059  1.00  0.00     0.159 C 
BRANCH  11  12
HETATM   12  C9  UNL     1      24.419   3.186  51.822  1.00  0.00    -0.065 C 
HETATM   13  C10 UNL     1      24.088   4.324  51.291  1.00  0.00    -0.018 C 
HETATM   14  C11 UNL     1      24.242   5.104  50.035  1.00  0.00     0.057 C 
HETATM   15  C12 UNL     1      25.622   5.055  49.538  1.00  0.00     0.009 C 
HETATM   16  C13 UNL     1      26.526   4.157  49.844  1.00  0.00     0.040 C 
HETATM   17  C14 UNL     1      26.566   2.970  50.695  1.00  0.00     0.068 C 
HETATM   18  C15 UNL     1      25.257   2.285  50.921  1.00  0.00     0.042 C 
BRANCH  16  19
HETATM   19  O1  UNL     1      27.740   4.423  49.180  1.00  0.00    -0.365 OA
HETATM   20  H15 UNL     1      28.581   3.858  49.346  1.00  0.00     0.217 HD
ENDBRANCH  16  19
ENDBRANCH  11  12
ENDBRANCH   1  11
BRANCH   1  21
HETATM   21  C16 UNL     1      24.112  -0.101  53.545  1.00  0.00     0.164 C 
BRANCH  21  22
HETATM   22  C17 UNL     1      25.560  -0.252  53.595  1.00  0.00    -0.040 A 
HETATM   23  C18 UNL     1      26.428  -0.791  52.675  1.00  0.00     0.012 A 
HETATM   24  C19 UNL     1      27.798  -0.864  52.765  1.00  0.00     0.043 A 
HETATM   25  C20 UNL     1      28.413  -0.353  53.886  1.00  0.00     0.116 A 
HETATM   26  F1  UNL     1      29.761  -0.418  53.989  1.00  0.00    -0.206 F 
HETATM   27  C21 UNL     1      27.627   0.203  54.856  1.00  0.00     0.043 A 
HETATM   28  C22 UNL     1      26.243   0.244  54.698  1.00  0.00     0.012 A 
ENDBRANCH  21  22
ENDBRANCH   1  21
TORSDOF 7
ENDMDL
