MODEL 1
REMARK VINA RESULT:     -10.1      0.000      0.000
REMARK  6 active torsions:
REMARK  status: ('A' for Active; 'I' for Inactive)
REMARK    1  A    between atoms: C7_11  and  C8_12 
REMARK    2  A    between atoms: C8_12  and  C9_13 
REMARK    3  A    between atoms: N3_23  and  C18_24 
REMARK    4  A    between atoms: C18_24  and  C19_25 
REMARK    5  A    between atoms: C19_25  and  C20_26 
REMARK    6  A    between atoms: C20_26  and  N4_27 
ROOT
HETATM    1  O1  UNL     1      18.697   0.990  49.984  1.00  0.00    -0.271 OA
HETATM    2  C1  UNL     1      19.368   0.569  50.961  1.00  0.00     0.248 A 
HETATM    3  C2  UNL     1      18.460   0.086  52.032  1.00  0.00     0.279 A 
HETATM    4  O2  UNL     1      19.154  -0.359  53.167  1.00  0.00    -0.340 OA
HETATM    5  C3  UNL     1      20.544  -0.388  53.272  1.00  0.00     0.098 A 
HETATM    6  C4  UNL     1      21.106  -0.871  54.432  1.00  0.00     0.071 A 
HETATM    7  C5  UNL     1      22.478  -0.902  54.537  1.00  0.00     0.073 A 
HETATM    8  N1  UNL     1      23.076  -1.359  55.664  1.00  0.00    -0.241 NA
HETATM    9  C6  UNL     1      24.417  -1.360  55.721  1.00  0.00     0.234 A 
HETATM   10  N2  UNL     1      25.197  -0.931  54.718  1.00  0.00    -0.245 NA
HETATM   11  C7  UNL     1      24.636  -0.463  53.565  1.00  0.00     0.052 A 
HETATM   12  C15 UNL     1      23.265  -0.459  53.501  1.00  0.00     0.020 A 
HETATM   13  C16 UNL     1      22.702   0.024  52.346  1.00  0.00     0.048 A 
HETATM   14  C17 UNL     1      21.331   0.057  52.237  1.00  0.00     0.071 A 
HETATM   15  N3  UNL     1      20.810   0.566  51.015  1.00  0.00    -0.314 N 
ENDROOT
BRANCH  15  16
HETATM   16  C18 UNL     1      21.486   1.058  49.870  1.00  0.00     0.134 C 
BRANCH  16  17
HETATM   17  C19 UNL     1      22.148   2.385  49.972  1.00  0.00     0.040 C 
BRANCH  17  18
HETATM   18  C20 UNL     1      22.824   2.902  48.749  1.00  0.00     0.118 C 
BRANCH  18  19
HETATM   19  N4  UNL     1      24.081   3.463  49.118  1.00  0.00    -0.412 N 
HETATM   20  C21 UNL     1      24.238   4.864  48.955  1.00  0.00     0.117 C 
HETATM   21  C22 UNL     1      25.659   5.330  49.174  1.00  0.00     0.019 C 
HETATM   22  C23 UNL     1      26.654   4.220  49.279  1.00  0.00     0.003 C 
HETATM   23  C24 UNL     1      26.239   3.151  50.236  1.00  0.00     0.019 C 
HETATM   24  C25 UNL     1      24.769   2.848  50.191  1.00  0.00     0.117 C 
ENDBRANCH  18  19
ENDBRANCH  17  18
ENDBRANCH  16  17
ENDBRANCH  15  16
BRANCH  11  25
HETATM   25  C8  UNL     1      25.615  -0.053  52.529  1.00  0.00     0.099 C 
BRANCH  25  26
HETATM   26  C9  UNL     1      26.812   0.604  53.094  1.00  0.00    -0.051 A 
HETATM   27  C10 UNL     1      27.119   1.863  53.506  1.00  0.00     0.007 A 
HETATM   28  C11 UNL     1      28.328   2.283  54.003  1.00  0.00     0.002 A 
HETATM   29  C12 UNL     1      29.320   1.299  54.082  1.00  0.00     0.024 A 
HETATM   30  C13 UNL     1      29.102   0.003  53.690  1.00  0.00     0.034 A 
HETATM   31 CL1  UNL     1      30.440  -1.081  53.858  1.00  0.00    -0.084 Cl
HETATM   32  C14 UNL     1      27.844  -0.336  53.197  1.00  0.00     0.031 A 
ENDBRANCH  25  26
ENDBRANCH  11  25
TORSDOF 6
ENDMDL
MODEL 2
REMARK VINA RESULT:      -9.9      3.315      5.969
REMARK  6 active torsions:
REMARK  status: ('A' for Active; 'I' for Inactive)
REMARK    1  A    between atoms: C7_11  and  C8_12 
REMARK    2  A    between atoms: C8_12  and  C9_13 
REMARK    3  A    between atoms: N3_23  and  C18_24 
REMARK    4  A    between atoms: C18_24  and  C19_25 
REMARK    5  A    between atoms: C19_25  and  C20_26 
REMARK    6  A    between atoms: C20_26  and  N4_27 
ROOT
HETATM    1  O1  UNL     1      29.000   1.280  53.012  1.00  0.00    -0.271 OA
HETATM    2  C1  UNL     1      27.927   0.797  53.455  1.00  0.00     0.248 A 
HETATM    3  C2  UNL     1      28.147   0.222  54.806  1.00  0.00     0.279 A 
HETATM    4  O2  UNL     1      26.990  -0.370  55.335  1.00  0.00    -0.340 OA
HETATM    5  C3  UNL     1      25.755  -0.385  54.690  1.00  0.00     0.098 A 
HETATM    6  C4  UNL     1      24.687  -0.978  55.326  1.00  0.00     0.071 A 
HETATM    7  C5  UNL     1      23.467  -0.992  54.690  1.00  0.00     0.073 A 
HETATM    8  N1  UNL     1      22.390  -1.573  55.273  1.00  0.00    -0.241 NA
HETATM    9  C6  UNL     1      21.223  -1.570  54.609  1.00  0.00     0.234 A 
HETATM   10  N2  UNL     1      21.068  -1.020  53.396  1.00  0.00    -0.245 NA
HETATM   11  C7  UNL     1      22.126  -0.423  52.774  1.00  0.00     0.052 A 
HETATM   12  C15 UNL     1      23.322  -0.424  53.448  1.00  0.00     0.020 A 
HETATM   13  C16 UNL     1      24.389   0.165  52.815  1.00  0.00     0.048 A 
HETATM   14  C17 UNL     1      25.610   0.181  53.445  1.00  0.00     0.071 A 
HETATM   15  N3  UNL     1      26.675   0.808  52.739  1.00  0.00    -0.314 N 
ENDROOT
BRANCH  15  16
HETATM   16  C18 UNL     1      26.682   1.427  51.463  1.00  0.00     0.134 C 
BRANCH  16  17
HETATM   17  C19 UNL     1      26.339   2.871  51.390  1.00  0.00     0.040 C 
BRANCH  17  18
HETATM   18  C20 UNL     1      25.309   3.274  50.392  1.00  0.00     0.118 C 
BRANCH  18  19
HETATM   19  N4  UNL     1      25.793   4.391  49.653  1.00  0.00    -0.412 N 
HETATM   20  C21 UNL     1      27.074   4.267  49.055  1.00  0.00     0.117 C 
HETATM   21  C22 UNL     1      27.586   5.565  48.474  1.00  0.00     0.019 C 
HETATM   22  C23 UNL     1      26.770   6.761  48.845  1.00  0.00     0.003 C 
HETATM   23  C24 UNL     1      25.307   6.562  48.626  1.00  0.00     0.019 C 
HETATM   24  C25 UNL     1      24.831   5.183  48.981  1.00  0.00     0.117 C 
ENDBRANCH  18  19
ENDBRANCH  17  18
ENDBRANCH  16  17
ENDBRANCH  15  16
BRANCH  11  25
HETATM   25  C8  UNL     1      21.806   0.173  51.454  1.00  0.00     0.099 C 
BRANCH  25  26
HETATM   26  C9  UNL     1      21.017   1.419  51.560  1.00  0.00    -0.051 A 
HETATM   27  C10 UNL     1      19.693   1.722  51.607  1.00  0.00     0.007 A 
HETATM   28  C11 UNL     1      19.150   2.980  51.696  1.00  0.00     0.002 A 
HETATM   29  C12 UNL     1      20.073   4.031  51.741  1.00  0.00     0.024 A 
HETATM   30  C13 UNL     1      21.428   3.821  51.699  1.00  0.00     0.034 A 
HETATM   31 CL1  UNL     1      22.423   5.235  51.766  1.00  0.00    -0.084 Cl
HETATM   32  C14 UNL     1      21.892   2.510  51.608  1.00  0.00     0.031 A 
ENDBRANCH  25  26
ENDBRANCH  11  25
TORSDOF 6
ENDMDL
MODEL 3
REMARK VINA RESULT:      -9.7      3.760      6.362
REMARK  6 active torsions:
REMARK  status: ('A' for Active; 'I' for Inactive)
REMARK    1  A    between atoms: C7_11  and  C8_12 
REMARK    2  A    between atoms: C8_12  and  C9_13 
REMARK    3  A    between atoms: N3_23  and  C18_24 
REMARK    4  A    between atoms: C18_24  and  C19_25 
REMARK    5  A    between atoms: C19_25  and  C20_26 
REMARK    6  A    between atoms: C20_26  and  N4_27 
ROOT
HETATM    1  O1  UNL     1      29.058   1.237  53.059  1.00  0.00    -0.271 OA
HETATM    2  C1  UNL     1      27.969   0.773  53.484  1.00  0.00     0.248 A 
HETATM    3  C2  UNL     1      28.152   0.210  54.845  1.00  0.00     0.279 A 
HETATM    4  O2  UNL     1      26.976  -0.358  55.356  1.00  0.00    -0.340 OA
HETATM    5  C3  UNL     1      25.754  -0.363  54.685  1.00  0.00     0.098 A 
HETATM    6  C4  UNL     1      24.665  -0.933  55.305  1.00  0.00     0.071 A 
HETATM    7  C5  UNL     1      23.458  -0.937  54.644  1.00  0.00     0.073 A 
HETATM    8  N1  UNL     1      22.361  -1.497  55.210  1.00  0.00    -0.241 NA
HETATM    9  C6  UNL     1      21.208  -1.484  54.521  1.00  0.00     0.234 A 
HETATM   10  N2  UNL     1      21.087  -0.945  53.300  1.00  0.00    -0.245 NA
HETATM   11  C7  UNL     1      22.166  -0.370  52.693  1.00  0.00     0.052 A 
HETATM   12  C15 UNL     1      23.348  -0.381  53.392  1.00  0.00     0.020 A 
HETATM   13  C16 UNL     1      24.436   0.186  52.776  1.00  0.00     0.048 A 
HETATM   14  C17 UNL     1      25.644   0.191  53.432  1.00  0.00     0.071 A 
HETATM   15  N3  UNL     1      26.732   0.795  52.741  1.00  0.00    -0.314 N 
ENDROOT
BRANCH  15  16
HETATM   16  C18 UNL     1      26.775   1.399  51.459  1.00  0.00     0.134 C 
BRANCH  16  17
HETATM   17  C19 UNL     1      26.339   2.815  51.345  1.00  0.00     0.040 C 
BRANCH  17  18
HETATM   18  C20 UNL     1      25.516   3.178  50.157  1.00  0.00     0.118 C 
BRANCH  18  19
HETATM   19  N4  UNL     1      24.349   3.867  50.596  1.00  0.00    -0.412 N 
HETATM   20  C21 UNL     1      23.301   4.035  49.654  1.00  0.00     0.117 C 
HETATM   21  C22 UNL     1      22.204   4.951  50.144  1.00  0.00     0.019 C 
HETATM   22  C23 UNL     1      22.540   5.683  51.403  1.00  0.00     0.003 C 
HETATM   23  C24 UNL     1      23.074   4.791  52.474  1.00  0.00     0.019 C 
HETATM   24  C25 UNL     1      23.988   3.717  51.956  1.00  0.00     0.117 C 
ENDBRANCH  18  19
ENDBRANCH  17  18
ENDBRANCH  16  17
ENDBRANCH  15  16
BRANCH  11  25
HETATM   25  C8  UNL     1      21.882   0.215  51.361  1.00  0.00     0.099 C 
BRANCH  25  26
HETATM   26  C9  UNL     1      20.947   1.359  51.421  1.00  0.00    -0.051 A 
HETATM   27  C10 UNL     1      20.550   2.231  52.385  1.00  0.00     0.007 A 
HETATM   28  C11 UNL     1      19.635   3.244  52.237  1.00  0.00     0.002 A 
HETATM   29  C12 UNL     1      19.076   3.366  50.960  1.00  0.00     0.024 A 
HETATM   30  C13 UNL     1      19.416   2.534  49.925  1.00  0.00     0.034 A 
HETATM   31 CL1  UNL     1      18.628   2.829  48.414  1.00  0.00    -0.084 Cl
HETATM   32  C14 UNL     1      20.354   1.531  50.165  1.00  0.00     0.031 A 
ENDBRANCH  25  26
ENDBRANCH  11  25
TORSDOF 6
ENDMDL
MODEL 4
REMARK VINA RESULT:      -9.5      2.816      5.179
REMARK  6 active torsions:
REMARK  status: ('A' for Active; 'I' for Inactive)
REMARK    1  A    between atoms: C7_11  and  C8_12 
REMARK    2  A    between atoms: C8_12  and  C9_13 
REMARK    3  A    between atoms: N3_23  and  C18_24 
REMARK    4  A    between atoms: C18_24  and  C19_25 
REMARK    5  A    between atoms: C19_25  and  C20_26 
REMARK    6  A    between atoms: C20_26  and  N4_27 
ROOT
HETATM    1  O1  UNL     1      21.193  -1.803  54.298  1.00  0.00    -0.271 OA
HETATM    2  C1  UNL     1      22.356  -1.328  54.353  1.00  0.00     0.248 A 
HETATM    3  C2  UNL     1      23.029  -1.773  55.599  1.00  0.00     0.279 A 
HETATM    4  O2  UNL     1      24.320  -1.240  55.734  1.00  0.00    -0.340 OA
HETATM    5  C3  UNL     1      24.928  -0.414  54.790  1.00  0.00     0.098 A 
HETATM    6  C4  UNL     1      26.210   0.027  55.029  1.00  0.00     0.071 A 
HETATM    7  C5  UNL     1      26.812   0.840  54.096  1.00  0.00     0.073 A 
HETATM    8  N1  UNL     1      28.069   1.307  54.294  1.00  0.00    -0.241 NA
HETATM    9  C6  UNL     1      28.609   2.105  53.359  1.00  0.00     0.234 A 
HETATM   10  N2  UNL     1      27.967   2.465  52.238  1.00  0.00    -0.245 NA
HETATM   11  C7  UNL     1      26.700   2.018  52.000  1.00  0.00     0.052 A 
HETATM   12  C15 UNL     1      26.142   1.201  52.952  1.00  0.00     0.020 A 
HETATM   13  C16 UNL     1      24.863   0.762  52.717  1.00  0.00     0.048 A 
HETATM   14  C17 UNL     1      24.257  -0.051  53.646  1.00  0.00     0.071 A 
HETATM   15  N3  UNL     1      22.933  -0.474  53.343  1.00  0.00    -0.314 N 
ENDROOT
BRANCH  15  16
HETATM   16  C18 UNL     1      22.118  -0.185  52.219  1.00  0.00     0.134 C 
BRANCH  16  17
HETATM   17  C19 UNL     1      21.371   1.100  52.216  1.00  0.00     0.040 C 
BRANCH  17  18
HETATM   18  C20 UNL     1      20.371   1.300  51.130  1.00  0.00     0.118 C 
BRANCH  18  19
HETATM   19  N4  UNL     1      21.008   1.936  50.026  1.00  0.00    -0.412 N 
HETATM   20  C21 UNL     1      21.387   1.113  48.934  1.00  0.00     0.117 C 
HETATM   21  C22 UNL     1      22.235   1.836  47.912  1.00  0.00     0.019 C 
HETATM   22  C23 UNL     1      22.706   3.182  48.356  1.00  0.00     0.003 C 
HETATM   23  C24 UNL     1      21.610   4.033  48.909  1.00  0.00     0.019 C 
HETATM   24  C25 UNL     1      20.620   3.266  49.738  1.00  0.00     0.117 C 
ENDBRANCH  18  19
ENDBRANCH  17  18
ENDBRANCH  16  17
ENDBRANCH  15  16
BRANCH  11  25
HETATM   25  C8  UNL     1      26.124   2.466  50.709  1.00  0.00     0.099 C 
BRANCH  25  26
HETATM   26  C9  UNL     1      25.340   3.714  50.830  1.00  0.00    -0.051 A 
HETATM   27  C10 UNL     1      24.328   4.144  51.628  1.00  0.00     0.007 A 
HETATM   28  C11 UNL     1      23.712   5.370  51.569  1.00  0.00     0.002 A 
HETATM   29  C12 UNL     1      24.195   6.238  50.583  1.00  0.00     0.024 A 
HETATM   30  C13 UNL     1      25.213   5.892  49.733  1.00  0.00     0.034 A 
HETATM   31 CL1  UNL     1      25.685   7.088  48.577  1.00  0.00    -0.084 Cl
HETATM   32  C14 UNL     1      25.781   4.625  49.863  1.00  0.00     0.031 A 
ENDBRANCH  25  26
ENDBRANCH  11  25
TORSDOF 6
ENDMDL
MODEL 5
REMARK VINA RESULT:      -9.5      2.371      5.989
REMARK  6 active torsions:
REMARK  status: ('A' for Active; 'I' for Inactive)
REMARK    1  A    between atoms: C7_11  and  C8_12 
REMARK    2  A    between atoms: C8_12  and  C9_13 
REMARK    3  A    between atoms: N3_23  and  C18_24 
REMARK    4  A    between atoms: C18_24  and  C19_25 
REMARK    5  A    between atoms: C19_25  and  C20_26 
REMARK    6  A    between atoms: C20_26  and  N4_27 
ROOT
HETATM    1  O1  UNL     1      22.443  -1.535  55.318  1.00  0.00    -0.271 OA
HETATM    2  C1  UNL     1      22.038  -0.927  54.295  1.00  0.00     0.248 A 
HETATM    3  C2  UNL     1      20.590  -1.180  54.092  1.00  0.00     0.279 A 
HETATM    4  O2  UNL     1      20.090  -0.557  52.939  1.00  0.00    -0.340 OA
HETATM    5  C3  UNL     1      20.852   0.248  52.093  1.00  0.00     0.098 A 
HETATM    6  C4  UNL     1      20.238   0.824  51.003  1.00  0.00     0.071 A 
HETATM    7  C5  UNL     1      20.988   1.619  50.168  1.00  0.00     0.073 A 
HETATM    8  N1  UNL     1      20.429   2.199  49.077  1.00  0.00    -0.241 NA
HETATM    9  C6  UNL     1      21.205   2.959  48.288  1.00  0.00     0.234 A 
HETATM   10  N2  UNL     1      22.507   3.175  48.524  1.00  0.00    -0.245 NA
HETATM   11  C7  UNL     1      23.110   2.611  49.611  1.00  0.00     0.052 A 
HETATM   12  C15 UNL     1      22.321   1.832  50.422  1.00  0.00     0.020 A 
HETATM   13  C16 UNL     1      22.932   1.256  51.508  1.00  0.00     0.048 A 
HETATM   14  C17 UNL     1      22.186   0.459  52.345  1.00  0.00     0.071 A 
HETATM   15  N3  UNL     1      22.876  -0.107  53.454  1.00  0.00    -0.314 N 
ENDROOT
BRANCH  15  16
HETATM   16  C18 UNL     1      24.235   0.015  53.841  1.00  0.00     0.134 C 
BRANCH  16  17
HETATM   17  C19 UNL     1      25.249  -0.736  53.057  1.00  0.00     0.040 C 
BRANCH  17  18
HETATM   18  C20 UNL     1      26.233   0.066  52.276  1.00  0.00     0.118 C 
BRANCH  18  19
HETATM   19  N4  UNL     1      27.511  -0.036  52.897  1.00  0.00    -0.412 N 
HETATM   20  C21 UNL     1      27.899   1.023  53.759  1.00  0.00     0.117 C 
HETATM   21  C22 UNL     1      29.341   0.928  54.202  1.00  0.00     0.019 C 
HETATM   22  C23 UNL     1      30.135  -0.106  53.472  1.00  0.00     0.003 C 
HETATM   23  C24 UNL     1      29.455  -1.434  53.415  1.00  0.00     0.019 C 
HETATM   24  C25 UNL     1      27.970  -1.337  53.212  1.00  0.00     0.117 C 
ENDBRANCH  18  19
ENDBRANCH  17  18
ENDBRANCH  16  17
ENDBRANCH  15  16
BRANCH  11  25
HETATM   25  C8  UNL     1      24.542   2.960  49.768  1.00  0.00     0.099 C 
BRANCH  25  26
HETATM   26  C9  UNL     1      24.760   4.400  50.026  1.00  0.00    -0.051 A 
HETATM   27  C10 UNL     1      24.191   5.332  50.834  1.00  0.00     0.007 A 
HETATM   28  C11 UNL     1      24.541   6.658  50.918  1.00  0.00     0.002 A 
HETATM   29  C12 UNL     1      25.589   7.056  50.080  1.00  0.00     0.024 A 
HETATM   30  C13 UNL     1      26.224   6.185  49.233  1.00  0.00     0.034 A 
HETATM   31 CL1  UNL     1      27.499   6.848  48.270  1.00  0.00    -0.084 Cl
HETATM   32  C14 UNL     1      25.803   4.857  49.212  1.00  0.00     0.031 A 
ENDBRANCH  25  26
ENDBRANCH  11  25
TORSDOF 6
ENDMDL
MODEL 6
REMARK VINA RESULT:      -9.5      3.349      6.011
REMARK  6 active torsions:
REMARK  status: ('A' for Active; 'I' for Inactive)
REMARK    1  A    between atoms: C7_11  and  C8_12 
REMARK    2  A    between atoms: C8_12  and  C9_13 
REMARK    3  A    between atoms: N3_23  and  C18_24 
REMARK    4  A    between atoms: C18_24  and  C19_25 
REMARK    5  A    between atoms: C19_25  and  C20_26 
REMARK    6  A    between atoms: C20_26  and  N4_27 
ROOT
HETATM    1  O1  UNL     1      28.730   1.289  52.962  1.00  0.00    -0.271 OA
HETATM    2  C1  UNL     1      27.561   0.898  53.214  1.00  0.00     0.248 A 
HETATM    3  C2  UNL     1      27.604  -0.313  54.072  1.00  0.00     0.279 A 
HETATM    4  O2  UNL     1      26.326  -0.819  54.352  1.00  0.00    -0.340 OA
HETATM    5  C3  UNL     1      25.139  -0.234  53.914  1.00  0.00     0.098 A 
HETATM    6  C4  UNL     1      23.945  -0.815  54.277  1.00  0.00     0.071 A 
HETATM    7  C5  UNL     1      22.773  -0.237  53.846  1.00  0.00     0.073 A 
HETATM    8  N1  UNL     1      21.574  -0.780  54.170  1.00  0.00    -0.241 NA
HETATM    9  C6  UNL     1      20.459  -0.184  53.718  1.00  0.00     0.234 A 
HETATM   10  N2  UNL     1      20.470   0.922  52.960  1.00  0.00    -0.245 NA
HETATM   11  C7  UNL     1      21.656   1.501  52.611  1.00  0.00     0.052 A 
HETATM   12  C15 UNL     1      22.800   0.896  53.070  1.00  0.00     0.020 A 
HETATM   13  C16 UNL     1      23.992   1.473  52.708  1.00  0.00     0.048 A 
HETATM   14  C17 UNL     1      25.166   0.899  53.135  1.00  0.00     0.071 A 
HETATM   15  N3  UNL     1      26.367   1.545  52.729  1.00  0.00    -0.314 N 
ENDROOT
BRANCH  15  16
HETATM   16  C18 UNL     1      26.554   2.705  51.934  1.00  0.00     0.134 C 
BRANCH  16  17
HETATM   17  C19 UNL     1      26.571   2.538  50.458  1.00  0.00     0.040 C 
BRANCH  17  18
HETATM   18  C20 UNL     1      25.533   3.273  49.681  1.00  0.00     0.118 C 
BRANCH  18  19
HETATM   19  N4  UNL     1      26.032   4.566  49.349  1.00  0.00    -0.412 N 
HETATM   20  C21 UNL     1      25.454   5.675  50.020  1.00  0.00     0.117 C 
HETATM   21  C22 UNL     1      25.898   7.006  49.456  1.00  0.00     0.019 C 
HETATM   22  C23 UNL     1      26.654   6.900  48.172  1.00  0.00     0.003 C 
HETATM   23  C24 UNL     1      27.756   5.893  48.222  1.00  0.00     0.019 C 
HETATM   24  C25 UNL     1      27.399   4.655  48.994  1.00  0.00     0.117 C 
ENDBRANCH  18  19
ENDBRANCH  17  18
ENDBRANCH  16  17
ENDBRANCH  15  16
BRANCH  11  25
HETATM   25  C8  UNL     1      21.520   2.736  51.800  1.00  0.00     0.099 C 
BRANCH  25  26
HETATM   26  C9  UNL     1      21.725   2.501  50.355  1.00  0.00    -0.051 A 
HETATM   27  C10 UNL     1      21.712   1.412  49.542  1.00  0.00     0.007 A 
HETATM   28  C11 UNL     1      21.945   1.404  48.189  1.00  0.00     0.002 A 
HETATM   29  C12 UNL     1      22.220   2.654  47.620  1.00  0.00     0.024 A 
HETATM   30  C13 UNL     1      22.253   3.807  48.360  1.00  0.00     0.034 A 
HETATM   31 CL1  UNL     1      22.607   5.262  47.494  1.00  0.00    -0.084 Cl
HETATM   32  C14 UNL     1      22.005   3.722  49.729  1.00  0.00     0.031 A 
ENDBRANCH  25  26
ENDBRANCH  11  25
TORSDOF 6
ENDMDL
MODEL 7
REMARK VINA RESULT:      -9.3      1.369      1.770
REMARK  6 active torsions:
REMARK  status: ('A' for Active; 'I' for Inactive)
REMARK    1  A    between atoms: C7_11  and  C8_12 
REMARK    2  A    between atoms: C8_12  and  C9_13 
REMARK    3  A    between atoms: N3_23  and  C18_24 
REMARK    4  A    between atoms: C18_24  and  C19_25 
REMARK    5  A    between atoms: C19_25  and  C20_26 
REMARK    6  A    between atoms: C20_26  and  N4_27 
ROOT
HETATM    1  O1  UNL     1      18.624   0.622  50.091  1.00  0.00    -0.271 OA
HETATM    2  C1  UNL     1      19.320   0.265  51.076  1.00  0.00     0.248 A 
HETATM    3  C2  UNL     1      18.440  -0.160  52.194  1.00  0.00     0.279 A 
HETATM    4  O2  UNL     1      19.163  -0.532  53.337  1.00  0.00    -0.340 OA
HETATM    5  C3  UNL     1      20.555  -0.545  53.412  1.00  0.00     0.098 A 
HETATM    6  C4  UNL     1      21.147  -0.954  54.586  1.00  0.00     0.071 A 
HETATM    7  C5  UNL     1      22.521  -0.968  54.661  1.00  0.00     0.073 A 
HETATM    8  N1  UNL     1      23.148  -1.353  55.799  1.00  0.00    -0.241 NA
HETATM    9  C6  UNL     1      24.490  -1.341  55.825  1.00  0.00     0.234 A 
HETATM   10  N2  UNL     1      25.244  -0.967  54.782  1.00  0.00    -0.245 NA
HETATM   11  C7  UNL     1      24.653  -0.573  53.616  1.00  0.00     0.052 A 
HETATM   12  C15 UNL     1      23.281  -0.582  53.583  1.00  0.00     0.020 A 
HETATM   13  C16 UNL     1      22.688  -0.173  52.414  1.00  0.00     0.048 A 
HETATM   14  C17 UNL     1      21.316  -0.156  52.335  1.00  0.00     0.071 A 
HETATM   15  N3  UNL     1      20.762   0.275  51.097  1.00  0.00    -0.314 N 
ENDROOT
BRANCH  15  16
HETATM   16  C18 UNL     1      21.408   0.704  49.909  1.00  0.00     0.134 C 
BRANCH  16  17
HETATM   17  C19 UNL     1      22.187   1.968  49.961  1.00  0.00     0.040 C 
BRANCH  17  18
HETATM   18  C20 UNL     1      21.412   3.240  50.024  1.00  0.00     0.118 C 
BRANCH  18  19
HETATM   19  N4  UNL     1      22.319   4.328  50.174  1.00  0.00    -0.412 N 
HETATM   20  C21 UNL     1      22.594   5.107  49.020  1.00  0.00     0.117 C 
HETATM   21  C22 UNL     1      23.717   6.098  49.228  1.00  0.00     0.019 C 
HETATM   22  C23 UNL     1      24.469   5.906  50.504  1.00  0.00     0.003 C 
HETATM   23  C24 UNL     1      23.579   5.778  51.695  1.00  0.00     0.019 C 
HETATM   24  C25 UNL     1      22.331   4.987  51.427  1.00  0.00     0.117 C 
ENDBRANCH  18  19
ENDBRANCH  17  18
ENDBRANCH  16  17
ENDBRANCH  15  16
BRANCH  11  25
HETATM   25  C8  UNL     1      25.605  -0.218  52.535  1.00  0.00     0.099 C 
BRANCH  25  26
HETATM   26  C9  UNL     1      27.016  -0.446  52.912  1.00  0.00    -0.051 A 
HETATM   27  C10 UNL     1      27.859  -1.513  52.898  1.00  0.00     0.007 A 
HETATM   28  C11 UNL     1      29.168  -1.521  53.313  1.00  0.00     0.002 A 
HETATM   29  C12 UNL     1      29.652  -0.298  53.792  1.00  0.00     0.024 A 
HETATM   30  C13 UNL     1      28.877   0.831  53.843  1.00  0.00     0.034 A 
HETATM   31 CL1  UNL     1      29.639   2.256  54.462  1.00  0.00    -0.084 Cl
HETATM   32  C14 UNL     1      27.558   0.748  53.401  1.00  0.00     0.031 A 
ENDBRANCH  25  26
ENDBRANCH  11  25
TORSDOF 6
ENDMDL
MODEL 8
REMARK VINA RESULT:      -8.7      3.636      6.249
REMARK  6 active torsions:
REMARK  status: ('A' for Active; 'I' for Inactive)
REMARK    1  A    between atoms: C7_11  and  C8_12 
REMARK    2  A    between atoms: C8_12  and  C9_13 
REMARK    3  A    between atoms: N3_23  and  C18_24 
REMARK    4  A    between atoms: C18_24  and  C19_25 
REMARK    5  A    between atoms: C19_25  and  C20_26 
REMARK    6  A    between atoms: C20_26  and  N4_27 
ROOT
HETATM    1  O1  UNL     1      28.348   1.981  52.714  1.00  0.00    -0.271 OA
HETATM    2  C1  UNL     1      27.335   1.337  53.089  1.00  0.00     0.248 A 
HETATM    3  C2  UNL     1      27.752   0.127  53.841  1.00  0.00     0.279 A 
HETATM    4  O2  UNL     1      26.661  -0.654  54.251  1.00  0.00    -0.340 OA
HETATM    5  C3  UNL     1      25.328  -0.320  54.019  1.00  0.00     0.098 A 
HETATM    6  C4  UNL     1      24.346  -1.160  54.493  1.00  0.00     0.071 A 
HETATM    7  C5  UNL     1      23.030  -0.830  54.266  1.00  0.00     0.073 A 
HETATM    8  N1  UNL     1      22.029  -1.631  54.705  1.00  0.00    -0.241 NA
HETATM    9  C6  UNL     1      20.761  -1.271  54.450  1.00  0.00     0.234 A 
HETATM   10  N2  UNL     1      20.433  -0.156  53.782  1.00  0.00    -0.245 NA
HETATM   11  C7  UNL     1      21.409   0.680  53.322  1.00  0.00     0.052 A 
HETATM   12  C15 UNL     1      22.708   0.316  53.579  1.00  0.00     0.020 A 
HETATM   13  C16 UNL     1      23.689   1.152  53.106  1.00  0.00     0.048 A 
HETATM   14  C17 UNL     1      25.006   0.825  53.330  1.00  0.00     0.071 A 
HETATM   15  N3  UNL     1      25.975   1.732  52.816  1.00  0.00    -0.314 N 
ENDROOT
BRANCH  15  16
HETATM   16  C18 UNL     1      25.801   2.939  52.092  1.00  0.00     0.134 C 
BRANCH  16  17
HETATM   17  C19 UNL     1      25.585   2.843  50.625  1.00  0.00     0.040 C 
BRANCH  17  18
HETATM   18  C20 UNL     1      25.800   4.081  49.825  1.00  0.00     0.118 C 
BRANCH  18  19
HETATM   19  N4  UNL     1      24.604   4.856  49.842  1.00  0.00    -0.412 N 
HETATM   20  C21 UNL     1      24.605   6.035  50.632  1.00  0.00     0.117 C 
HETATM   21  C22 UNL     1      23.239   6.670  50.751  1.00  0.00     0.019 C 
HETATM   22  C23 UNL     1      22.126   5.822  50.228  1.00  0.00     0.003 C 
HETATM   23  C24 UNL     1      22.397   5.277  48.864  1.00  0.00     0.019 C 
HETATM   24  C25 UNL     1      23.825   4.861  48.660  1.00  0.00     0.117 C 
ENDBRANCH  18  19
ENDBRANCH  17  18
ENDBRANCH  16  17
ENDBRANCH  15  16
BRANCH  11  25
HETATM   25  C8  UNL     1      20.905   1.891  52.631  1.00  0.00     0.099 C 
BRANCH  25  26
HETATM   26  C9  UNL     1      20.910   1.759  51.158  1.00  0.00    -0.051 A 
HETATM   27  C10 UNL     1      21.554   0.963  50.263  1.00  0.00     0.007 A 
HETATM   28  C11 UNL     1      21.426   1.008  48.897  1.00  0.00     0.002 A 
HETATM   29  C12 UNL     1      20.541   1.977  48.408  1.00  0.00     0.024 A 
HETATM   30  C13 UNL     1      19.847   2.823  49.235  1.00  0.00     0.034 A 
HETATM   31 CL1  UNL     1      18.796   3.957  48.461  1.00  0.00    -0.084 Cl
HETATM   32  C14 UNL     1      20.039   2.707  50.611  1.00  0.00     0.031 A 
ENDBRANCH  25  26
ENDBRANCH  11  25
TORSDOF 6
ENDMDL
MODEL 9
REMARK VINA RESULT:      -8.6      2.756      4.931
REMARK  6 active torsions:
REMARK  status: ('A' for Active; 'I' for Inactive)
REMARK    1  A    between atoms: C7_11  and  C8_12 
REMARK    2  A    between atoms: C8_12  and  C9_13 
REMARK    3  A    between atoms: N3_23  and  C18_24 
REMARK    4  A    between atoms: C18_24  and  C19_25 
REMARK    5  A    between atoms: C19_25  and  C20_26 
REMARK    6  A    between atoms: C20_26  and  N4_27 
ROOT
HETATM    1  O1  UNL     1      19.388   0.190  51.989  1.00  0.00    -0.271 OA
HETATM    2  C1  UNL     1      20.606   0.336  52.267  1.00  0.00     0.248 A 
HETATM    3  C2  UNL     1      20.925  -0.361  53.538  1.00  0.00     0.279 A 
HETATM    4  O2  UNL     1      22.265  -0.198  53.920  1.00  0.00    -0.340 OA
HETATM    5  C3  UNL     1      23.211   0.505  53.174  1.00  0.00     0.098 A 
HETATM    6  C4  UNL     1      24.503   0.573  53.646  1.00  0.00     0.071 A 
HETATM    7  C5  UNL     1      25.437   1.265  52.910  1.00  0.00     0.073 A 
HETATM    8  N1  UNL     1      26.718   1.368  53.340  1.00  0.00    -0.241 NA
HETATM    9  C6  UNL     1      27.591   2.062  52.591  1.00  0.00     0.234 A 
HETATM   10  N2  UNL     1      27.259   2.660  51.438  1.00  0.00    -0.245 NA
HETATM   11  C7  UNL     1      25.980   2.580  50.968  1.00  0.00     0.052 A 
HETATM   12  C15 UNL     1      25.083   1.873  51.730  1.00  0.00     0.020 A 
HETATM   13  C16 UNL     1      23.794   1.804  51.262  1.00  0.00     0.048 A 
HETATM   14  C17 UNL     1      22.856   1.115  51.994  1.00  0.00     0.071 A 
HETATM   15  N3  UNL     1      21.540   1.079  51.456  1.00  0.00    -0.314 N 
ENDROOT
BRANCH  15  16
HETATM   16  C18 UNL     1      21.025   1.654  50.266  1.00  0.00     0.134 C 
BRANCH  16  17
HETATM   17  C19 UNL     1      21.269   0.937  48.987  1.00  0.00     0.040 C 
BRANCH  17  18
HETATM   18  C20 UNL     1      22.080   1.645  47.957  1.00  0.00     0.118 C 
BRANCH  18  19
HETATM   19  N4  UNL     1      21.642   2.998  47.873  1.00  0.00    -0.412 N 
HETATM   20  C21 UNL     1      22.643   4.004  47.863  1.00  0.00     0.117 C 
HETATM   21  C22 UNL     1      22.080   5.402  47.982  1.00  0.00     0.019 C 
HETATM   22  C23 UNL     1      20.627   5.445  48.325  1.00  0.00     0.003 C 
HETATM   23  C24 UNL     1      19.795   4.555  47.462  1.00  0.00     0.019 C 
HETATM   24  C25 UNL     1      20.457   3.246  47.140  1.00  0.00     0.117 C 
ENDBRANCH  18  19
ENDBRANCH  17  18
ENDBRANCH  16  17
ENDBRANCH  15  16
BRANCH  11  25
HETATM   25  C8  UNL     1      25.761   3.257  49.667  1.00  0.00     0.099 C 
BRANCH  25  26
HETATM   26  C9  UNL     1      25.709   4.730  49.785  1.00  0.00    -0.051 A 
HETATM   27  C10 UNL     1      25.016   5.613  50.551  1.00  0.00     0.007 A 
HETATM   28  C11 UNL     1      25.106   6.983  50.497  1.00  0.00     0.002 A 
HETATM   29  C12 UNL     1      26.007   7.488  49.553  1.00  0.00     0.024 A 
HETATM   30  C13 UNL     1      26.751   6.674  48.737  1.00  0.00     0.034 A 
HETATM   31 CL1  UNL     1      27.816   7.468  47.630  1.00  0.00    -0.084 Cl
HETATM   32  C14 UNL     1      26.595   5.294  48.860  1.00  0.00     0.031 A 
ENDBRANCH  25  26
ENDBRANCH  11  25
TORSDOF 6
ENDMDL
