MODEL 1
REMARK VINA RESULT:      -8.6      0.000      0.000
REMARK  7 active torsions:
REMARK  status: ('A' for Active; 'I' for Inactive)
REMARK    1  A    between atoms: O1_1  and  C1_2 
REMARK    2  A    between atoms: C3_5  and  N1_6 
REMARK    3  A    between atoms: C4_8  and  C5_9 
REMARK    4  A    between atoms: C5_9  and  C6_10 
REMARK    5  A    between atoms: C6_10  and  C7_11 
REMARK    6  A    between atoms: C14_19  and  C15_20 
REMARK    7  A    between atoms: C16_21  and  C17_22 
ROOT
HETATM    1  N1  UNL     1      26.731   0.947  52.734  1.00  0.00    -0.237 N 
HETATM    2  N2  UNL     1      27.160   1.957  51.870  1.00  0.00    -0.179 NA
HETATM    3  C4  UNL     1      26.135   2.595  51.352  1.00  0.00     0.035 C 
HETATM    4  C13 UNL     1      24.872   1.992  51.916  1.00  0.00     0.088 C 
HETATM    5  C14 UNL     1      25.419   1.335  53.164  1.00  0.00     0.140 C 
ENDROOT
BRANCH   3   6
HETATM    6  C5  UNL     1      25.870   3.730  50.395  1.00  0.00     0.061 C 
BRANCH   6   7
HETATM    7  C6  UNL     1      26.814   3.626  49.235  1.00  0.00     0.044 C 
BRANCH   7   8
HETATM    8  C7  UNL     1      27.127   5.017  48.770  1.00  0.00    -0.058 A 
HETATM    9  C8  UNL     1      28.446   5.262  48.364  1.00  0.00     0.009 A 
HETATM   10  C9  UNL     1      28.888   6.493  47.916  1.00  0.00     0.024 A 
HETATM   11  C10 UNL     1      28.019   7.539  47.856  1.00  0.00     0.034 A 
HETATM   12 CL1  UNL     1      28.510   9.117  47.303  1.00  0.00    -0.084 Cl
HETATM   13  C11 UNL     1      26.710   7.311  48.254  1.00  0.00     0.024 A 
HETATM   14  C12 UNL     1      26.255   6.083  48.706  1.00  0.00     0.009 A 
ENDBRANCH   7   8
ENDBRANCH   6   7
ENDBRANCH   3   6
BRANCH   1  15
HETATM   15  C3  UNL     1      27.586  -0.157  52.997  1.00  0.00     0.192 A 
HETATM   16  S1  UNL     1      29.381   0.265  53.551  1.00  0.00    -0.058 SA
HETATM   17  C2  UNL     1      29.895  -1.520  53.706  1.00  0.00     0.111 A 
HETATM   18  C1  UNL     1      28.604  -2.134  53.306  1.00  0.00     0.171 A 
HETATM   19  N3  UNL     1      27.525  -1.436  52.974  1.00  0.00    -0.198 NA
BRANCH  18  20
HETATM   20  O1  UNL     1      28.715  -3.518  53.336  1.00  0.00    -0.344 OA
HETATM   21  H1  UNL     1      27.958  -4.155  53.528  1.00  0.00     0.219 HD
ENDBRANCH  18  20
ENDBRANCH   1  15
BRANCH   5  22
HETATM   22  C15 UNL     1      24.557   0.209  53.607  1.00  0.00    -0.003 C 
HETATM   23  C16 UNL     1      23.294  -0.018  53.190  1.00  0.00    -0.018 C 
BRANCH  23  24
HETATM   24  C17 UNL     1      22.274  -1.068  53.503  1.00  0.00     0.112 C 
HETATM   25 BR1  UNL     1      20.510  -0.273  53.727  1.00  0.00    -0.092 Br
ENDBRANCH  23  24
ENDBRANCH   5  22
TORSDOF 7
ENDMDL
MODEL 2
REMARK VINA RESULT:      -8.4      3.101      4.149
REMARK  7 active torsions:
REMARK  status: ('A' for Active; 'I' for Inactive)
REMARK    1  A    between atoms: O1_1  and  C1_2 
REMARK    2  A    between atoms: C3_5  and  N1_6 
REMARK    3  A    between atoms: C4_8  and  C5_9 
REMARK    4  A    between atoms: C5_9  and  C6_10 
REMARK    5  A    between atoms: C6_10  and  C7_11 
REMARK    6  A    between atoms: C14_19  and  C15_20 
REMARK    7  A    between atoms: C16_21  and  C17_22 
ROOT
HETATM    1  N1  UNL     1      24.814   0.812  52.261  1.00  0.00    -0.237 N 
HETATM    2  N2  UNL     1      24.335   1.919  51.558  1.00  0.00    -0.179 NA
HETATM    3  C4  UNL     1      25.328   2.663  51.127  1.00  0.00     0.035 C 
HETATM    4  C13 UNL     1      26.622   2.012  51.548  1.00  0.00     0.088 C 
HETATM    5  C14 UNL     1      26.149   0.595  51.782  1.00  0.00     0.140 C 
ENDROOT
BRANCH   3   6
HETATM    6  C5  UNL     1      25.536   3.936  50.344  1.00  0.00     0.061 C 
BRANCH   6   7
HETATM    7  C6  UNL     1      26.596   3.706  49.307  1.00  0.00     0.044 C 
BRANCH   7   8
HETATM    8  C7  UNL     1      27.018   5.045  48.777  1.00  0.00    -0.058 A 
HETATM    9  C8  UNL     1      28.350   5.162  48.356  1.00  0.00     0.009 A 
HETATM   10  C9  UNL     1      28.888   6.331  47.850  1.00  0.00     0.024 A 
HETATM   11  C10 UNL     1      28.108   7.440  47.745  1.00  0.00     0.034 A 
HETATM   12 CL1  UNL     1      28.723   8.946  47.119  1.00  0.00    -0.084 Cl
HETATM   13  C11 UNL     1      26.787   7.340  48.158  1.00  0.00     0.024 A 
HETATM   14  C12 UNL     1      26.236   6.174  48.667  1.00  0.00     0.009 A 
ENDBRANCH   7   8
ENDBRANCH   6   7
ENDBRANCH   3   6
BRANCH   1  15
HETATM   15  C3  UNL     1      23.978   0.176  53.217  1.00  0.00     0.192 A 
HETATM   16  S1  UNL     1      22.124   0.697  53.211  1.00  0.00    -0.058 SA
HETATM   17  C2  UNL     1      21.661  -0.444  54.611  1.00  0.00     0.111 A 
HETATM   18  C1  UNL     1      23.005  -1.028  54.843  1.00  0.00     0.171 A 
HETATM   19  N3  UNL     1      24.086  -0.697  54.148  1.00  0.00    -0.198 NA
BRANCH  18  20
HETATM   20  O1  UNL     1      22.941  -1.949  55.881  1.00  0.00    -0.344 OA
HETATM   21  H1  UNL     1      22.116  -2.156  56.421  1.00  0.00     0.219 HD
ENDBRANCH  18  20
ENDBRANCH   1  15
BRANCH   5  22
HETATM   22  C15 UNL     1      27.036  -0.124  52.732  1.00  0.00    -0.003 C 
HETATM   23  C16 UNL     1      27.888   0.461  53.601  1.00  0.00    -0.018 C 
BRANCH  23  24
HETATM   24  C17 UNL     1      28.848  -0.065  54.620  1.00  0.00     0.112 C 
HETATM   25 BR1  UNL     1      30.098  -1.320  53.809  1.00  0.00    -0.092 Br
ENDBRANCH  23  24
ENDBRANCH   5  22
TORSDOF 7
ENDMDL
MODEL 3
REMARK VINA RESULT:      -8.0      2.833      3.536
REMARK  7 active torsions:
REMARK  status: ('A' for Active; 'I' for Inactive)
REMARK    1  A    between atoms: O1_1  and  C1_2 
REMARK    2  A    between atoms: C3_5  and  N1_6 
REMARK    3  A    between atoms: C4_8  and  C5_9 
REMARK    4  A    between atoms: C5_9  and  C6_10 
REMARK    5  A    between atoms: C6_10  and  C7_11 
REMARK    6  A    between atoms: C14_19  and  C15_20 
REMARK    7  A    between atoms: C16_21  and  C17_22 
ROOT
HETATM    1  N1  UNL     1      26.564   0.860  52.629  1.00  0.00    -0.237 N 
HETATM    2  N2  UNL     1      26.937   1.858  51.725  1.00  0.00    -0.179 NA
HETATM    3  C4  UNL     1      25.880   2.407  51.173  1.00  0.00     0.035 C 
HETATM    4  C13 UNL     1      24.651   1.750  51.752  1.00  0.00     0.088 C 
HETATM    5  C14 UNL     1      25.225   1.183  53.031  1.00  0.00     0.140 C 
ENDROOT
BRANCH   3   6
HETATM    6  C5  UNL     1      25.553   3.482  50.166  1.00  0.00     0.061 C 
BRANCH   6   7
HETATM    7  C6  UNL     1      24.146   3.951  50.388  1.00  0.00     0.044 C 
BRANCH   7   8
HETATM    8  C7  UNL     1      23.404   3.807  49.091  1.00  0.00    -0.058 A 
HETATM    9  C8  UNL     1      23.147   4.988  48.381  1.00  0.00     0.009 A 
HETATM   10  C9  UNL     1      22.470   5.018  47.175  1.00  0.00     0.024 A 
HETATM   11  C10 UNL     1      22.018   3.857  46.628  1.00  0.00     0.034 A 
HETATM   12 CL1  UNL     1      21.156   3.823  45.114  1.00  0.00    -0.084 Cl
HETATM   13  C11 UNL     1      22.265   2.680  47.321  1.00  0.00     0.024 A 
HETATM   14  C12 UNL     1      22.942   2.636  48.529  1.00  0.00     0.009 A 
ENDBRANCH   7   8
ENDBRANCH   6   7
ENDBRANCH   3   6
BRANCH   1  15
HETATM   15  C3  UNL     1      27.483  -0.175  52.945  1.00  0.00     0.192 A 
HETATM   16  S1  UNL     1      29.226   0.384  53.543  1.00  0.00    -0.058 SA
HETATM   17  C2  UNL     1      29.857  -1.357  53.759  1.00  0.00     0.111 A 
HETATM   18  C1  UNL     1      28.625  -2.068  53.335  1.00  0.00     0.171 A 
HETATM   19  N3  UNL     1      27.512  -1.455  52.953  1.00  0.00    -0.198 NA
BRANCH  18  20
HETATM   20  O1  UNL     1      28.830  -3.440  53.403  1.00  0.00    -0.344 OA
HETATM   21  H1  UNL     1      28.673  -4.087  52.647  1.00  0.00     0.219 HD
ENDBRANCH  18  20
ENDBRANCH   1  15
BRANCH   5  22
HETATM   22  C15 UNL     1      24.432   0.024  53.515  1.00  0.00    -0.003 C 
HETATM   23  C16 UNL     1      23.133  -0.207  53.229  1.00  0.00    -0.018 C 
BRANCH  23  24
HETATM   24  C17 UNL     1      22.167  -1.287  53.605  1.00  0.00     0.112 C 
HETATM   25 BR1  UNL     1      20.356  -0.581  53.731  1.00  0.00    -0.092 Br
ENDBRANCH  23  24
ENDBRANCH   5  22
TORSDOF 7
ENDMDL
MODEL 4
REMARK VINA RESULT:      -7.9      5.003      8.223
REMARK  7 active torsions:
REMARK  status: ('A' for Active; 'I' for Inactive)
REMARK    1  A    between atoms: O1_1  and  C1_2 
REMARK    2  A    between atoms: C3_5  and  N1_6 
REMARK    3  A    between atoms: C4_8  and  C5_9 
REMARK    4  A    between atoms: C5_9  and  C6_10 
REMARK    5  A    between atoms: C6_10  and  C7_11 
REMARK    6  A    between atoms: C14_19  and  C15_20 
REMARK    7  A    between atoms: C16_21  and  C17_22 
ROOT
HETATM    1  N1  UNL     1      25.489   1.147  52.716  1.00  0.00    -0.237 N 
HETATM    2  N2  UNL     1      24.517   0.364  53.342  1.00  0.00    -0.179 NA
HETATM    3  C4  UNL     1      23.312   0.807  53.066  1.00  0.00     0.035 C 
HETATM    4  C13 UNL     1      23.447   1.998  52.150  1.00  0.00     0.088 C 
HETATM    5  C14 UNL     1      24.834   1.758  51.596  1.00  0.00     0.140 C 
ENDROOT
BRANCH   3   6
HETATM    6  C5  UNL     1      21.877   0.469  53.384  1.00  0.00     0.061 C 
BRANCH   6   7
HETATM    7  C6  UNL     1      21.015   0.832  52.212  1.00  0.00     0.044 C 
BRANCH   7   8
HETATM    8  C7  UNL     1      19.718   0.090  52.346  1.00  0.00    -0.058 A 
HETATM    9  C8  UNL     1      18.767   0.301  51.338  1.00  0.00     0.009 A 
HETATM   10  C9  UNL     1      17.525  -0.307  51.325  1.00  0.00     0.024 A 
HETATM   11  C10 UNL     1      17.181  -1.157  52.331  1.00  0.00     0.034 A 
HETATM   12 CL1  UNL     1      15.633  -1.954  52.378  1.00  0.00    -0.084 Cl
HETATM   13  C11 UNL     1      18.113  -1.375  53.336  1.00  0.00     0.024 A 
HETATM   14  C12 UNL     1      19.361  -0.772  53.360  1.00  0.00     0.009 A 
ENDBRANCH   7   8
ENDBRANCH   6   7
ENDBRANCH   3   6
BRANCH   1  15
HETATM   15  C3  UNL     1      26.805   1.185  53.250  1.00  0.00     0.192 A 
HETATM   16  S1  UNL     1      27.816  -0.451  53.149  1.00  0.00    -0.058 SA
HETATM   17  C2  UNL     1      29.324   0.274  53.971  1.00  0.00     0.111 A 
HETATM   18  C1  UNL     1      28.795   1.644  54.183  1.00  0.00     0.171 A 
HETATM   19  N3  UNL     1      27.578   2.032  53.819  1.00  0.00    -0.198 NA
BRANCH  18  20
HETATM   20  O1  UNL     1      29.758   2.426  54.808  1.00  0.00    -0.344 OA
HETATM   21  H1  UNL     1      29.787   3.433  54.790  1.00  0.00     0.219 HD
ENDBRANCH  18  20
ENDBRANCH   1  15
BRANCH   5  22
HETATM   22  C15 UNL     1      25.459   3.022  51.131  1.00  0.00    -0.003 C 
HETATM   23  C16 UNL     1      25.111   3.703  50.018  1.00  0.00    -0.018 C 
BRANCH  23  24
HETATM   24  C17 UNL     1      25.600   4.965  49.382  1.00  0.00     0.112 C 
HETATM   25 BR1  UNL     1      27.446   4.771  48.790  1.00  0.00    -0.092 Br
ENDBRANCH  23  24
ENDBRANCH   5  22
TORSDOF 7
ENDMDL
MODEL 5
REMARK VINA RESULT:      -7.6      2.221      2.728
REMARK  7 active torsions:
REMARK  status: ('A' for Active; 'I' for Inactive)
REMARK    1  A    between atoms: O1_1  and  C1_2 
REMARK    2  A    between atoms: C3_5  and  N1_6 
REMARK    3  A    between atoms: C4_8  and  C5_9 
REMARK    4  A    between atoms: C5_9  and  C6_10 
REMARK    5  A    between atoms: C6_10  and  C7_11 
REMARK    6  A    between atoms: C14_19  and  C15_20 
REMARK    7  A    between atoms: C16_21  and  C17_22 
ROOT
HETATM    1  N1  UNL     1      26.544   1.410  52.166  1.00  0.00    -0.237 N 
HETATM    2  N2  UNL     1      26.956   2.158  51.061  1.00  0.00    -0.179 NA
HETATM    3  C4  UNL     1      25.935   2.768  50.503  1.00  0.00     0.035 C 
HETATM    4  C13 UNL     1      24.696   2.433  51.296  1.00  0.00     0.088 C 
HETATM    5  C14 UNL     1      25.320   2.012  52.608  1.00  0.00     0.140 C 
ENDROOT
BRANCH   3   6
HETATM    6  C5  UNL     1      25.659   3.688  49.340  1.00  0.00     0.061 C 
BRANCH   6   7
HETATM    7  C6  UNL     1      26.224   5.044  49.643  1.00  0.00     0.044 C 
BRANCH   7   8
HETATM    8  C7  UNL     1      25.080   6.012  49.721  1.00  0.00    -0.058 A 
HETATM    9  C8  UNL     1      24.107   5.917  48.717  1.00  0.00     0.009 A 
HETATM   10  C9  UNL     1      22.999   6.742  48.652  1.00  0.00     0.024 A 
HETATM   11  C10 UNL     1      22.819   7.704  49.597  1.00  0.00     0.034 A 
HETATM   12 CL1  UNL     1      21.448   8.778  49.573  1.00  0.00    -0.084 Cl
HETATM   13  C11 UNL     1      23.776   7.810  50.597  1.00  0.00     0.024 A 
HETATM   14  C12 UNL     1      24.890   6.990  50.674  1.00  0.00     0.009 A 
ENDBRANCH   7   8
ENDBRANCH   6   7
ENDBRANCH   3   6
BRANCH   1  15
HETATM   15  C3  UNL     1      27.332   0.309  52.597  1.00  0.00     0.192 A 
HETATM   16  S1  UNL     1      28.928   0.737  53.585  1.00  0.00    -0.058 SA
HETATM   17  C2  UNL     1      29.427  -1.045  53.809  1.00  0.00     0.111 A 
HETATM   18  C1  UNL     1      28.286  -1.663  53.089  1.00  0.00     0.171 A 
HETATM   19  N3  UNL     1      27.305  -0.969  52.523  1.00  0.00    -0.198 NA
BRANCH  18  20
HETATM   20  O1  UNL     1      28.416  -3.046  53.105  1.00  0.00    -0.344 OA
HETATM   21  H1  UNL     1      28.734  -3.606  52.330  1.00  0.00     0.219 HD
ENDBRANCH  18  20
ENDBRANCH   1  15
BRANCH   5  22
HETATM   22  C15 UNL     1      24.424   1.103  53.368  1.00  0.00    -0.003 C 
HETATM   23  C16 UNL     1      23.530   0.251  52.822  1.00  0.00    -0.018 C 
BRANCH  23  24
HETATM   24  C17 UNL     1      22.554  -0.729  53.392  1.00  0.00     0.112 C 
HETATM   25 BR1  UNL     1      21.015   0.192  54.153  1.00  0.00    -0.092 Br
ENDBRANCH  23  24
ENDBRANCH   5  22
TORSDOF 7
ENDMDL
MODEL 6
REMARK VINA RESULT:      -7.4      6.633     10.482
REMARK  7 active torsions:
REMARK  status: ('A' for Active; 'I' for Inactive)
REMARK    1  A    between atoms: O1_1  and  C1_2 
REMARK    2  A    between atoms: C3_5  and  N1_6 
REMARK    3  A    between atoms: C4_8  and  C5_9 
REMARK    4  A    between atoms: C5_9  and  C6_10 
REMARK    5  A    between atoms: C6_10  and  C7_11 
REMARK    6  A    between atoms: C14_19  and  C15_20 
REMARK    7  A    between atoms: C16_21  and  C17_22 
ROOT
HETATM    1  N1  UNL     1      21.894   2.412  52.397  1.00  0.00    -0.237 N 
HETATM    2  N2  UNL     1      20.505   2.265  52.379  1.00  0.00    -0.179 NA
HETATM    3  C4  UNL     1      20.171   1.002  52.241  1.00  0.00     0.035 C 
HETATM    4  C13 UNL     1      21.438   0.185  52.174  1.00  0.00     0.088 C 
HETATM    5  C14 UNL     1      22.413   1.144  52.820  1.00  0.00     0.140 C 
ENDROOT
BRANCH   3   6
HETATM    6  C5  UNL     1      18.922   0.161  52.147  1.00  0.00     0.061 C 
BRANCH   6   7
HETATM    7  C6  UNL     1      18.872  -0.776  53.316  1.00  0.00     0.044 C 
BRANCH   7   8
HETATM    8  C7  UNL     1      17.721  -1.715  53.105  1.00  0.00    -0.058 A 
HETATM    9  C8  UNL     1      17.845  -2.996  53.661  1.00  0.00     0.009 A 
HETATM   10  C9  UNL     1      16.873  -3.972  53.546  1.00  0.00     0.024 A 
HETATM   11  C10 UNL     1      15.727  -3.704  52.863  1.00  0.00     0.034 A 
HETATM   12 CL1  UNL     1      14.463  -4.889  52.678  1.00  0.00    -0.084 Cl
HETATM   13  C11 UNL     1      15.591  -2.440  52.306  1.00  0.00     0.024 A 
HETATM   14  C12 UNL     1      16.558  -1.453  52.414  1.00  0.00     0.009 A 
ENDBRANCH   7   8
ENDBRANCH   6   7
ENDBRANCH   3   6
BRANCH   1  15
HETATM   15  C3  UNL     1      22.469   3.659  52.033  1.00  0.00     0.192 A 
HETATM   16  S1  UNL     1      22.036   4.318  50.276  1.00  0.00    -0.058 SA
HETATM   17  C2  UNL     1      23.054   5.868  50.462  1.00  0.00     0.111 A 
HETATM   18  C1  UNL     1      23.552   5.615  51.836  1.00  0.00     0.171 A 
HETATM   19  N3  UNL     1      23.242   4.539  52.549  1.00  0.00    -0.198 NA
BRANCH  18  20
HETATM   20  O1  UNL     1      24.372   6.663  52.237  1.00  0.00    -0.344 OA
HETATM   21  H1  UNL     1      25.026   7.145  51.642  1.00  0.00     0.219 HD
ENDBRANCH  18  20
ENDBRANCH   1  15
BRANCH   5  22
HETATM   22  C15 UNL     1      23.808   0.873  52.386  1.00  0.00    -0.003 C 
HETATM   23  C16 UNL     1      24.786   0.372  53.170  1.00  0.00    -0.018 C 
BRANCH  23  24
HETATM   24  C17 UNL     1      26.225   0.032  52.938  1.00  0.00     0.112 C 
HETATM   25 BR1  UNL     1      27.260   0.259  54.573  1.00  0.00    -0.092 Br
ENDBRANCH  23  24
ENDBRANCH   5  22
TORSDOF 7
ENDMDL
MODEL 7
REMARK VINA RESULT:      -7.3      4.515      6.851
REMARK  7 active torsions:
REMARK  status: ('A' for Active; 'I' for Inactive)
REMARK    1  A    between atoms: O1_1  and  C1_2 
REMARK    2  A    between atoms: C3_5  and  N1_6 
REMARK    3  A    between atoms: C4_8  and  C5_9 
REMARK    4  A    between atoms: C5_9  and  C6_10 
REMARK    5  A    between atoms: C6_10  and  C7_11 
REMARK    6  A    between atoms: C14_19  and  C15_20 
REMARK    7  A    between atoms: C16_21  and  C17_22 
ROOT
HETATM    1  N1  UNL     1      25.707   1.266  52.624  1.00  0.00    -0.237 N 
HETATM    2  N2  UNL     1      24.668   0.571  53.247  1.00  0.00    -0.179 NA
HETATM    3  C4  UNL     1      23.501   1.055  52.889  1.00  0.00     0.035 C 
HETATM    4  C13 UNL     1      23.738   2.180  51.911  1.00  0.00     0.088 C 
HETATM    5  C14 UNL     1      25.134   1.839  51.440  1.00  0.00     0.140 C 
ENDROOT
BRANCH   3   6
HETATM    6  C5  UNL     1      22.037   0.807  53.157  1.00  0.00     0.061 C 
BRANCH   6   7
HETATM    7  C6  UNL     1      21.433   0.110  51.975  1.00  0.00     0.044 C 
BRANCH   7   8
HETATM    8  C7  UNL     1      20.417   1.032  51.367  1.00  0.00    -0.058 A 
HETATM    9  C8  UNL     1      19.966   2.088  52.171  1.00  0.00     0.009 A 
HETATM   10  C9  UNL     1      19.029   3.015  51.754  1.00  0.00     0.024 A 
HETATM   11  C10 UNL     1      18.501   2.922  50.504  1.00  0.00     0.034 A 
HETATM   12 CL1  UNL     1      17.315   4.056  49.916  1.00  0.00    -0.084 Cl
HETATM   13  C11 UNL     1      18.938   1.882  49.696  1.00  0.00     0.024 A 
HETATM   14  C12 UNL     1      19.876   0.946  50.102  1.00  0.00     0.009 A 
ENDBRANCH   7   8
ENDBRANCH   6   7
ENDBRANCH   3   6
BRANCH   1  15
HETATM   15  C3  UNL     1      26.997   1.273  53.216  1.00  0.00     0.192 A 
HETATM   16  S1  UNL     1      27.942  -0.404  53.225  1.00  0.00    -0.058 SA
HETATM   17  C2  UNL     1      29.440   0.292  54.089  1.00  0.00     0.111 A 
HETATM   18  C1  UNL     1      28.960   1.689  54.224  1.00  0.00     0.171 A 
HETATM   19  N3  UNL     1      27.779   2.110  53.789  1.00  0.00    -0.198 NA
BRANCH  18  20
HETATM   20  O1  UNL     1      29.926   2.456  54.863  1.00  0.00    -0.344 OA
HETATM   21  H1  UNL     1      29.756   3.339  55.318  1.00  0.00     0.219 HD
ENDBRANCH  18  20
ENDBRANCH   1  15
BRANCH   5  22
HETATM   22  C15 UNL     1      25.844   3.041  50.932  1.00  0.00    -0.003 C 
HETATM   23  C16 UNL     1      25.294   4.008  50.166  1.00  0.00    -0.018 C 
BRANCH  23  24
HETATM   24  C17 UNL     1      25.818   5.271  49.561  1.00  0.00     0.112 C 
HETATM   25 BR1  UNL     1      27.538   4.964  48.700  1.00  0.00    -0.092 Br
ENDBRANCH  23  24
ENDBRANCH   5  22
TORSDOF 7
ENDMDL
MODEL 8
REMARK VINA RESULT:      -7.3      1.547      1.997
REMARK  7 active torsions:
REMARK  status: ('A' for Active; 'I' for Inactive)
REMARK    1  A    between atoms: O1_1  and  C1_2 
REMARK    2  A    between atoms: C3_5  and  N1_6 
REMARK    3  A    between atoms: C4_8  and  C5_9 
REMARK    4  A    between atoms: C5_9  and  C6_10 
REMARK    5  A    between atoms: C6_10  and  C7_11 
REMARK    6  A    between atoms: C14_19  and  C15_20 
REMARK    7  A    between atoms: C16_21  and  C17_22 
ROOT
HETATM    1  N1  UNL     1      25.800   2.189  51.553  1.00  0.00    -0.237 N 
HETATM    2  N2  UNL     1      26.661   3.127  50.979  1.00  0.00    -0.179 NA
HETATM    3  C4  UNL     1      26.082   3.739  49.972  1.00  0.00     0.035 C 
HETATM    4  C13 UNL     1      24.681   3.195  49.834  1.00  0.00     0.088 C 
HETATM    5  C14 UNL     1      24.475   2.625  51.219  1.00  0.00     0.140 C 
ENDROOT
BRANCH   3   6
HETATM    6  C5  UNL     1      26.403   4.804  48.953  1.00  0.00     0.061 C 
BRANCH   6   7
HETATM    7  C6  UNL     1      27.862   4.732  48.611  1.00  0.00     0.044 C 
BRANCH   7   8
HETATM    8  C7  UNL     1      28.303   6.102  48.185  1.00  0.00    -0.058 A 
HETATM    9  C8  UNL     1      29.656   6.251  47.852  1.00  0.00     0.009 A 
HETATM   10  C9  UNL     1      30.212   7.450  47.448  1.00  0.00     0.024 A 
HETATM   11  C10 UNL     1      29.429   8.559  47.360  1.00  0.00     0.034 A 
HETATM   12 CL1  UNL     1      30.066  10.102  46.860  1.00  0.00    -0.084 Cl
HETATM   13  C11 UNL     1      28.087   8.427  47.688  1.00  0.00     0.024 A 
HETATM   14  C12 UNL     1      27.518   7.231  48.094  1.00  0.00     0.009 A 
ENDBRANCH   7   8
ENDBRANCH   6   7
ENDBRANCH   3   6
BRANCH   1  15
HETATM   15  C3  UNL     1      26.341   1.096  52.281  1.00  0.00     0.192 A 
HETATM   16  S1  UNL     1      26.583   1.366  54.172  1.00  0.00    -0.058 SA
HETATM   17  C2  UNL     1      27.277  -0.340  54.461  1.00  0.00     0.111 A 
HETATM   18  C1  UNL     1      27.206  -0.823  53.060  1.00  0.00     0.171 A 
HETATM   19  N3  UNL     1      26.749  -0.095  52.049  1.00  0.00    -0.198 NA
BRANCH  18  20
HETATM   20  O1  UNL     1      27.684  -2.126  52.990  1.00  0.00    -0.344 OA
HETATM   21  H1  UNL     1      28.644  -2.398  53.133  1.00  0.00     0.219 HD
ENDBRANCH  18  20
ENDBRANCH   1  15
BRANCH   5  22
HETATM   22  C15 UNL     1      23.453   1.546  51.216  1.00  0.00    -0.003 C 
HETATM   23  C16 UNL     1      22.832   1.055  52.309  1.00  0.00    -0.018 C 
BRANCH  23  24
HETATM   24  C17 UNL     1      21.798  -0.005  52.522  1.00  0.00     0.112 C 
HETATM   25 BR1  UNL     1      20.907   0.234  54.238  1.00  0.00    -0.092 Br
ENDBRANCH  23  24
ENDBRANCH   5  22
TORSDOF 7
ENDMDL
MODEL 9
REMARK VINA RESULT:      -7.2      5.297      8.234
REMARK  7 active torsions:
REMARK  status: ('A' for Active; 'I' for Inactive)
REMARK    1  A    between atoms: O1_1  and  C1_2 
REMARK    2  A    between atoms: C3_5  and  N1_6 
REMARK    3  A    between atoms: C4_8  and  C5_9 
REMARK    4  A    between atoms: C5_9  and  C6_10 
REMARK    5  A    between atoms: C6_10  and  C7_11 
REMARK    6  A    between atoms: C14_19  and  C15_20 
REMARK    7  A    between atoms: C16_21  and  C17_22 
ROOT
HETATM    1  N1  UNL     1      25.225   5.429  49.571  1.00  0.00    -0.237 N 
HETATM    2  N2  UNL     1      25.499   4.380  50.452  1.00  0.00    -0.179 NA
HETATM    3  C4  UNL     1      24.466   3.574  50.554  1.00  0.00     0.035 C 
HETATM    4  C13 UNL     1      23.374   4.092  49.651  1.00  0.00     0.088 C 
HETATM    5  C14 UNL     1      24.188   4.947  48.705  1.00  0.00     0.140 C 
ENDROOT
BRANCH   3   6
HETATM    6  C5  UNL     1      24.078   2.313  51.284  1.00  0.00     0.061 C 
BRANCH   6   7
HETATM    7  C6  UNL     1      24.466   2.441  52.727  1.00  0.00     0.044 C 
BRANCH   7   8
HETATM    8  C7  UNL     1      25.724   1.651  52.937  1.00  0.00    -0.058 A 
HETATM    9  C8  UNL     1      25.800   0.407  52.297  1.00  0.00     0.009 A 
HETATM   10  C9  UNL     1      26.891  -0.436  52.399  1.00  0.00     0.024 A 
HETATM   11  C10 UNL     1      27.960  -0.065  53.155  1.00  0.00     0.034 A 
HETATM   12 CL1  UNL     1      29.366  -1.080  53.329  1.00  0.00    -0.084 Cl
HETATM   13  C11 UNL     1      27.899   1.165  53.796  1.00  0.00     0.024 A 
HETATM   14  C12 UNL     1      26.812   2.019  53.701  1.00  0.00     0.009 A 
ENDBRANCH   7   8
ENDBRANCH   6   7
ENDBRANCH   3   6
BRANCH   1  15
HETATM   15  C3  UNL     1      25.949   6.645  49.687  1.00  0.00     0.192 A 
HETATM   16  S1  UNL     1      27.300   6.965  48.352  1.00  0.00    -0.058 SA
HETATM   17  C2  UNL     1      27.806   8.610  49.068  1.00  0.00     0.111 A 
HETATM   18  C1  UNL     1      26.856   8.632  50.207  1.00  0.00     0.171 A 
HETATM   19  N3  UNL     1      25.984   7.664  50.462  1.00  0.00    -0.198 NA
BRANCH  18  20
HETATM   20  O1  UNL     1      27.029   9.800  50.938  1.00  0.00    -0.344 OA
HETATM   21  H1  UNL     1      27.606  10.578  50.659  1.00  0.00     0.219 HD
ENDBRANCH  18  20
ENDBRANCH   1  15
BRANCH   5  22
HETATM   22  C15 UNL     1      23.358   6.013  48.087  1.00  0.00    -0.003 C 
HETATM   23  C16 UNL     1      22.235   6.538  48.621  1.00  0.00    -0.018 C 
BRANCH  23  24
HETATM   24  C17 UNL     1      21.271   7.592  48.175  1.00  0.00     0.112 C 
HETATM   25 BR1  UNL     1      21.683   9.303  49.011  1.00  0.00    -0.092 Br
ENDBRANCH  23  24
ENDBRANCH   5  22
TORSDOF 7
ENDMDL
