MODEL 1
REMARK VINA RESULT:      -8.6      0.000      0.000
REMARK  6 active torsions:
REMARK  status: ('A' for Active; 'I' for Inactive)
REMARK    1  A    between atoms: O1_1  and  C1_2 
REMARK    2  A    between atoms: C3_5  and  N1_6 
REMARK    3  A    between atoms: C4_7  and  C5_8 
REMARK    4  A    between atoms: C4_7  and  C13_17 
REMARK    5  A    between atoms: C5_8  and  C6_9 
REMARK    6  A    between atoms: C6_9  and  C7_10 
ROOT
HETATM    1  N1  UNL     1      24.483   0.963  52.462  1.00  0.00    -0.227 NA
HETATM    2  C4  UNL     1      25.710   0.890  52.188  1.00  0.00     0.048 C 
ENDROOT
BRANCH   2   3
HETATM    3  C5  UNL     1      26.149   1.992  51.288  1.00  0.00     0.065 C 
BRANCH   3   4
HETATM    4  C6  UNL     1      25.052   2.859  50.778  1.00  0.00     0.044 C 
BRANCH   4   5
HETATM    5  C7  UNL     1      25.680   3.976  50.032  1.00  0.00    -0.058 A 
HETATM    6  C8  UNL     1      26.890   3.781  49.387  1.00  0.00     0.010 A 
HETATM    7  C9  UNL     1      27.565   4.732  48.669  1.00  0.00     0.043 A 
HETATM    8  C10 UNL     1      26.956   5.974  48.608  1.00  0.00     0.116 A 
HETATM    9  F1  UNL     1      27.561   6.962  47.919  1.00  0.00    -0.206 F 
HETATM   10  C11 UNL     1      25.753   6.246  49.223  1.00  0.00     0.043 A 
HETATM   11  C12 UNL     1      25.119   5.252  49.931  1.00  0.00     0.010 A 
ENDBRANCH   4   5
ENDBRANCH   3   4
ENDBRANCH   2   3
BRANCH   2  12
HETATM   12  C13 UNL     1      26.782  -0.035  52.561  1.00  0.00    -0.011 A 
HETATM   13  C14 UNL     1      26.728  -1.397  52.347  1.00  0.00     0.013 A 
HETATM   14  C15 UNL     1      27.757  -2.231  52.713  1.00  0.00     0.001 A 
HETATM   15  C16 UNL     1      28.903  -1.763  53.315  1.00  0.00     0.000 A 
HETATM   16  C17 UNL     1      28.987  -0.413  53.543  1.00  0.00     0.001 A 
HETATM   17  C18 UNL     1      27.941   0.404  53.166  1.00  0.00     0.013 A 
ENDBRANCH   2  12
BRANCH   1  18
HETATM   18  C3  UNL     1      23.683   0.132  53.263  1.00  0.00     0.195 A 
HETATM   19  S1  UNL     1      21.855  -0.182  52.757  1.00  0.00    -0.058 SA
HETATM   20  C2  UNL     1      21.532  -1.224  54.112  1.00  0.00     0.111 A 
HETATM   21  C1  UNL     1      22.845  -1.238  54.827  1.00  0.00     0.171 A 
HETATM   22  N2  UNL     1      23.814  -0.517  54.282  1.00  0.00    -0.198 NA
BRANCH  21  23
HETATM   23  O1  UNL     1      23.230  -1.908  56.012  1.00  0.00    -0.344 OA
HETATM   24  H1  UNL     1      24.153  -1.909  56.378  1.00  0.00     0.219 HD
ENDBRANCH  21  23
ENDBRANCH   1  18
TORSDOF 6
ENDMDL
MODEL 2
REMARK VINA RESULT:      -8.5      2.324      4.264
REMARK  6 active torsions:
REMARK  status: ('A' for Active; 'I' for Inactive)
REMARK    1  A    between atoms: O1_1  and  C1_2 
REMARK    2  A    between atoms: C3_5  and  N1_6 
REMARK    3  A    between atoms: C4_7  and  C5_8 
REMARK    4  A    between atoms: C4_7  and  C13_17 
REMARK    5  A    between atoms: C5_8  and  C6_9 
REMARK    6  A    between atoms: C6_9  and  C7_10 
ROOT
HETATM    1  N1  UNL     1      26.396   0.915  52.395  1.00  0.00    -0.227 NA
HETATM    2  C4  UNL     1      25.175   1.003  52.689  1.00  0.00     0.048 C 
ENDROOT
BRANCH   2   3
HETATM    3  C5  UNL     1      24.545   2.221  52.107  1.00  0.00     0.065 C 
BRANCH   3   4
HETATM    4  C6  UNL     1      24.308   2.162  50.638  1.00  0.00     0.044 C 
BRANCH   4   5
HETATM    5  C7  UNL     1      25.083   3.265  50.020  1.00  0.00    -0.058 A 
HETATM    6  C8  UNL     1      24.463   4.470  49.737  1.00  0.00     0.010 A 
HETATM    7  C9  UNL     1      25.071   5.558  49.169  1.00  0.00     0.043 A 
HETATM    8  C10 UNL     1      26.413   5.398  48.867  1.00  0.00     0.116 A 
HETATM    9  F1  UNL     1      27.080   6.426  48.305  1.00  0.00    -0.206 F 
HETATM   10  C11 UNL     1      27.100   4.230  49.118  1.00  0.00     0.043 A 
HETATM   11  C12 UNL     1      26.438   3.169  49.691  1.00  0.00     0.010 A 
ENDBRANCH   4   5
ENDBRANCH   3   4
ENDBRANCH   2   3
BRANCH   2  12
HETATM   12  C13 UNL     1      24.254   0.174  53.470  1.00  0.00    -0.011 A 
HETATM   13  C14 UNL     1      24.610  -0.481  54.631  1.00  0.00     0.013 A 
HETATM   14  C15 UNL     1      23.715  -1.250  55.334  1.00  0.00     0.001 A 
HETATM   15  C16 UNL     1      22.410  -1.416  54.927  1.00  0.00     0.000 A 
HETATM   16  C17 UNL     1      22.025  -0.777  53.776  1.00  0.00     0.001 A 
HETATM   17  C18 UNL     1      22.941  -0.010  53.087  1.00  0.00     0.013 A 
ENDBRANCH   2  12
BRANCH   1  18
HETATM   18  C3  UNL     1      27.342  -0.065  52.739  1.00  0.00     0.195 A 
HETATM   19  S1  UNL     1      28.978   0.470  53.594  1.00  0.00    -0.058 SA
HETATM   20  C2  UNL     1      29.591  -1.154  53.708  1.00  0.00     0.111 A 
HETATM   21  C1  UNL     1      28.494  -1.956  53.084  1.00  0.00     0.171 A 
HETATM   22  N2  UNL     1      27.444  -1.272  52.653  1.00  0.00    -0.198 NA
BRANCH  21  23
HETATM   23  O1  UNL     1      28.391  -3.351  52.877  1.00  0.00    -0.344 OA
HETATM   24  H1  UNL     1      28.163  -3.771  52.007  1.00  0.00     0.219 HD
ENDBRANCH  21  23
ENDBRANCH   1  18
TORSDOF 6
ENDMDL
MODEL 3
REMARK VINA RESULT:      -8.4      1.148      2.047
REMARK  6 active torsions:
REMARK  status: ('A' for Active; 'I' for Inactive)
REMARK    1  A    between atoms: O1_1  and  C1_2 
REMARK    2  A    between atoms: C3_5  and  N1_6 
REMARK    3  A    between atoms: C4_7  and  C5_8 
REMARK    4  A    between atoms: C4_7  and  C13_17 
REMARK    5  A    between atoms: C5_8  and  C6_9 
REMARK    6  A    between atoms: C6_9  and  C7_10 
ROOT
HETATM    1  N1  UNL     1      22.826   1.622  52.724  1.00  0.00    -0.227 NA
HETATM    2  C4  UNL     1      23.987   2.012  52.429  1.00  0.00     0.048 C 
ENDROOT
BRANCH   2   3
HETATM    3  C5  UNL     1      23.969   3.267  51.627  1.00  0.00     0.065 C 
BRANCH   3   4
HETATM    4  C6  UNL     1      24.010   3.068  50.152  1.00  0.00     0.044 C 
BRANCH   4   5
HETATM    5  C7  UNL     1      25.092   3.931  49.619  1.00  0.00    -0.058 A 
HETATM    6  C8  UNL     1      24.805   5.220  49.204  1.00  0.00     0.010 A 
HETATM    7  C9  UNL     1      25.716   6.108  48.696  1.00  0.00     0.043 A 
HETATM    8  C10 UNL     1      27.016   5.640  48.606  1.00  0.00     0.116 A 
HETATM    9  F1  UNL     1      27.969   6.457  48.115  1.00  0.00    -0.206 F 
HETATM   10  C11 UNL     1      27.380   4.370  48.999  1.00  0.00     0.043 A 
HETATM   11  C12 UNL     1      26.423   3.520  49.503  1.00  0.00     0.010 A 
ENDBRANCH   4   5
ENDBRANCH   3   4
ENDBRANCH   2   3
BRANCH   2  12
HETATM   12  C13 UNL     1      25.332   1.502  52.705  1.00  0.00    -0.011 A 
HETATM   13  C14 UNL     1      26.240   2.142  53.523  1.00  0.00     0.013 A 
HETATM   14  C15 UNL     1      27.494   1.629  53.755  1.00  0.00     0.001 A 
HETATM   15  C16 UNL     1      27.922   0.450  53.189  1.00  0.00     0.000 A 
HETATM   16  C17 UNL     1      27.041  -0.211  52.370  1.00  0.00     0.001 A 
HETATM   17  C18 UNL     1      25.788   0.323  52.152  1.00  0.00     0.013 A 
ENDBRANCH   2  12
BRANCH   1  18
HETATM   18  C3  UNL     1      22.407   0.500  53.457  1.00  0.00     0.195 A 
HETATM   19  S1  UNL     1      20.652  -0.221  53.146  1.00  0.00    -0.058 SA
HETATM   20  C2  UNL     1      20.836  -1.494  54.318  1.00  0.00     0.111 A 
HETATM   21  C1  UNL     1      22.216  -1.254  54.840  1.00  0.00     0.171 A 
HETATM   22  N2  UNL     1      22.868  -0.227  54.313  1.00  0.00    -0.198 NA
BRANCH  21  23
HETATM   23  O1  UNL     1      22.954  -1.957  55.820  1.00  0.00    -0.344 OA
HETATM   24  H1  UNL     1      23.325  -2.869  55.691  1.00  0.00     0.219 HD
ENDBRANCH  21  23
ENDBRANCH   1  18
TORSDOF 6
ENDMDL
MODEL 4
REMARK VINA RESULT:      -8.3      3.897      6.995
REMARK  6 active torsions:
REMARK  status: ('A' for Active; 'I' for Inactive)
REMARK    1  A    between atoms: O1_1  and  C1_2 
REMARK    2  A    between atoms: C3_5  and  N1_6 
REMARK    3  A    between atoms: C4_7  and  C5_8 
REMARK    4  A    between atoms: C4_7  and  C13_17 
REMARK    5  A    between atoms: C5_8  and  C6_9 
REMARK    6  A    between atoms: C6_9  and  C7_10 
ROOT
HETATM    1  N1  UNL     1      25.539   0.987  53.727  1.00  0.00    -0.227 NA
HETATM    2  C4  UNL     1      24.816   1.499  52.831  1.00  0.00     0.048 C 
ENDROOT
BRANCH   2   3
HETATM    3  C5  UNL     1      23.366   1.268  53.083  1.00  0.00     0.065 C 
BRANCH   3   4
HETATM    4  C6  UNL     1      22.948  -0.160  53.075  1.00  0.00     0.044 C 
BRANCH   4   5
HETATM    5  C7  UNL     1      21.498  -0.196  52.769  1.00  0.00    -0.058 A 
HETATM    6  C8  UNL     1      21.029   0.343  51.584  1.00  0.00     0.010 A 
HETATM    7  C9  UNL     1      19.717   0.369  51.191  1.00  0.00     0.043 A 
HETATM    8  C10 UNL     1      18.820  -0.199  52.080  1.00  0.00     0.116 A 
HETATM    9  F1  UNL     1      17.510  -0.211  51.763  1.00  0.00    -0.206 F 
HETATM   10  C11 UNL     1      19.209  -0.756  53.279  1.00  0.00     0.043 A 
HETATM   11  C12 UNL     1      20.541  -0.754  53.621  1.00  0.00     0.010 A 
ENDBRANCH   4   5
ENDBRANCH   3   4
ENDBRANCH   2   3
BRANCH   2  12
HETATM   12  C13 UNL     1      25.093   2.264  51.613  1.00  0.00    -0.011 A 
HETATM   13  C14 UNL     1      26.364   2.604  51.195  1.00  0.00     0.013 A 
HETATM   14  C15 UNL     1      26.581   3.324  50.045  1.00  0.00     0.001 A 
HETATM   15  C16 UNL     1      25.549   3.750  49.240  1.00  0.00     0.000 A 
HETATM   16  C17 UNL     1      24.273   3.428  49.629  1.00  0.00     0.001 A 
HETATM   17  C18 UNL     1      24.080   2.705  50.787  1.00  0.00     0.013 A 
ENDBRANCH   2  12
BRANCH   1  18
HETATM   18  C3  UNL     1      26.936   0.976  53.865  1.00  0.00     0.195 A 
HETATM   19  S1  UNL     1      27.929  -0.541  53.223  1.00  0.00    -0.058 SA
HETATM   20  C2  UNL     1      29.469   0.115  53.697  1.00  0.00     0.111 A 
HETATM   21  C1  UNL     1      29.087   1.429  54.301  1.00  0.00     0.171 A 
HETATM   22  N2  UNL     1      27.793   1.712  54.310  1.00  0.00    -0.198 NA
BRANCH  21  23
HETATM   23  O1  UNL     1      29.897   2.437  54.874  1.00  0.00    -0.344 OA
HETATM   24  H1  UNL     1      30.062   3.323  54.458  1.00  0.00     0.219 HD
ENDBRANCH  21  23
ENDBRANCH   1  18
TORSDOF 6
ENDMDL
MODEL 5
REMARK VINA RESULT:      -8.2      3.746      6.304
REMARK  6 active torsions:
REMARK  status: ('A' for Active; 'I' for Inactive)
REMARK    1  A    between atoms: O1_1  and  C1_2 
REMARK    2  A    between atoms: C3_5  and  N1_6 
REMARK    3  A    between atoms: C4_7  and  C5_8 
REMARK    4  A    between atoms: C4_7  and  C13_17 
REMARK    5  A    between atoms: C5_8  and  C6_9 
REMARK    6  A    between atoms: C6_9  and  C7_10 
ROOT
HETATM    1  N1  UNL     1      25.633   0.034  54.107  1.00  0.00    -0.227 NA
HETATM    2  C4  UNL     1      24.670   0.624  53.550  1.00  0.00     0.048 C 
ENDROOT
BRANCH   2   3
HETATM    3  C5  UNL     1      23.365  -0.028  53.850  1.00  0.00     0.065 C 
BRANCH   3   4
HETATM    4  C6  UNL     1      22.714  -0.693  52.689  1.00  0.00     0.044 C 
BRANCH   4   5
HETATM    5  C7  UNL     1      21.752   0.274  52.107  1.00  0.00    -0.058 A 
HETATM    6  C8  UNL     1      20.927   1.013  52.937  1.00  0.00     0.010 A 
HETATM    7  C9  UNL     1      20.003   1.932  52.519  1.00  0.00     0.043 A 
HETATM    8  C10 UNL     1      19.917   2.107  51.148  1.00  0.00     0.116 A 
HETATM    9  F1  UNL     1      19.028   2.996  50.660  1.00  0.00    -0.206 F 
HETATM   10  C11 UNL     1      20.703   1.409  50.257  1.00  0.00     0.043 A 
HETATM   11  C12 UNL     1      21.616   0.498  50.734  1.00  0.00     0.010 A 
ENDBRANCH   4   5
ENDBRANCH   3   4
ENDBRANCH   2   3
BRANCH   2  12
HETATM   12  C13 UNL     1      24.562   1.798  52.682  1.00  0.00    -0.011 A 
HETATM   13  C14 UNL     1      23.955   2.978  53.062  1.00  0.00     0.013 A 
HETATM   14  C15 UNL     1      23.873   4.058  52.216  1.00  0.00     0.001 A 
HETATM   15  C16 UNL     1      24.390   4.032  50.940  1.00  0.00     0.000 A 
HETATM   16  C17 UNL     1      25.000   2.873  50.533  1.00  0.00     0.001 A 
HETATM   17  C18 UNL     1      25.069   1.802  51.399  1.00  0.00     0.013 A 
ENDBRANCH   2  12
BRANCH   1  18
HETATM   18  C3  UNL     1      27.008   0.321  54.081  1.00  0.00     0.195 A 
HETATM   19  S1  UNL     1      28.213  -0.940  53.273  1.00  0.00    -0.058 SA
HETATM   20  C2  UNL     1      29.626   0.025  53.588  1.00  0.00     0.111 A 
HETATM   21  C1  UNL     1      29.051   1.220  54.281  1.00  0.00     0.171 A 
HETATM   22  N2  UNL     1      27.737   1.219  54.450  1.00  0.00    -0.198 NA
BRANCH  21  23
HETATM   23  O1  UNL     1      29.693   2.371  54.792  1.00  0.00    -0.344 OA
HETATM   24  H1  UNL     1      30.215   2.390  55.636  1.00  0.00     0.219 HD
ENDBRANCH  21  23
ENDBRANCH   1  18
TORSDOF 6
ENDMDL
MODEL 6
REMARK VINA RESULT:      -8.2      3.845      6.698
REMARK  6 active torsions:
REMARK  status: ('A' for Active; 'I' for Inactive)
REMARK    1  A    between atoms: O1_1  and  C1_2 
REMARK    2  A    between atoms: C3_5  and  N1_6 
REMARK    3  A    between atoms: C4_7  and  C5_8 
REMARK    4  A    between atoms: C4_7  and  C13_17 
REMARK    5  A    between atoms: C5_8  and  C6_9 
REMARK    6  A    between atoms: C6_9  and  C7_10 
ROOT
HETATM    1  N1  UNL     1      24.984   1.376  51.662  1.00  0.00    -0.227 NA
HETATM    2  C4  UNL     1      25.631   0.616  52.429  1.00  0.00     0.048 C 
ENDROOT
BRANCH   2   3
HETATM    3  C5  UNL     1      24.814  -0.540  52.893  1.00  0.00     0.065 C 
BRANCH   3   4
HETATM    4  C6  UNL     1      24.150  -0.349  54.211  1.00  0.00     0.044 C 
BRANCH   4   5
HETATM    5  C7  UNL     1      22.686  -0.382  53.979  1.00  0.00    -0.058 A 
HETATM    6  C8  UNL     1      21.949  -1.485  54.375  1.00  0.00     0.010 A 
HETATM    7  C9  UNL     1      20.597  -1.632  54.214  1.00  0.00     0.043 A 
HETATM    8  C10 UNL     1      19.953  -0.570  53.602  1.00  0.00     0.116 A 
HETATM    9  F1  UNL     1      18.620  -0.640  53.410  1.00  0.00    -0.206 F 
HETATM   10  C11 UNL     1      20.617   0.562  53.181  1.00  0.00     0.043 A 
HETATM   11  C12 UNL     1      21.976   0.655  53.368  1.00  0.00     0.010 A 
ENDBRANCH   4   5
ENDBRANCH   3   4
ENDBRANCH   2   3
BRANCH   2  12
HETATM   12  C13 UNL     1      26.998   0.626  52.955  1.00  0.00    -0.011 A 
HETATM   13  C14 UNL     1      27.614   1.751  53.467  1.00  0.00     0.013 A 
HETATM   14  C15 UNL     1      28.900   1.717  53.951  1.00  0.00     0.001 A 
HETATM   15  C16 UNL     1      29.653   0.566  53.955  1.00  0.00     0.000 A 
HETATM   16  C17 UNL     1      29.069  -0.570  53.453  1.00  0.00     0.001 A 
HETATM   17  C18 UNL     1      27.777  -0.512  52.973  1.00  0.00     0.013 A 
ENDBRANCH   2  12
BRANCH   1  18
HETATM   18  C3  UNL     1      25.378   2.559  51.015  1.00  0.00     0.195 A 
HETATM   19  S1  UNL     1      24.191   4.072  51.024  1.00  0.00    -0.058 SA
HETATM   20  C2  UNL     1      25.276   5.080  50.110  1.00  0.00     0.111 A 
HETATM   21  C1  UNL     1      26.442   4.172  49.880  1.00  0.00     0.171 A 
HETATM   22  N2  UNL     1      26.342   2.954  50.392  1.00  0.00    -0.198 NA
BRANCH  21  23
HETATM   23  O1  UNL     1      27.656   4.407  49.195  1.00  0.00    -0.344 OA
HETATM   24  H1  UNL     1      28.541   4.071  49.497  1.00  0.00     0.219 HD
ENDBRANCH  21  23
ENDBRANCH   1  18
TORSDOF 6
ENDMDL
MODEL 7
REMARK VINA RESULT:      -8.2      3.366      5.210
REMARK  6 active torsions:
REMARK  status: ('A' for Active; 'I' for Inactive)
REMARK    1  A    between atoms: O1_1  and  C1_2 
REMARK    2  A    between atoms: C3_5  and  N1_6 
REMARK    3  A    between atoms: C4_7  and  C5_8 
REMARK    4  A    between atoms: C4_7  and  C13_17 
REMARK    5  A    between atoms: C5_8  and  C6_9 
REMARK    6  A    between atoms: C6_9  and  C7_10 
ROOT
HETATM    1  N1  UNL     1      26.174   0.849  52.531  1.00  0.00    -0.227 NA
HETATM    2  C4  UNL     1      24.954   0.865  52.842  1.00  0.00     0.048 C 
ENDROOT
BRANCH   2   3
HETATM    3  C5  UNL     1      24.263   2.082  52.332  1.00  0.00     0.065 C 
BRANCH   3   4
HETATM    4  C6  UNL     1      24.731   2.558  51.001  1.00  0.00     0.044 C 
BRANCH   4   5
HETATM    5  C7  UNL     1      23.576   2.485  50.074  1.00  0.00    -0.058 A 
HETATM    6  C8  UNL     1      22.463   1.736  50.414  1.00  0.00     0.010 A 
HETATM    7  C9  UNL     1      21.340   1.593  49.643  1.00  0.00     0.043 A 
HETATM    8  C10 UNL     1      21.360   2.267  48.434  1.00  0.00     0.116 A 
HETATM    9  F1  UNL     1      20.289   2.175  47.620  1.00  0.00    -0.206 F 
HETATM   10  C11 UNL     1      22.430   3.033  48.025  1.00  0.00     0.043 A 
HETATM   11  C12 UNL     1      23.532   3.141  48.840  1.00  0.00     0.010 A 
ENDBRANCH   4   5
ENDBRANCH   3   4
ENDBRANCH   2   3
BRANCH   2  12
HETATM   12  C13 UNL     1      24.081  -0.046  53.586  1.00  0.00    -0.011 A 
HETATM   13  C14 UNL     1      24.400  -0.575  54.819  1.00  0.00     0.013 A 
HETATM   14  C15 UNL     1      23.552  -1.427  55.485  1.00  0.00     0.001 A 
HETATM   15  C16 UNL     1      22.336  -1.807  54.966  1.00  0.00     0.000 A 
HETATM   16  C17 UNL     1      21.989  -1.297  53.739  1.00  0.00     0.001 A 
HETATM   17  C18 UNL     1      22.856  -0.443  53.091  1.00  0.00     0.013 A 
ENDBRANCH   2  12
BRANCH   1  18
HETATM   18  C3  UNL     1      27.167  -0.104  52.811  1.00  0.00     0.195 A 
HETATM   19  S1  UNL     1      28.821   0.471  53.604  1.00  0.00    -0.058 SA
HETATM   20  C2  UNL     1      29.493  -1.133  53.656  1.00  0.00     0.111 A 
HETATM   21  C1  UNL     1      28.397  -1.960  53.064  1.00  0.00     0.171 A 
HETATM   22  N2  UNL     1      27.307  -1.305  52.695  1.00  0.00    -0.198 NA
BRANCH  21  23
HETATM   23  O1  UNL     1      28.333  -3.354  52.832  1.00  0.00    -0.344 OA
HETATM   24  H1  UNL     1      27.715  -3.783  52.185  1.00  0.00     0.219 HD
ENDBRANCH  21  23
ENDBRANCH   1  18
TORSDOF 6
ENDMDL
MODEL 8
REMARK VINA RESULT:      -8.1      3.758      6.915
REMARK  6 active torsions:
REMARK  status: ('A' for Active; 'I' for Inactive)
REMARK    1  A    between atoms: O1_1  and  C1_2 
REMARK    2  A    between atoms: C3_5  and  N1_6 
REMARK    3  A    between atoms: C4_7  and  C5_8 
REMARK    4  A    between atoms: C4_7  and  C13_17 
REMARK    5  A    between atoms: C5_8  and  C6_9 
REMARK    6  A    between atoms: C6_9  and  C7_10 
ROOT
HETATM    1  N1  UNL     1      24.675   2.377  52.627  1.00  0.00    -0.227 NA
HETATM    2  C4  UNL     1      24.068   1.313  52.920  1.00  0.00     0.048 C 
ENDROOT
BRANCH   2   3
HETATM    3  C5  UNL     1      24.956   0.334  53.608  1.00  0.00     0.065 C 
BRANCH   3   4
HETATM    4  C6  UNL     1      25.439  -0.783  52.751  1.00  0.00     0.044 C 
BRANCH   4   5
HETATM    5  C7  UNL     1      26.873  -0.992  53.063  1.00  0.00    -0.058 A 
HETATM    6  C8  UNL     1      27.596   0.007  53.692  1.00  0.00     0.010 A 
HETATM    7  C9  UNL     1      28.921  -0.069  54.030  1.00  0.00     0.043 A 
HETATM    8  C10 UNL     1      29.552  -1.256  53.698  1.00  0.00     0.116 A 
HETATM    9  F1  UNL     1      30.858  -1.405  54.000  1.00  0.00    -0.206 F 
HETATM   10  C11 UNL     1      28.901  -2.296  53.072  1.00  0.00     0.043 A 
HETATM   11  C12 UNL     1      27.569  -2.165  52.755  1.00  0.00     0.010 A 
ENDBRANCH   4   5
ENDBRANCH   3   4
ENDBRANCH   2   3
BRANCH   2  12
HETATM   12  C13 UNL     1      22.695   0.841  52.734  1.00  0.00    -0.011 A 
HETATM   13  C14 UNL     1      22.047   0.832  51.515  1.00  0.00     0.013 A 
HETATM   14  C15 UNL     1      20.756   0.380  51.383  1.00  0.00     0.001 A 
HETATM   15  C16 UNL     1      20.029  -0.090  52.453  1.00  0.00     0.000 A 
HETATM   16  C17 UNL     1      20.646  -0.094  53.679  1.00  0.00     0.001 A 
HETATM   17  C18 UNL     1      21.942   0.365  53.787  1.00  0.00     0.013 A 
ENDBRANCH   2  12
BRANCH   1  18
HETATM   18  C3  UNL     1      24.211   3.535  51.982  1.00  0.00     0.195 A 
HETATM   19  S1  UNL     1      25.007   4.062  50.313  1.00  0.00    -0.058 SA
HETATM   20  C2  UNL     1      23.995   5.466  50.135  1.00  0.00     0.111 A 
HETATM   21  C1  UNL     1      23.144   5.406  51.363  1.00  0.00     0.171 A 
HETATM   22  N2  UNL     1      23.371   4.389  52.181  1.00  0.00    -0.198 NA
BRANCH  21  23
HETATM   23  O1  UNL     1      22.117   6.273  51.801  1.00  0.00    -0.344 OA
HETATM   24  H1  UNL     1      21.190   5.982  52.005  1.00  0.00     0.219 HD
ENDBRANCH  21  23
ENDBRANCH   1  18
TORSDOF 6
ENDMDL
MODEL 9
REMARK VINA RESULT:      -8.1      3.901      6.106
REMARK  6 active torsions:
REMARK  status: ('A' for Active; 'I' for Inactive)
REMARK    1  A    between atoms: O1_1  and  C1_2 
REMARK    2  A    between atoms: C3_5  and  N1_6 
REMARK    3  A    between atoms: C4_7  and  C5_8 
REMARK    4  A    between atoms: C4_7  and  C13_17 
REMARK    5  A    between atoms: C5_8  and  C6_9 
REMARK    6  A    between atoms: C6_9  and  C7_10 
ROOT
HETATM    1  N1  UNL     1      23.462   2.227  51.132  1.00  0.00    -0.227 NA
HETATM    2  C4  UNL     1      23.615   1.677  52.254  1.00  0.00     0.048 C 
ENDROOT
BRANCH   2   3
HETATM    3  C5  UNL     1      24.883   2.096  52.914  1.00  0.00     0.065 C 
BRANCH   3   4
HETATM    4  C6  UNL     1      26.065   2.166  52.012  1.00  0.00     0.044 C 
BRANCH   4   5
HETATM    5  C7  UNL     1      27.095   1.251  52.559  1.00  0.00    -0.058 A 
HETATM    6  C8  UNL     1      26.925  -0.119  52.460  1.00  0.00     0.010 A 
HETATM    7  C9  UNL     1      27.804  -1.061  52.926  1.00  0.00     0.043 A 
HETATM    8  C10 UNL     1      28.940  -0.561  53.540  1.00  0.00     0.116 A 
HETATM    9  F1  UNL     1      29.852  -1.428  54.024  1.00  0.00    -0.206 F 
HETATM   10  C11 UNL     1      29.181   0.789  53.677  1.00  0.00     0.043 A 
HETATM   11  C12 UNL     1      28.263   1.690  53.190  1.00  0.00     0.010 A 
ENDBRANCH   4   5
ENDBRANCH   3   4
ENDBRANCH   2   3
BRANCH   2  12
HETATM   12  C13 UNL     1      22.823   0.727  53.039  1.00  0.00    -0.011 A 
HETATM   13  C14 UNL     1      23.244  -0.550  53.347  1.00  0.00     0.013 A 
HETATM   14  C15 UNL     1      22.469  -1.411  54.087  1.00  0.00     0.001 A 
HETATM   15  C16 UNL     1      21.228  -1.056  54.564  1.00  0.00     0.000 A 
HETATM   16  C17 UNL     1      20.781   0.208  54.274  1.00  0.00     0.001 A 
HETATM   17  C18 UNL     1      21.576   1.054  53.530  1.00  0.00     0.013 A 
ENDBRANCH   2  12
BRANCH   1  18
HETATM   18  C3  UNL     1      22.418   2.106  50.200  1.00  0.00     0.195 A 
HETATM   19  S1  UNL     1      22.669   2.784  48.418  1.00  0.00    -0.058 SA
HETATM   20  C2  UNL     1      21.083   2.308  47.884  1.00  0.00     0.111 A 
HETATM   21  C1  UNL     1      20.507   1.677  49.111  1.00  0.00     0.171 A 
HETATM   22  N2  UNL     1      21.292   1.652  50.178  1.00  0.00    -0.198 NA
BRANCH  21  23
HETATM   23  O1  UNL     1      19.238   1.090  49.321  1.00  0.00    -0.344 OA
HETATM   24  H1  UNL     1      18.425   1.596  49.583  1.00  0.00     0.219 HD
ENDBRANCH  21  23
ENDBRANCH   1  18
TORSDOF 6
ENDMDL
