MODEL 1
REMARK VINA RESULT:      -8.6      0.000      0.000
REMARK  6 active torsions:
REMARK  status: ('A' for Active; 'I' for Inactive)
REMARK    1  A    between atoms: C6_7  and  N1_8 
REMARK    2  A    between atoms: N1_8  and  C7_9 
REMARK    3  A    between atoms: C13_15  and  C14_16 
REMARK    4  A    between atoms: C14_16  and  O1_17 
REMARK    5  A    between atoms: O1_17  and  C15_18 
REMARK    6  A    between atoms: C15_18  and  C16_19 
ROOT
HETATM    1  C7  UNL     1      24.944   2.538  51.677  1.00  0.00     0.338 C 
HETATM    2  C8  UNL     1      25.349   2.994  50.400  1.00  0.00     0.085 C 
HETATM    3  C9  UNL     1      25.887   4.172  49.761  1.00  0.00    -0.020 C 
HETATM    4  C10 UNL     1      25.180   5.069  48.917  1.00  0.00     0.036 C 
HETATM    5  C11 UNL     1      23.902   4.291  49.082  1.00  0.00     0.175 A 
HETATM    6  C12 UNL     1      23.318   3.260  48.430  1.00  0.00     0.052 A 
HETATM    7  C13 UNL     1      22.398   2.844  49.422  1.00  0.00     0.008 A 
HETATM    8  C20 UNL     1      22.637   3.694  50.387  1.00  0.00     0.245 A 
HETATM    9  C21 UNL     1      22.529   4.239  51.566  1.00  0.00     0.405 A 
HETATM   10  N3  UNL     1      22.668   5.025  52.647  1.00  0.00    -0.212 NA
HETATM   11  C22 UNL     1      23.635   6.011  52.371  1.00  0.00     0.262 A 
HETATM   12  N4  UNL     1      23.902   5.596  51.166  1.00  0.00    -0.062 NA
HETATM   13  N5  UNL     1      23.521   4.676  50.364  1.00  0.00     0.155 N 
HETATM   14  N6  UNL     1      22.498   2.890  52.231  1.00  0.00    -0.276 N 
HETATM   15  N7  UNL     1      23.806   2.602  52.434  1.00  0.00    -0.304 N 
HETATM   16  H27 UNL     1      21.538   2.577  52.356  1.00  0.00     0.185 HD
HETATM   17  H28 UNL     1      23.999   2.171  53.394  1.00  0.00     0.182 HD
ENDROOT
BRANCH   7  18
HETATM   18  C14 UNL     1      21.393   1.849  49.609  1.00  0.00     0.208 C 
BRANCH  18  19
HETATM   19  O1  UNL     1      21.733   0.845  50.453  1.00  0.00    -0.384 OA
BRANCH  19  20
HETATM   20  C15 UNL     1      20.776   0.242  51.200  1.00  0.00     0.201 C 
BRANCH  20  21
HETATM   21  C16 UNL     1      21.207  -0.378  52.499  1.00  0.00     0.173 C 
HETATM   22  C17 UNL     1      20.380   0.257  53.590  1.00  0.00     0.303 C 
HETATM   23  N2  UNL     1      20.854  -0.069  54.914  1.00  0.00     0.088 N 
HETATM   24  C18 UNL     1      21.931  -1.037  54.883  1.00  0.00     0.295 C 
HETATM   25  H21 UNL     1      21.100   0.802  55.394  1.00  0.00     0.316 HD
HETATM   26  C19 UNL     1      22.992  -0.453  53.978  1.00  0.00     0.198 C 
HETATM   27  O2  UNL     1      22.550  -0.277  52.685  1.00  0.00    -0.380 OA
ENDBRANCH  20  21
ENDBRANCH  19  20
ENDBRANCH  18  19
ENDBRANCH   7  18
BRANCH   1  28
HETATM   28  N1  UNL     1      26.124   2.549  52.624  1.00  0.00     0.122 NA
HETATM   29  H7  UNL     1      25.757   2.430  53.584  1.00  0.00     0.320 HD
BRANCH  28  30
HETATM   30  C6  UNL     1      27.177   1.690  52.311  1.00  0.00     0.307 C 
HETATM   31  C1  UNL     1      28.049   1.655  53.582  1.00  0.00     0.127 C 
HETATM   32  F1  UNL     1      29.079   2.540  53.680  1.00  0.00    -0.208 F 
HETATM   33  C2  UNL     1      27.800   0.783  54.564  1.00  0.00     0.017 C 
HETATM   34  C3  UNL     1      26.655  -0.197  54.449  1.00  0.00     0.057 C 
HETATM   35  C4  UNL     1      26.663  -0.651  53.029  1.00  0.00    -0.024 C 
HETATM   36  C5  UNL     1      26.911   0.259  52.061  1.00  0.00     0.012 C 
ENDBRANCH  28  30
ENDBRANCH   1  28
TORSDOF 6
ENDMDL
MODEL 2
REMARK VINA RESULT:      -8.3      2.055      2.670
REMARK  6 active torsions:
REMARK  status: ('A' for Active; 'I' for Inactive)
REMARK    1  A    between atoms: C6_7  and  N1_8 
REMARK    2  A    between atoms: N1_8  and  C7_9 
REMARK    3  A    between atoms: C13_15  and  C14_16 
REMARK    4  A    between atoms: C14_16  and  O1_17 
REMARK    5  A    between atoms: O1_17  and  C15_18 
REMARK    6  A    between atoms: C15_18  and  C16_19 
ROOT
HETATM    1  C7  UNL     1      22.644   2.106  51.167  1.00  0.00     0.338 C 
HETATM    2  C8  UNL     1      22.425   2.186  49.771  1.00  0.00     0.085 C 
HETATM    3  C9  UNL     1      23.015   2.765  48.586  1.00  0.00    -0.020 C 
HETATM    4  C10 UNL     1      22.528   3.889  47.867  1.00  0.00     0.036 C 
HETATM    5  C11 UNL     1      21.388   4.072  48.832  1.00  0.00     0.175 A 
HETATM    6  C12 UNL     1      20.120   3.609  48.914  1.00  0.00     0.052 A 
HETATM    7  C13 UNL     1      19.860   3.874  50.280  1.00  0.00     0.008 A 
HETATM    8  C20 UNL     1      20.985   4.413  50.671  1.00  0.00     0.245 A 
HETATM    9  C21 UNL     1      21.848   4.933  51.497  1.00  0.00     0.405 A 
HETATM   10  N3  UNL     1      22.941   5.488  52.049  1.00  0.00    -0.212 NA
HETATM   11  C22 UNL     1      23.919   5.658  51.051  1.00  0.00     0.262 A 
HETATM   12  N4  UNL     1      23.211   5.142  50.088  1.00  0.00    -0.062 NA
HETATM   13  N5  UNL     1      22.048   4.637  49.919  1.00  0.00     0.155 N 
HETATM   14  N6  UNL     1      21.522   3.908  52.547  1.00  0.00    -0.276 N 
HETATM   15  N7  UNL     1      22.351   2.876  52.259  1.00  0.00    -0.304 N 
HETATM   16  H27 UNL     1      20.802   4.258  53.176  1.00  0.00     0.185 HD
HETATM   17  H28 UNL     1      22.799   2.439  53.126  1.00  0.00     0.182 HD
ENDROOT
BRANCH   7  18
HETATM   18  C14 UNL     1      18.802   3.717  51.225  1.00  0.00     0.208 C 
BRANCH  18  19
HETATM   19  O1  UNL     1      18.987   2.727  52.131  1.00  0.00    -0.384 OA
BRANCH  19  20
HETATM   20  C15 UNL     1      18.897   1.432  51.740  1.00  0.00     0.201 C 
BRANCH  20  21
HETATM   21  C16 UNL     1      19.697   0.423  52.512  1.00  0.00     0.173 C 
HETATM   22  C17 UNL     1      18.731  -0.627  53.005  1.00  0.00     0.303 C 
HETATM   23  N2  UNL     1      19.325  -1.529  53.963  1.00  0.00     0.088 N 
HETATM   24  C18 UNL     1      20.746  -1.294  54.124  1.00  0.00     0.295 C 
HETATM   25  H21 UNL     1      18.798  -1.465  54.838  1.00  0.00     0.316 HD
HETATM   26  C19 UNL     1      20.888   0.168  54.486  1.00  0.00     0.198 C 
HETATM   27  O2  UNL     1      20.434   1.008  53.493  1.00  0.00    -0.380 OA
ENDBRANCH  20  21
ENDBRANCH  19  20
ENDBRANCH  18  19
ENDBRANCH   7  18
BRANCH   1  28
HETATM   28  N1  UNL     1      23.957   1.405  51.441  1.00  0.00     0.122 NA
HETATM   29  H7  UNL     1      24.648   1.755  50.755  1.00  0.00     0.320 HD
BRANCH  28  30
HETATM   30  C6  UNL     1      24.408   1.430  52.761  1.00  0.00     0.307 C 
HETATM   31  C1  UNL     1      24.847  -0.017  53.055  1.00  0.00     0.127 C 
HETATM   32  F1  UNL     1      23.936  -0.867  53.606  1.00  0.00    -0.208 F 
HETATM   33  C2  UNL     1      26.087  -0.432  52.776  1.00  0.00     0.017 C 
HETATM   34  C3  UNL     1      27.093   0.516  52.165  1.00  0.00     0.057 C 
HETATM   35  C4  UNL     1      26.878   1.821  52.852  1.00  0.00    -0.024 C 
HETATM   36  C5  UNL     1      25.611   2.212  53.113  1.00  0.00     0.012 C 
ENDBRANCH  28  30
ENDBRANCH   1  28
TORSDOF 6
ENDMDL
MODEL 3
REMARK VINA RESULT:      -8.3      2.361      5.188
REMARK  6 active torsions:
REMARK  status: ('A' for Active; 'I' for Inactive)
REMARK    1  A    between atoms: C6_7  and  N1_8 
REMARK    2  A    between atoms: N1_8  and  C7_9 
REMARK    3  A    between atoms: C13_15  and  C14_16 
REMARK    4  A    between atoms: C14_16  and  O1_17 
REMARK    5  A    between atoms: O1_17  and  C15_18 
REMARK    6  A    between atoms: C15_18  and  C16_19 
ROOT
HETATM    1  C7  UNL     1      24.718   3.779  50.469  1.00  0.00     0.338 C 
HETATM    2  C8  UNL     1      23.998   3.041  49.499  1.00  0.00     0.085 C 
HETATM    3  C9  UNL     1      22.954   3.221  48.517  1.00  0.00    -0.020 C 
HETATM    4  C10 UNL     1      21.613   2.768  48.621  1.00  0.00     0.036 C 
HETATM    5  C11 UNL     1      21.863   2.193  49.989  1.00  0.00     0.175 A 
HETATM    6  C12 UNL     1      22.277   0.996  50.463  1.00  0.00     0.052 A 
HETATM    7  C13 UNL     1      22.664   1.380  51.769  1.00  0.00     0.008 A 
HETATM    8  C20 UNL     1      22.397   2.660  51.766  1.00  0.00     0.245 A 
HETATM    9  C21 UNL     1      22.340   3.879  52.222  1.00  0.00     0.405 A 
HETATM   10  N3  UNL     1      22.132   5.199  52.367  1.00  0.00    -0.212 NA
HETATM   11  C22 UNL     1      21.549   5.701  51.189  1.00  0.00     0.262 A 
HETATM   12  N4  UNL     1      21.544   4.564  50.553  1.00  0.00    -0.062 NA
HETATM   13  N5  UNL     1      21.881   3.349  50.764  1.00  0.00     0.155 N 
HETATM   14  N6  UNL     1      23.725   3.771  52.798  1.00  0.00    -0.276 N 
HETATM   15  N7  UNL     1      24.530   4.144  51.774  1.00  0.00    -0.304 N 
HETATM   16  H27 UNL     1      23.684   3.472  53.770  1.00  0.00     0.185 HD
HETATM   17  H28 UNL     1      25.330   4.786  52.077  1.00  0.00     0.182 HD
ENDROOT
BRANCH   7  18
HETATM   18  C14 UNL     1      23.209   0.790  52.948  1.00  0.00     0.208 C 
BRANCH  18  19
HETATM   19  O1  UNL     1      24.501   1.110  53.204  1.00  0.00    -0.384 OA
BRANCH  19  20
HETATM   20  C15 UNL     1      25.486   0.610  52.418  1.00  0.00     0.201 C 
BRANCH  20  21
HETATM   21  C16 UNL     1      26.898   0.766  52.903  1.00  0.00     0.173 C 
HETATM   22  C17 UNL     1      26.938   0.260  54.325  1.00  0.00     0.303 C 
HETATM   23  N2  UNL     1      28.177   0.572  54.996  1.00  0.00     0.088 N 
HETATM   24  C18 UNL     1      29.143   1.180  54.102  1.00  0.00     0.295 C 
HETATM   25  H21 UNL     1      27.966   1.143  55.819  1.00  0.00     0.316 HD
HETATM   26  C19 UNL     1      28.452   2.382  53.498  1.00  0.00     0.198 C 
HETATM   27  O2  UNL     1      27.346   2.041  52.751  1.00  0.00    -0.380 OA
ENDBRANCH  20  21
ENDBRANCH  19  20
ENDBRANCH  18  19
ENDBRANCH   7  18
BRANCH   1  28
HETATM   28  N1  UNL     1      25.502   4.883  49.795  1.00  0.00     0.122 NA
HETATM   29  H7  UNL     1      26.051   4.456  49.029  1.00  0.00     0.320 HD
BRANCH  28  30
HETATM   30  C6  UNL     1      24.777   6.011  49.408  1.00  0.00     0.307 C 
HETATM   31  C1  UNL     1      25.224   7.120  50.380  1.00  0.00     0.127 C 
HETATM   32  F1  UNL     1      24.502   7.308  51.520  1.00  0.00    -0.208 F 
HETATM   33  C2  UNL     1      26.294   7.877  50.116  1.00  0.00     0.017 C 
HETATM   34  C3  UNL     1      27.090   7.664  48.849  1.00  0.00     0.057 C 
HETATM   35  C4  UNL     1      26.081   7.398  47.786  1.00  0.00    -0.024 C 
HETATM   36  C5  UNL     1      25.016   6.622  48.086  1.00  0.00     0.012 C 
ENDBRANCH  28  30
ENDBRANCH   1  28
TORSDOF 6
ENDMDL
MODEL 4
REMARK VINA RESULT:      -7.8      2.765      6.515
REMARK  6 active torsions:
REMARK  status: ('A' for Active; 'I' for Inactive)
REMARK    1  A    between atoms: C6_7  and  N1_8 
REMARK    2  A    between atoms: N1_8  and  C7_9 
REMARK    3  A    between atoms: C13_15  and  C14_16 
REMARK    4  A    between atoms: C14_16  and  O1_17 
REMARK    5  A    between atoms: O1_17  and  C15_18 
REMARK    6  A    between atoms: C15_18  and  C16_19 
ROOT
HETATM    1  C7  UNL     1      22.736   1.928  49.717  1.00  0.00     0.338 C 
HETATM    2  C8  UNL     1      21.829   0.985  50.257  1.00  0.00     0.085 C 
HETATM    3  C9  UNL     1      20.480   0.907  50.766  1.00  0.00    -0.020 C 
HETATM    4  C10 UNL     1      20.099   0.780  52.128  1.00  0.00     0.036 C 
HETATM    5  C11 UNL     1      21.534   0.809  52.580  1.00  0.00     0.175 A 
HETATM    6  C12 UNL     1      22.491  -0.125  52.788  1.00  0.00     0.052 A 
HETATM    7  C13 UNL     1      23.638   0.706  52.775  1.00  0.00     0.008 A 
HETATM    8  C20 UNL     1      23.114   1.888  52.577  1.00  0.00     0.245 A 
HETATM    9  C21 UNL     1      23.089   3.175  52.374  1.00  0.00     0.405 A 
HETATM   10  N3  UNL     1      22.705   4.445  52.161  1.00  0.00    -0.212 NA
HETATM   11  C22 UNL     1      21.300   4.490  52.090  1.00  0.00     0.262 A 
HETATM   12  N4  UNL     1      21.121   3.210  52.257  1.00  0.00    -0.062 NA
HETATM   13  N5  UNL     1      21.829   2.162  52.445  1.00  0.00     0.155 N 
HETATM   14  N6  UNL     1      24.232   3.085  51.401  1.00  0.00    -0.276 N 
HETATM   15  N7  UNL     1      23.626   2.840  50.214  1.00  0.00    -0.304 N 
HETATM   16  H27 UNL     1      25.118   3.240  51.877  1.00  0.00     0.185 HD
HETATM   17  H28 UNL     1      24.042   3.402  49.404  1.00  0.00     0.182 HD
ENDROOT
BRANCH   7  18
HETATM   18  C14 UNL     1      25.053   0.589  52.910  1.00  0.00     0.208 C 
BRANCH  18  19
HETATM   19  O1  UNL     1      25.470  -0.070  54.018  1.00  0.00    -0.384 OA
BRANCH  19  20
HETATM   20  C15 UNL     1      26.447   0.466  54.790  1.00  0.00     0.201 C 
BRANCH  20  21
HETATM   21  C16 UNL     1      27.847  -0.033  54.574  1.00  0.00     0.173 C 
HETATM   22  C17 UNL     1      28.628   1.094  53.942  1.00  0.00     0.303 C 
HETATM   23  N2  UNL     1      29.922   0.677  53.459  1.00  0.00     0.088 N 
HETATM   24  C18 UNL     1      30.219  -0.697  53.814  1.00  0.00     0.295 C 
HETATM   25  H21 UNL     1      29.966   0.858  52.452  1.00  0.00     0.316 HD
HETATM   26  C19 UNL     1      29.070  -1.523  53.283  1.00  0.00     0.198 C 
HETATM   27  O2  UNL     1      27.864  -1.191  53.862  1.00  0.00    -0.380 OA
ENDBRANCH  20  21
ENDBRANCH  19  20
ENDBRANCH  18  19
ENDBRANCH   7  18
BRANCH   1  28
HETATM   28  N1  UNL     1      22.184   2.487  48.424  1.00  0.00     0.122 NA
HETATM   29  H7  UNL     1      21.563   1.770  48.011  1.00  0.00     0.320 HD
BRANCH  28  30
HETATM   30  C6  UNL     1      21.612   3.758  48.492  1.00  0.00     0.307 C 
HETATM   31  C1  UNL     1      22.367   4.588  47.435  1.00  0.00     0.127 C 
HETATM   32  F1  UNL     1      23.463   5.292  47.833  1.00  0.00    -0.208 F 
HETATM   33  C2  UNL     1      21.961   4.615  46.162  1.00  0.00     0.017 C 
HETATM   34  C3  UNL     1      20.744   3.832  45.728  1.00  0.00     0.057 C 
HETATM   35  C4  UNL     1      19.755   3.991  46.832  1.00  0.00    -0.024 C 
HETATM   36  C5  UNL     1      20.199   3.950  48.107  1.00  0.00     0.012 C 
ENDBRANCH  28  30
ENDBRANCH   1  28
TORSDOF 6
ENDMDL
MODEL 5
REMARK VINA RESULT:      -7.8      2.541      5.492
REMARK  6 active torsions:
REMARK  status: ('A' for Active; 'I' for Inactive)
REMARK    1  A    between atoms: C6_7  and  N1_8 
REMARK    2  A    between atoms: N1_8  and  C7_9 
REMARK    3  A    between atoms: C13_15  and  C14_16 
REMARK    4  A    between atoms: C14_16  and  O1_17 
REMARK    5  A    between atoms: O1_17  and  C15_18 
REMARK    6  A    between atoms: C15_18  and  C16_19 
ROOT
HETATM    1  C7  UNL     1      23.606   2.193  51.636  1.00  0.00     0.338 C 
HETATM    2  C8  UNL     1      22.413   2.081  52.389  1.00  0.00     0.085 C 
HETATM    3  C9  UNL     1      21.235   1.252  52.486  1.00  0.00    -0.020 C 
HETATM    4  C10 UNL     1      19.926   1.595  52.057  1.00  0.00     0.036 C 
HETATM    5  C11 UNL     1      20.391   2.935  51.555  1.00  0.00     0.175 A 
HETATM    6  C12 UNL     1      20.510   4.171  52.093  1.00  0.00     0.052 A 
HETATM    7  C13 UNL     1      21.397   4.752  51.155  1.00  0.00     0.008 A 
HETATM    8  C20 UNL     1      21.585   3.769  50.313  1.00  0.00     0.245 A 
HETATM    9  C21 UNL     1      22.085   3.142  49.286  1.00  0.00     0.405 A 
HETATM   10  N3  UNL     1      22.386   2.229  48.347  1.00  0.00    -0.212 NA
HETATM   11  C22 UNL     1      21.661   1.051  48.608  1.00  0.00     0.262 A 
HETATM   12  N4  UNL     1      21.076   1.496  49.683  1.00  0.00    -0.062 NA
HETATM   13  N5  UNL     1      21.038   2.568  50.378  1.00  0.00     0.155 N 
HETATM   14  N6  UNL     1      23.461   3.669  49.584  1.00  0.00    -0.276 N 
HETATM   15  N7  UNL     1      23.975   2.759  50.447  1.00  0.00    -0.304 N 
HETATM   16  H27 UNL     1      23.634   4.528  49.066  1.00  0.00     0.185 HD
HETATM   17  H28 UNL     1      24.995   2.512  50.242  1.00  0.00     0.182 HD
ENDROOT
BRANCH   7  18
HETATM   18  C14 UNL     1      22.059   5.995  50.926  1.00  0.00     0.208 C 
BRANCH  18  19
HETATM   19  O1  UNL     1      23.388   5.993  51.191  1.00  0.00    -0.384 OA
BRANCH  19  20
HETATM   20  C15 UNL     1      24.142   7.068  50.853  1.00  0.00     0.201 C 
BRANCH  20  21
HETATM   21  C16 UNL     1      25.422   6.804  50.113  1.00  0.00     0.173 C 
HETATM   22  C17 UNL     1      25.326   7.523  48.789  1.00  0.00     0.303 C 
HETATM   23  N2  UNL     1      26.383   7.161  47.877  1.00  0.00     0.088 N 
HETATM   24  C18 UNL     1      27.364   6.292  48.497  1.00  0.00     0.295 C 
HETATM   25  H21 UNL     1      25.961   6.764  47.032  1.00  0.00     0.316 HD
HETATM   26  C19 UNL     1      26.591   5.112  49.041  1.00  0.00     0.198 C 
HETATM   27  O2  UNL     1      25.679   5.473  50.008  1.00  0.00    -0.380 OA
ENDBRANCH  20  21
ENDBRANCH  19  20
ENDBRANCH  18  19
ENDBRANCH   7  18
BRANCH   1  28
HETATM   28  N1  UNL     1      24.456   0.957  51.835  1.00  0.00     0.122 NA
HETATM   29  H7  UNL     1      24.275   0.320  51.041  1.00  0.00     0.320 HD
BRANCH  28  30
HETATM   30  C6  UNL     1      25.811   1.172  52.090  1.00  0.00     0.307 C 
HETATM   31  C1  UNL     1      25.899   1.379  53.614  1.00  0.00     0.127 C 
HETATM   32  F1  UNL     1      25.824   2.651  54.096  1.00  0.00    -0.208 F 
HETATM   33  C2  UNL     1      26.040   0.340  54.444  1.00  0.00     0.017 C 
HETATM   34  C3  UNL     1      26.122  -1.068  53.903  1.00  0.00     0.057 C 
HETATM   35  C4  UNL     1      26.960  -0.973  52.674  1.00  0.00    -0.024 C 
HETATM   36  C5  UNL     1      26.785   0.087  51.854  1.00  0.00     0.012 C 
ENDBRANCH  28  30
ENDBRANCH   1  28
TORSDOF 6
ENDMDL
MODEL 6
REMARK VINA RESULT:      -7.7      3.807      6.992
REMARK  6 active torsions:
REMARK  status: ('A' for Active; 'I' for Inactive)
REMARK    1  A    between atoms: C6_7  and  N1_8 
REMARK    2  A    between atoms: N1_8  and  C7_9 
REMARK    3  A    between atoms: C13_15  and  C14_16 
REMARK    4  A    between atoms: C14_16  and  O1_17 
REMARK    5  A    between atoms: O1_17  and  C15_18 
REMARK    6  A    between atoms: C15_18  and  C16_19 
ROOT
HETATM    1  C7  UNL     1      23.577   4.009  52.336  1.00  0.00     0.338 C 
HETATM    2  C8  UNL     1      22.223   4.421  52.316  1.00  0.00     0.085 C 
HETATM    3  C9  UNL     1      20.951   4.029  51.756  1.00  0.00    -0.020 C 
HETATM    4  C10 UNL     1      20.274   4.662  50.680  1.00  0.00     0.036 C 
HETATM    5  C11 UNL     1      21.382   5.665  50.510  1.00  0.00     0.175 A 
HETATM    6  C12 UNL     1      21.654   6.887  51.023  1.00  0.00     0.052 A 
HETATM    7  C13 UNL     1      23.035   6.968  50.720  1.00  0.00     0.008 A 
HETATM    8  C20 UNL     1      23.249   5.826  50.120  1.00  0.00     0.245 A 
HETATM    9  C21 UNL     1      23.931   4.882  49.535  1.00  0.00     0.405 A 
HETATM   10  N3  UNL     1      24.307   3.751  48.915  1.00  0.00    -0.212 NA
HETATM   11  C22 UNL     1      23.178   2.928  48.741  1.00  0.00     0.262 A 
HETATM   12  N4  UNL     1      22.339   3.738  49.321  1.00  0.00    -0.062 NA
HETATM   13  N5  UNL     1      22.349   4.888  49.879  1.00  0.00     0.155 N 
HETATM   14  N6  UNL     1      25.046   5.012  50.535  1.00  0.00    -0.276 N 
HETATM   15  N7  UNL     1      24.675   4.183  51.540  1.00  0.00    -0.304 N 
HETATM   16  H27 UNL     1      25.758   5.654  50.192  1.00  0.00     0.185 HD
HETATM   17  H28 UNL     1      25.485   3.600  51.926  1.00  0.00     0.182 HD
ENDROOT
BRANCH   7  18
HETATM   18  C14 UNL     1      24.122   7.876  50.887  1.00  0.00     0.208 C 
BRANCH  18  19
HETATM   19  O1  UNL     1      24.934   8.001  49.808  1.00  0.00    -0.384 OA
BRANCH  19  20
HETATM   20  C15 UNL     1      25.173   9.229  49.286  1.00  0.00     0.201 C 
BRANCH  20  21
HETATM   21  C16 UNL     1      26.603   9.590  49.004  1.00  0.00     0.173 C 
HETATM   22  C17 UNL     1      27.432   9.040  50.139  1.00  0.00     0.303 C 
HETATM   23  N2  UNL     1      28.793   9.520  50.122  1.00  0.00     0.088 N 
HETATM   24  C18 UNL     1      29.077  10.311  48.941  1.00  0.00     0.295 C 
HETATM   25  H21 UNL     1      28.974  10.016  50.999  1.00  0.00     0.316 HD
HETATM   26  C19 UNL     1      28.039  11.409  48.915  1.00  0.00     0.198 C 
HETATM   27  O2  UNL     1      26.754  10.925  48.797  1.00  0.00    -0.380 OA
ENDBRANCH  20  21
ENDBRANCH  19  20
ENDBRANCH  18  19
ENDBRANCH   7  18
BRANCH   1  28
HETATM   28  N1  UNL     1      23.686   2.640  52.971  1.00  0.00     0.122 NA
HETATM   29  H7  UNL     1      22.940   2.563  53.683  1.00  0.00     0.320 HD
BRANCH  28  30
HETATM   30  C6  UNL     1      23.744   1.554  52.096  1.00  0.00     0.307 C 
HETATM   31  C1  UNL     1      24.624   0.514  52.816  1.00  0.00     0.127 C 
HETATM   32  F1  UNL     1      25.963   0.517  52.564  1.00  0.00    -0.208 F 
HETATM   33  C2  UNL     1      24.091  -0.368  53.668  1.00  0.00     0.017 C 
HETATM   34  C3  UNL     1      22.605  -0.367  53.943  1.00  0.00     0.057 C 
HETATM   35  C4  UNL     1      21.958  -0.115  52.625  1.00  0.00    -0.024 C 
HETATM   36  C5  UNL     1      22.519   0.788  51.791  1.00  0.00     0.012 C 
ENDBRANCH  28  30
ENDBRANCH   1  28
TORSDOF 6
ENDMDL
MODEL 7
REMARK VINA RESULT:      -7.5      2.748      3.484
REMARK  6 active torsions:
REMARK  status: ('A' for Active; 'I' for Inactive)
REMARK    1  A    between atoms: C6_7  and  N1_8 
REMARK    2  A    between atoms: N1_8  and  C7_9 
REMARK    3  A    between atoms: C13_15  and  C14_16 
REMARK    4  A    between atoms: C14_16  and  O1_17 
REMARK    5  A    between atoms: O1_17  and  C15_18 
REMARK    6  A    between atoms: C15_18  and  C16_19 
ROOT
HETATM    1  C7  UNL     1      21.902   1.296  50.761  1.00  0.00     0.338 C 
HETATM    2  C8  UNL     1      22.318   1.849  49.527  1.00  0.00     0.085 C 
HETATM    3  C9  UNL     1      23.189   2.878  49.008  1.00  0.00    -0.020 C 
HETATM    4  C10 UNL     1      22.787   4.124  48.458  1.00  0.00     0.036 C 
HETATM    5  C11 UNL     1      21.335   3.819  48.710  1.00  0.00     0.175 A 
HETATM    6  C12 UNL     1      20.347   3.220  48.007  1.00  0.00     0.052 A 
HETATM    7  C13 UNL     1      19.442   2.944  49.060  1.00  0.00     0.008 A 
HETATM    8  C20 UNL     1      20.076   3.428  50.097  1.00  0.00     0.245 A 
HETATM    9  C21 UNL     1      20.297   3.708  51.350  1.00  0.00     0.405 A 
HETATM   10  N3  UNL     1      20.827   4.144  52.505  1.00  0.00    -0.212 NA
HETATM   11  C22 UNL     1      22.059   4.769  52.234  1.00  0.00     0.262 A 
HETATM   12  N4  UNL     1      22.030   4.560  50.949  1.00  0.00    -0.062 NA
HETATM   13  N5  UNL     1      21.255   4.024  50.084  1.00  0.00     0.155 N 
HETATM   14  N6  UNL     1      19.833   2.343  51.778  1.00  0.00    -0.276 N 
HETATM   15  N7  UNL     1      20.953   1.584  51.703  1.00  0.00    -0.304 N 
HETATM   16  H27 UNL     1      18.843   2.362  52.013  1.00  0.00     0.185 HD
HETATM   17  H28 UNL     1      21.067   0.916  52.531  1.00  0.00     0.182 HD
ENDROOT
BRANCH   7  18
HETATM   18  C14 UNL     1      18.163   2.341  49.251  1.00  0.00     0.208 C 
BRANCH  18  19
HETATM   19  O1  UNL     1      18.194   1.056  49.679  1.00  0.00    -0.384 OA
BRANCH  19  20
HETATM   20  C15 UNL     1      17.161   0.565  50.407  1.00  0.00     0.201 C 
BRANCH  20  21
HETATM   21  C16 UNL     1      17.472  -0.523  51.395  1.00  0.00     0.173 C 
HETATM   22  C17 UNL     1      16.217  -0.767  52.197  1.00  0.00     0.303 C 
HETATM   23  N2  UNL     1      16.441  -1.617  53.342  1.00  0.00     0.088 N 
HETATM   24  C18 UNL     1      17.791  -2.143  53.374  1.00  0.00     0.295 C 
HETATM   25  H21 UNL     1      16.183  -1.097  54.186  1.00  0.00     0.316 HD
HETATM   26  C19 UNL     1      18.708  -0.943  53.312  1.00  0.00     0.198 C 
HETATM   27  O2  UNL     1      18.566  -0.224  52.146  1.00  0.00    -0.380 OA
ENDBRANCH  20  21
ENDBRANCH  19  20
ENDBRANCH  18  19
ENDBRANCH   7  18
BRANCH   1  28
HETATM   28  N1  UNL     1      23.090   0.695  51.480  1.00  0.00     0.122 NA
HETATM   29  H7  UNL     1      23.867   0.627  50.800  1.00  0.00     0.320 HD
BRANCH  28  30
HETATM   30  C6  UNL     1      23.448   1.290  52.690  1.00  0.00     0.307 C 
HETATM   31  C1  UNL     1      23.938   0.125  53.573  1.00  0.00     0.127 C 
HETATM   32  F1  UNL     1      23.035  -0.489  54.386  1.00  0.00    -0.208 F 
HETATM   33  C2  UNL     1      25.213  -0.276  53.541  1.00  0.00     0.017 C 
HETATM   34  C3  UNL     1      26.210   0.411  52.636  1.00  0.00     0.057 C 
HETATM   35  C4  UNL     1      25.884   1.863  52.715  1.00  0.00    -0.024 C 
HETATM   36  C5  UNL     1      24.584   2.232  52.738  1.00  0.00     0.012 C 
ENDBRANCH  28  30
ENDBRANCH   1  28
TORSDOF 6
ENDMDL
MODEL 8
REMARK VINA RESULT:      -7.4      3.167      6.516
REMARK  6 active torsions:
REMARK  status: ('A' for Active; 'I' for Inactive)
REMARK    1  A    between atoms: C6_7  and  N1_8 
REMARK    2  A    between atoms: N1_8  and  C7_9 
REMARK    3  A    between atoms: C13_15  and  C14_16 
REMARK    4  A    between atoms: C14_16  and  O1_17 
REMARK    5  A    between atoms: O1_17  and  C15_18 
REMARK    6  A    between atoms: C15_18  and  C16_19 
ROOT
HETATM    1  C7  UNL     1      22.960   2.918  51.909  1.00  0.00     0.338 C 
HETATM    2  C8  UNL     1      21.784   3.665  52.157  1.00  0.00     0.085 C 
HETATM    3  C9  UNL     1      20.348   3.508  52.152  1.00  0.00    -0.020 C 
HETATM    4  C10 UNL     1      19.448   4.020  51.180  1.00  0.00     0.036 C 
HETATM    5  C11 UNL     1      20.576   4.614  50.380  1.00  0.00     0.175 A 
HETATM    6  C12 UNL     1      21.222   5.802  50.370  1.00  0.00     0.052 A 
HETATM    7  C13 UNL     1      22.392   5.430  49.666  1.00  0.00     0.008 A 
HETATM    8  C20 UNL     1      22.174   4.162  49.428  1.00  0.00     0.245 A 
HETATM    9  C21 UNL     1      22.425   2.957  49.002  1.00  0.00     0.405 A 
HETATM   10  N3  UNL     1      22.351   1.651  48.695  1.00  0.00    -0.212 NA
HETATM   11  C22 UNL     1      21.111   1.148  49.133  1.00  0.00     0.262 A 
HETATM   12  N4  UNL     1      20.691   2.271  49.643  1.00  0.00    -0.062 NA
HETATM   13  N5  UNL     1      21.101   3.475  49.775  1.00  0.00     0.155 N 
HETATM   14  N6  UNL     1      23.830   3.018  49.533  1.00  0.00    -0.276 N 
HETATM   15  N7  UNL     1      23.710   2.590  50.813  1.00  0.00    -0.304 N 
HETATM   16  H27 UNL     1      24.470   3.340  48.810  1.00  0.00     0.185 HD
HETATM   17  H28 UNL     1      24.490   1.921  51.109  1.00  0.00     0.182 HD
ENDROOT
BRANCH   7  18
HETATM   18  C14 UNL     1      23.606   6.022  49.205  1.00  0.00     0.208 C 
BRANCH  18  19
HETATM   19  O1  UNL     1      24.708   5.701  49.925  1.00  0.00    -0.384 OA
BRANCH  19  20
HETATM   20  C15 UNL     1      25.935   5.804  49.358  1.00  0.00     0.201 C 
BRANCH  20  21
HETATM   21  C16 UNL     1      26.463   7.188  49.110  1.00  0.00     0.173 C 
HETATM   22  C17 UNL     1      27.839   7.037  48.506  1.00  0.00     0.303 C 
HETATM   23  N2  UNL     1      28.561   8.284  48.438  1.00  0.00     0.088 N 
HETATM   24  C18 UNL     1      27.743   9.410  48.843  1.00  0.00     0.295 C 
HETATM   25  H21 UNL     1      29.424   8.189  48.981  1.00  0.00     0.316 HD
HETATM   26  C19 UNL     1      27.226   9.074  50.224  1.00  0.00     0.198 C 
HETATM   27  O2  UNL     1      26.428   7.950  50.235  1.00  0.00    -0.380 OA
ENDBRANCH  20  21
ENDBRANCH  19  20
ENDBRANCH  18  19
ENDBRANCH   7  18
BRANCH   1  28
HETATM   28  N1  UNL     1      23.053   1.767  52.886  1.00  0.00     0.122 NA
HETATM   29  H7  UNL     1      22.481   2.011  53.714  1.00  0.00     0.320 HD
BRANCH  28  30
HETATM   30  C6  UNL     1      22.790   0.497  52.373  1.00  0.00     0.307 C 
HETATM   31  C1  UNL     1      23.505  -0.473  53.334  1.00  0.00     0.127 C 
HETATM   32  F1  UNL     1      24.780  -0.849  53.038  1.00  0.00    -0.208 F 
HETATM   33  C2  UNL     1      22.894  -0.931  54.432  1.00  0.00     0.017 C 
HETATM   34  C3  UNL     1      21.479  -0.510  54.754  1.00  0.00     0.057 C 
HETATM   35  C4  UNL     1      20.761  -0.498  53.448  1.00  0.00    -0.024 C 
HETATM   36  C5  UNL     1      21.407  -0.020  52.361  1.00  0.00     0.012 C 
ENDBRANCH  28  30
ENDBRANCH   1  28
TORSDOF 6
ENDMDL
MODEL 9
REMARK VINA RESULT:      -7.4      7.320     10.768
REMARK  6 active torsions:
REMARK  status: ('A' for Active; 'I' for Inactive)
REMARK    1  A    between atoms: C6_7  and  N1_8 
REMARK    2  A    between atoms: N1_8  and  C7_9 
REMARK    3  A    between atoms: C13_15  and  C14_16 
REMARK    4  A    between atoms: C14_16  and  O1_17 
REMARK    5  A    between atoms: O1_17  and  C15_18 
REMARK    6  A    between atoms: C15_18  and  C16_19 
ROOT
HETATM    1  C7  UNL     1      28.398   8.838  48.920  1.00  0.00     0.338 C 
HETATM    2  C8  UNL     1      28.505   8.759  47.511  1.00  0.00     0.085 C 
HETATM    3  C9  UNL     1      28.939   7.846  46.480  1.00  0.00    -0.020 C 
HETATM    4  C10 UNL     1      30.130   7.946  45.713  1.00  0.00     0.036 C 
HETATM    5  C11 UNL     1      30.552   9.192  46.444  1.00  0.00     0.175 A 
HETATM    6  C12 UNL     1      30.356  10.519  46.266  1.00  0.00     0.052 A 
HETATM    7  C13 UNL     1      30.683  10.982  47.563  1.00  0.00     0.008 A 
HETATM    8  C20 UNL     1      30.988   9.870  48.180  1.00  0.00     0.245 A 
HETATM    9  C21 UNL     1      31.331   9.098  49.172  1.00  0.00     0.405 A 
HETATM   10  N3  UNL     1      31.659   8.046  49.941  1.00  0.00    -0.212 NA
HETATM   11  C22 UNL     1      31.616   6.878  49.156  1.00  0.00     0.262 A 
HETATM   12  N4  UNL     1      31.243   7.473  48.059  1.00  0.00    -0.062 NA
HETATM   13  N5  UNL     1      30.983   8.657  47.654  1.00  0.00     0.155 N 
HETATM   14  N6  UNL     1      30.404   9.823  50.108  1.00  0.00    -0.276 N 
HETATM   15  N7  UNL     1      29.223   9.177  49.956  1.00  0.00    -0.304 N 
HETATM   16  H27 UNL     1      30.901  10.566  50.596  1.00  0.00     0.185 HD
HETATM   17  H28 UNL     1      28.714   9.005  50.881  1.00  0.00     0.182 HD
ENDROOT
BRANCH   7  18
HETATM   18  C14 UNL     1      30.755  12.213  48.280  1.00  0.00     0.208 C 
BRANCH  18  19
HETATM   19  O1  UNL     1      29.774  12.399  49.196  1.00  0.00    -0.384 OA
BRANCH  19  20
HETATM   20  C15 UNL     1      28.656  13.086  48.854  1.00  0.00     0.201 C 
BRANCH  20  21
HETATM   21  C16 UNL     1      27.647  12.374  47.999  1.00  0.00     0.173 C 
HETATM   22  C17 UNL     1      27.202  13.346  46.933  1.00  0.00     0.303 C 
HETATM   23  N2  UNL     1      26.059  12.876  46.188  1.00  0.00     0.088 N 
HETATM   24  C18 UNL     1      25.691  11.522  46.552  1.00  0.00     0.295 C 
HETATM   25  H21 UNL     1      25.298  13.552  46.303  1.00  0.00     0.316 HD
HETATM   26  C19 UNL     1      25.486  11.534  48.050  1.00  0.00     0.198 C 
HETATM   27  O2  UNL     1      26.632  11.857  48.742  1.00  0.00    -0.380 OA
ENDBRANCH  20  21
ENDBRANCH  19  20
ENDBRANCH  18  19
ENDBRANCH   7  18
BRANCH   1  28
HETATM   28  N1  UNL     1      27.449   7.772  49.422  1.00  0.00     0.122 NA
HETATM   29  H7  UNL     1      27.749   7.509  50.376  1.00  0.00     0.320 HD
BRANCH  28  30
HETATM   30  C6  UNL     1      26.087   8.056  49.317  1.00  0.00     0.307 C 
HETATM   31  C1  UNL     1      25.549   7.042  48.289  1.00  0.00     0.127 C 
HETATM   32  F1  UNL     1      25.511   7.413  46.979  1.00  0.00    -0.208 F 
HETATM   33  C2  UNL     1      25.135   5.829  48.669  1.00  0.00     0.017 C 
HETATM   34  C3  UNL     1      25.180   5.424  50.124  1.00  0.00     0.057 C 
HETATM   35  C4  UNL     1      24.755   6.633  50.886  1.00  0.00    -0.024 C 
HETATM   36  C5  UNL     1      25.199   7.842  50.478  1.00  0.00     0.012 C 
ENDBRANCH  28  30
ENDBRANCH   1  28
TORSDOF 6
ENDMDL
