MODEL 1
REMARK VINA RESULT:      -8.9      0.000      0.000
REMARK  2 active torsions:
REMARK  status: ('A' for Active; 'I' for Inactive)
REMARK    1  A    between atoms: C9_14  and  N3_15 
REMARK    2  A    between atoms: C10_16  and  N4_17 
ROOT
HETATM    1  C1  UNL     1      17.782   0.208  49.728  1.00  0.00     0.022 C 
HETATM    2  C2  UNL     1      18.038   0.737  50.900  1.00  0.00    -0.029 C 
HETATM    3  C3  UNL     1      18.050   2.231  50.994  1.00  0.00     0.206 C 
HETATM    4  O1  UNL     1      19.274   2.623  51.405  1.00  0.00    -0.385 OA
HETATM    5  C4  UNL     1      19.557   3.944  51.597  1.00  0.00     0.198 C 
HETATM    6  C5  UNL     1      21.039   3.920  52.082  1.00  0.00     0.295 C 
HETATM    7  N1  UNL     1      21.760   3.335  51.012  1.00  0.00     0.087 N 
HETATM    8  C6  UNL     1      23.150   2.946  51.343  1.00  0.00     0.290 C 
HETATM    9  C7  UNL     1      23.100   1.786  52.232  1.00  0.00     0.164 C 
HETATM   10  N2  UNL     1      24.201   1.103  52.746  1.00  0.00    -0.292 N 
HETATM   11  C8  UNL     1      25.478   1.667  52.612  1.00  0.00     0.374 A 
HETATM   12  O2  UNL     1      25.625   2.775  52.055  1.00  0.00    -0.237 OA
HETATM   13  O3  UNL     1      26.613   1.060  53.072  1.00  0.00    -0.242 OA
HETATM   14  C9  UNL     1      26.520  -0.161  53.696  1.00  0.00     0.177 A 
HETATM   15  C11 UNL     1      25.330  -0.702  53.829  1.00  0.00     0.088 A 
HETATM   16  C12 UNL     1      24.025  -0.167  53.387  1.00  0.00     0.041 A 
HETATM   17  C13 UNL     1      22.950  -0.865  53.632  1.00  0.00     0.022 C 
HETATM   18  C14 UNL     1      21.558  -1.254  53.684  1.00  0.00     0.151 C 
HETATM   19  N5  UNL     1      20.600  -0.261  53.153  1.00  0.00    -0.366 N 
HETATM   20  C15 UNL     1      19.195  -0.561  52.959  1.00  0.00     0.154 A 
HETATM   21  O4  UNL     1      18.644  -1.393  53.770  1.00  0.00    -0.305 OA
HETATM   22  C16 UNL     1      17.364  -1.611  53.522  1.00  0.00     0.145 A 
HETATM   23  C17 UNL     1      17.111  -0.809  52.422  1.00  0.00     0.041 A 
HETATM   24  C18 UNL     1      18.284  -0.132  52.056  1.00  0.00     0.024 A 
HETATM   25  H9  UNL     1      21.895   4.079  50.265  1.00  0.00     0.316 HD
HETATM   26  H21 UNL     1      20.508   0.712  52.826  1.00  0.00     0.161 HD
ENDROOT
BRANCH  14  27
HETATM   27  N3  UNL     1      27.724  -0.779  54.168  1.00  0.00    -0.220 NA
HETATM   28  C10 UNL     1      28.789  -0.565  53.463  1.00  0.00     0.203 C 
BRANCH  28  29
HETATM   29  N4  UNL     1      30.078  -1.106  53.792  1.00  0.00    -0.394 N 
HETATM   30  H15 UNL     1      30.870  -0.515  53.475  1.00  0.00     0.156 HD
HETATM   31  H16 UNL     1      30.398  -1.978  54.289  1.00  0.00     0.156 HD
ENDBRANCH  28  29
ENDBRANCH  14  27
TORSDOF 2
ENDMDL
MODEL 2
REMARK VINA RESULT:      -8.9      2.540      3.500
REMARK  2 active torsions:
REMARK  status: ('A' for Active; 'I' for Inactive)
REMARK    1  A    between atoms: C9_14  and  N3_15 
REMARK    2  A    between atoms: C10_16  and  N4_17 
ROOT
HETATM    1  C1  UNL     1      19.598   4.704  48.135  1.00  0.00     0.022 C 
HETATM    2  C2  UNL     1      19.957   5.029  49.353  1.00  0.00    -0.029 C 
HETATM    3  C3  UNL     1      20.745   6.290  49.527  1.00  0.00     0.206 C 
HETATM    4  O1  UNL     1      21.934   5.977  50.083  1.00  0.00    -0.385 OA
HETATM    5  C4  UNL     1      22.849   6.948  50.373  1.00  0.00     0.198 C 
HETATM    6  C5  UNL     1      24.026   6.145  51.008  1.00  0.00     0.295 C 
HETATM    7  N1  UNL     1      24.447   5.255  49.989  1.00  0.00     0.087 N 
HETATM    8  C6  UNL     1      25.372   4.192  50.443  1.00  0.00     0.290 C 
HETATM    9  C7  UNL     1      24.613   3.244  51.259  1.00  0.00     0.164 C 
HETATM   10  N2  UNL     1      25.119   2.087  51.849  1.00  0.00    -0.292 N 
HETATM   11  C8  UNL     1      26.506   1.885  51.879  1.00  0.00     0.374 A 
HETATM   12  O2  UNL     1      27.280   2.740  51.398  1.00  0.00    -0.237 OA
HETATM   13  O3  UNL     1      27.086   0.773  52.421  1.00  0.00    -0.242 OA
HETATM   14  C9  UNL     1      26.290  -0.205  52.967  1.00  0.00     0.177 A 
HETATM   15  C11 UNL     1      24.988  -0.031  52.947  1.00  0.00     0.088 A 
HETATM   16  C12 UNL     1      24.224   1.111  52.400  1.00  0.00     0.041 A 
HETATM   17  C13 UNL     1      22.923   1.093  52.494  1.00  0.00     0.022 C 
HETATM   18  C14 UNL     1      21.541   1.503  52.380  1.00  0.00     0.151 C 
HETATM   19  N5  UNL     1      21.322   2.847  51.805  1.00  0.00    -0.366 N 
HETATM   20  C15 UNL     1      20.004   3.337  51.450  1.00  0.00     0.154 A 
HETATM   21  O4  UNL     1      19.007   2.933  52.154  1.00  0.00    -0.305 OA
HETATM   22  C16 UNL     1      17.845   3.425  51.763  1.00  0.00     0.145 A 
HETATM   23  C17 UNL     1      18.183   4.228  50.686  1.00  0.00     0.041 A 
HETATM   24  C18 UNL     1      19.571   4.175  50.481  1.00  0.00     0.024 A 
HETATM   25  H9  UNL     1      25.041   5.806  49.301  1.00  0.00     0.316 HD
HETATM   26  H21 UNL     1      21.797   3.717  51.522  1.00  0.00     0.161 HD
ENDROOT
BRANCH  14  27
HETATM   27  N3  UNL     1      26.921  -1.363  53.528  1.00  0.00    -0.220 NA
HETATM   28  C10 UNL     1      27.647  -2.066  52.719  1.00  0.00     0.203 C 
BRANCH  28  29
HETATM   29  N4  UNL     1      28.350  -3.255  53.114  1.00  0.00    -0.394 N 
HETATM   30  H15 UNL     1      27.727  -4.065  53.294  1.00  0.00     0.156 HD
HETATM   31  H16 UNL     1      29.367  -3.487  53.261  1.00  0.00     0.156 HD
ENDBRANCH  28  29
ENDBRANCH  14  27
TORSDOF 2
ENDMDL
MODEL 3
REMARK VINA RESULT:      -8.7      3.493      6.572
REMARK  2 active torsions:
REMARK  status: ('A' for Active; 'I' for Inactive)
REMARK    1  A    between atoms: C9_14  and  N3_15 
REMARK    2  A    between atoms: C10_16  and  N4_17 
ROOT
HETATM    1  C1  UNL     1      23.679   8.331  50.453  1.00  0.00     0.022 C 
HETATM    2  C2  UNL     1      23.654   7.335  49.602  1.00  0.00    -0.029 C 
HETATM    3  C3  UNL     1      22.313   6.859  49.137  1.00  0.00     0.206 C 
HETATM    4  O1  UNL     1      22.178   5.561  49.482  1.00  0.00    -0.385 OA
HETATM    5  C4  UNL     1      21.049   4.865  49.159  1.00  0.00     0.198 C 
HETATM    6  C5  UNL     1      21.342   3.439  49.720  1.00  0.00     0.295 C 
HETATM    7  N1  UNL     1      21.514   3.627  51.114  1.00  0.00     0.087 N 
HETATM    8  C6  UNL     1      22.078   2.460  51.829  1.00  0.00     0.290 C 
HETATM    9  C7  UNL     1      23.485   2.331  51.452  1.00  0.00     0.164 C 
HETATM   10  N2  UNL     1      24.374   1.371  51.933  1.00  0.00    -0.292 N 
HETATM   11  C8  UNL     1      23.877   0.285  52.667  1.00  0.00     0.374 A 
HETATM   12  O2  UNL     1      22.650   0.170  52.873  1.00  0.00    -0.237 OA
HETATM   13  O3  UNL     1      24.677  -0.692  53.190  1.00  0.00    -0.242 OA
HETATM   14  C9  UNL     1      26.036  -0.625  52.998  1.00  0.00     0.177 A 
HETATM   15  C11 UNL     1      26.518   0.387  52.312  1.00  0.00     0.088 A 
HETATM   16  C12 UNL     1      25.781   1.508  51.691  1.00  0.00     0.041 A 
HETATM   17  C13 UNL     1      26.456   2.411  51.036  1.00  0.00     0.022 C 
HETATM   18  C14 UNL     1      26.755   3.584  50.244  1.00  0.00     0.151 C 
HETATM   19  N5  UNL     1      25.582   4.355  49.780  1.00  0.00    -0.366 N 
HETATM   20  C15 UNL     1      25.704   5.649  49.139  1.00  0.00     0.154 A 
HETATM   21  O4  UNL     1      26.750   5.865  48.423  1.00  0.00    -0.305 OA
HETATM   22  C16 UNL     1      26.783   7.067  47.876  1.00  0.00     0.145 A 
HETATM   23  C17 UNL     1      25.608   7.652  48.319  1.00  0.00     0.041 A 
HETATM   24  C18 UNL     1      24.911   6.744  49.131  1.00  0.00     0.024 A 
HETATM   25  H9  UNL     1      20.549   3.727  51.550  1.00  0.00     0.316 HD
HETATM   26  H21 UNL     1      24.555   4.337  49.704  1.00  0.00     0.161 HD
ENDROOT
BRANCH  14  27
HETATM   27  N3  UNL     1      26.856  -1.659  53.557  1.00  0.00    -0.220 NA
HETATM   28  C10 UNL     1      27.573  -2.335  52.717  1.00  0.00     0.203 C 
BRANCH  28  29
HETATM   29  N4  UNL     1      28.450  -3.404  53.105  1.00  0.00    -0.394 N 
HETATM   30  H15 UNL     1      29.316  -3.458  52.537  1.00  0.00     0.156 HD
HETATM   31  H16 UNL     1      28.407  -4.150  53.848  1.00  0.00     0.156 HD
ENDBRANCH  28  29
ENDBRANCH  14  27
TORSDOF 2
ENDMDL
MODEL 4
REMARK VINA RESULT:      -8.6      2.002      3.939
REMARK  2 active torsions:
REMARK  status: ('A' for Active; 'I' for Inactive)
REMARK    1  A    between atoms: C9_14  and  N3_15 
REMARK    2  A    between atoms: C10_16  and  N4_17 
ROOT
HETATM    1  C1  UNL     1      17.837   3.552  51.583  1.00  0.00     0.022 C 
HETATM    2  C2  UNL     1      18.263   2.409  51.103  1.00  0.00    -0.029 C 
HETATM    3  C3  UNL     1      17.551   1.168  51.543  1.00  0.00     0.206 C 
HETATM    4  O1  UNL     1      18.439   0.362  52.162  1.00  0.00    -0.385 OA
HETATM    5  C4  UNL     1      18.059  -0.856  52.648  1.00  0.00     0.198 C 
HETATM    6  C5  UNL     1      19.384  -1.428  53.238  1.00  0.00     0.295 C 
HETATM    7  N1  UNL     1      19.759  -0.506  54.247  1.00  0.00     0.087 N 
HETATM    8  C6  UNL     1      21.135  -0.683  54.764  1.00  0.00     0.290 C 
HETATM    9  C7  UNL     1      22.072  -0.260  53.724  1.00  0.00     0.164 C 
HETATM   10  N2  UNL     1      23.461  -0.247  53.833  1.00  0.00    -0.292 N 
HETATM   11  C8  UNL     1      24.068  -0.889  54.922  1.00  0.00     0.374 A 
HETATM   12  O2  UNL     1      23.372  -1.480  55.775  1.00  0.00    -0.237 OA
HETATM   13  O3  UNL     1      25.420  -0.911  55.116  1.00  0.00    -0.242 OA
HETATM   14  C9  UNL     1      26.242  -0.280  54.213  1.00  0.00     0.177 A 
HETATM   15  C11 UNL     1      25.689   0.326  53.187  1.00  0.00     0.088 A 
HETATM   16  C12 UNL     1      24.253   0.432  52.849  1.00  0.00     0.041 A 
HETATM   17  C13 UNL     1      23.914   1.074  51.765  1.00  0.00     0.022 C 
HETATM   18  C14 UNL     1      23.098   1.648  50.719  1.00  0.00     0.151 C 
HETATM   19  N5  UNL     1      21.650   1.368  50.816  1.00  0.00    -0.366 N 
HETATM   20  C15 UNL     1      20.672   2.016  49.962  1.00  0.00     0.154 A 
HETATM   21  O4  UNL     1      21.036   2.329  48.770  1.00  0.00    -0.305 OA
HETATM   22  C16 UNL     1      20.087   2.916  48.061  1.00  0.00     0.145 A 
HETATM   23  C17 UNL     1      19.015   2.962  48.937  1.00  0.00     0.041 A 
HETATM   24  C18 UNL     1      19.387   2.385  50.161  1.00  0.00     0.024 A 
HETATM   25  H9  UNL     1      19.159  -0.699  55.103  1.00  0.00     0.316 HD
HETATM   26  H21 UNL     1      20.945   0.803  51.311  1.00  0.00     0.161 HD
ENDROOT
BRANCH  14  27
HETATM   27  N3  UNL     1      27.657  -0.315  54.439  1.00  0.00    -0.220 NA
HETATM   28  C10 UNL     1      28.381   0.392  53.631  1.00  0.00     0.203 C 
BRANCH  28  29
HETATM   29  N4  UNL     1      29.813   0.471  53.714  1.00  0.00    -0.394 N 
HETATM   30  H15 UNL     1      30.151   1.118  54.451  1.00  0.00     0.156 HD
HETATM   31  H16 UNL     1      30.601   0.012  53.187  1.00  0.00     0.156 HD
ENDBRANCH  28  29
ENDBRANCH  14  27
TORSDOF 2
ENDMDL
MODEL 5
REMARK VINA RESULT:      -8.6      4.143      7.586
REMARK  2 active torsions:
REMARK  status: ('A' for Active; 'I' for Inactive)
REMARK    1  A    between atoms: C9_14  and  N3_15 
REMARK    2  A    between atoms: C10_16  and  N4_17 
ROOT
HETATM    1  C1  UNL     1      26.065   8.543  49.106  1.00  0.00     0.022 C 
HETATM    2  C2  UNL     1      25.880   7.450  48.408  1.00  0.00    -0.029 C 
HETATM    3  C3  UNL     1      24.685   7.401  47.508  1.00  0.00     0.206 C 
HETATM    4  O1  UNL     1      23.902   6.371  47.893  1.00  0.00    -0.385 OA
HETATM    5  C4  UNL     1      22.747   6.081  47.226  1.00  0.00     0.198 C 
HETATM    6  C5  UNL     1      22.204   4.833  47.986  1.00  0.00     0.295 C 
HETATM    7  N1  UNL     1      21.995   5.281  49.314  1.00  0.00     0.087 N 
HETATM    8  C6  UNL     1      21.745   4.203  50.297  1.00  0.00     0.290 C 
HETATM    9  C7  UNL     1      22.997   3.477  50.507  1.00  0.00     0.164 C 
HETATM   10  N2  UNL     1      23.185   2.408  51.382  1.00  0.00    -0.292 N 
HETATM   11  C8  UNL     1      22.066   1.797  51.964  1.00  0.00     0.374 A 
HETATM   12  O2  UNL     1      20.913   2.195  51.690  1.00  0.00    -0.237 OA
HETATM   13  O3  UNL     1      22.157   0.755  52.844  1.00  0.00    -0.242 OA
HETATM   14  C9  UNL     1      23.396   0.269  53.187  1.00  0.00     0.177 A 
HETATM   15  C11 UNL     1      24.455   0.831  52.649  1.00  0.00     0.088 A 
HETATM   16  C12 UNL     1      24.510   1.955  51.690  1.00  0.00     0.041 A 
HETATM   17  C13 UNL     1      25.676   2.356  51.265  1.00  0.00     0.022 C 
HETATM   18  C14 UNL     1      26.683   3.103  50.545  1.00  0.00     0.151 C 
HETATM   19  N5  UNL     1      26.168   4.112  49.594  1.00  0.00    -0.366 N 
HETATM   20  C15 UNL     1      27.031   5.070  48.932  1.00  0.00     0.154 A 
HETATM   21  O4  UNL     1      28.232   4.703  48.659  1.00  0.00    -0.305 OA
HETATM   22  C16 UNL     1      28.951   5.636  48.058  1.00  0.00     0.145 A 
HETATM   23  C17 UNL     1      28.071   6.701  47.956  1.00  0.00     0.041 A 
HETATM   24  C18 UNL     1      26.835   6.342  48.517  1.00  0.00     0.024 A 
HETATM   25  H9  UNL     1      21.086   5.832  49.333  1.00  0.00     0.316 HD
HETATM   26  H21 UNL     1      25.315   4.454  49.129  1.00  0.00     0.161 HD
ENDROOT
BRANCH  14  27
HETATM   27  N3  UNL     1      23.468  -0.822  54.113  1.00  0.00    -0.220 NA
HETATM   28  C10 UNL     1      24.445  -0.787  54.963  1.00  0.00     0.203 C 
BRANCH  28  29
HETATM   29  N4  UNL     1      24.665  -1.797  55.959  1.00  0.00    -0.394 N 
HETATM   30  H15 UNL     1      25.664  -2.047  56.084  1.00  0.00     0.156 HD
HETATM   31  H16 UNL     1      24.030  -2.344  56.596  1.00  0.00     0.156 HD
ENDBRANCH  28  29
ENDBRANCH  14  27
TORSDOF 2
ENDMDL
MODEL 6
REMARK VINA RESULT:      -8.5      2.904      5.777
REMARK  2 active torsions:
REMARK  status: ('A' for Active; 'I' for Inactive)
REMARK    1  A    between atoms: C9_14  and  N3_15 
REMARK    2  A    between atoms: C10_16  and  N4_17 
ROOT
HETATM    1  C1  UNL     1      21.726   7.720  50.803  1.00  0.00     0.022 C 
HETATM    2  C2  UNL     1      21.800   6.715  49.964  1.00  0.00    -0.029 C 
HETATM    3  C3  UNL     1      20.531   5.985  49.651  1.00  0.00     0.206 C 
HETATM    4  O1  UNL     1      20.681   4.694  50.015  1.00  0.00    -0.385 OA
HETATM    5  C4  UNL     1      19.676   3.791  49.820  1.00  0.00     0.198 C 
HETATM    6  C5  UNL     1      20.290   2.460  50.353  1.00  0.00     0.295 C 
HETATM    7  N1  UNL     1      20.571   2.712  51.719  1.00  0.00     0.087 N 
HETATM    8  C6  UNL     1      21.417   1.690  52.374  1.00  0.00     0.290 C 
HETATM    9  C7  UNL     1      22.776   1.816  51.847  1.00  0.00     0.164 C 
HETATM   10  N2  UNL     1      23.876   1.053  52.233  1.00  0.00    -0.292 N 
HETATM   11  C8  UNL     1      23.673  -0.088  53.023  1.00  0.00     0.374 A 
HETATM   12  O2  UNL     1      22.518  -0.426  53.362  1.00  0.00    -0.237 OA
HETATM   13  O3  UNL     1      24.694  -0.885  53.460  1.00  0.00    -0.242 OA
HETATM   14  C9  UNL     1      25.988  -0.569  53.121  1.00  0.00     0.177 A 
HETATM   15  C11 UNL     1      26.195   0.497  52.382  1.00  0.00     0.088 A 
HETATM   16  C12 UNL     1      25.197   1.444  51.839  1.00  0.00     0.041 A 
HETATM   17  C13 UNL     1      25.617   2.441  51.109  1.00  0.00     0.022 C 
HETATM   18  C14 UNL     1      25.604   3.628  50.284  1.00  0.00     0.151 C 
HETATM   19  N5  UNL     1      24.264   4.154  49.947  1.00  0.00    -0.366 N 
HETATM   20  C15 UNL     1      24.071   5.431  49.289  1.00  0.00     0.154 A 
HETATM   21  O4  UNL     1      24.975   5.820  48.463  1.00  0.00    -0.305 OA
HETATM   22  C16 UNL     1      24.723   6.994  47.910  1.00  0.00     0.145 A 
HETATM   23  C17 UNL     1      23.512   7.359  48.475  1.00  0.00     0.041 A 
HETATM   24  C18 UNL     1      23.089   6.358  49.363  1.00  0.00     0.024 A 
HETATM   25  H9  UNL     1      19.656   2.641  52.257  1.00  0.00     0.316 HD
HETATM   26  H21 UNL     1      23.256   3.942  49.983  1.00  0.00     0.161 HD
ENDROOT
BRANCH  14  27
HETATM   27  N3  UNL     1      27.042  -1.417  53.593  1.00  0.00    -0.220 NA
HETATM   28  C10 UNL     1      27.464  -2.319  52.764  1.00  0.00     0.203 C 
BRANCH  28  29
HETATM   29  N4  UNL     1      28.513  -3.250  53.072  1.00  0.00    -0.394 N 
HETATM   30  H15 UNL     1      28.882  -3.749  52.241  1.00  0.00     0.156 HD
HETATM   31  H16 UNL     1      28.994  -3.538  53.964  1.00  0.00     0.156 HD
ENDBRANCH  28  29
ENDBRANCH  14  27
TORSDOF 2
ENDMDL
MODEL 7
REMARK VINA RESULT:      -8.0      4.589      8.365
REMARK  2 active torsions:
REMARK  status: ('A' for Active; 'I' for Inactive)
REMARK    1  A    between atoms: C9_14  and  N3_15 
REMARK    2  A    between atoms: C10_16  and  N4_17 
ROOT
HETATM    1  C1  UNL     1      27.514   9.149  50.073  1.00  0.00     0.022 C 
HETATM    2  C2  UNL     1      26.894   8.391  49.201  1.00  0.00    -0.029 C 
HETATM    3  C3  UNL     1      25.624   8.919  48.609  1.00  0.00     0.206 C 
HETATM    4  O1  UNL     1      24.624   8.065  48.912  1.00  0.00    -0.385 OA
HETATM    5  C4  UNL     1      23.352   8.293  48.475  1.00  0.00     0.198 C 
HETATM    6  C5  UNL     1      22.563   7.067  49.029  1.00  0.00     0.295 C 
HETATM    7  N1  UNL     1      22.704   7.151  50.436  1.00  0.00     0.087 N 
HETATM    8  C6  UNL     1      22.277   5.941  51.173  1.00  0.00     0.290 C 
HETATM    9  C7  UNL     1      23.255   4.884  50.920  1.00  0.00     0.164 C 
HETATM   10  N2  UNL     1      23.225   3.598  51.457  1.00  0.00    -0.292 N 
HETATM   11  C8  UNL     1      22.070   3.161  52.121  1.00  0.00     0.374 A 
HETATM   12  O2  UNL     1      21.073   3.909  52.214  1.00  0.00    -0.237 OA
HETATM   13  O3  UNL     1      21.960   1.924  52.691  1.00  0.00    -0.242 OA
HETATM   14  C9  UNL     1      23.020   1.052  52.622  1.00  0.00     0.177 A 
HETATM   15  C11 UNL     1      24.110   1.447  52.004  1.00  0.00     0.088 A 
HETATM   16  C12 UNL     1      24.372   2.745  51.345  1.00  0.00     0.041 A 
HETATM   17  C13 UNL     1      25.529   2.930  50.771  1.00  0.00     0.022 C 
HETATM   18  C14 UNL     1      26.601   3.562  50.035  1.00  0.00     0.151 C 
HETATM   19  N5  UNL     1      26.293   4.900  49.486  1.00  0.00    -0.366 N 
HETATM   20  C15 UNL     1      27.305   5.747  48.886  1.00  0.00     0.154 A 
HETATM   21  O4  UNL     1      28.277   5.173  48.270  1.00  0.00    -0.305 OA
HETATM   22  C16 UNL     1      29.154   6.016  47.755  1.00  0.00     0.145 A 
HETATM   23  C17 UNL     1      28.647   7.257  48.104  1.00  0.00     0.041 A 
HETATM   24  C18 UNL     1      27.459   7.090  48.831  1.00  0.00     0.024 A 
HETATM   25  H9  UNL     1      22.026   7.892  50.787  1.00  0.00     0.316 HD
HETATM   26  H21 UNL     1      25.532   5.573  49.318  1.00  0.00     0.161 HD
ENDROOT
BRANCH  14  27
HETATM   27  N3  UNL     1      22.883  -0.238  53.229  1.00  0.00    -0.220 NA
HETATM   28  C10 UNL     1      21.724  -0.507  53.743  1.00  0.00     0.203 C 
BRANCH  28  29
HETATM   29  N4  UNL     1      21.413  -1.752  54.388  1.00  0.00    -0.394 N 
HETATM   30  H15 UNL     1      20.425  -1.826  54.693  1.00  0.00     0.156 HD
HETATM   31  H16 UNL     1      21.973  -2.613  54.620  1.00  0.00     0.156 HD
ENDBRANCH  28  29
ENDBRANCH  14  27
TORSDOF 2
ENDMDL
MODEL 8
REMARK VINA RESULT:      -7.9      5.003      6.690
REMARK  2 active torsions:
REMARK  status: ('A' for Active; 'I' for Inactive)
REMARK    1  A    between atoms: C9_14  and  N3_15 
REMARK    2  A    between atoms: C10_16  and  N4_17 
ROOT
HETATM    1  C1  UNL     1      21.195   0.532  50.234  1.00  0.00     0.022 C 
HETATM    2  C2  UNL     1      21.664   1.430  51.065  1.00  0.00    -0.029 C 
HETATM    3  C3  UNL     1      20.777   2.589  51.400  1.00  0.00     0.206 C 
HETATM    4  O1  UNL     1      21.401   3.726  51.026  1.00  0.00    -0.385 OA
HETATM    5  C4  UNL     1      20.821   4.943  51.236  1.00  0.00     0.198 C 
HETATM    6  C5  UNL     1      21.885   5.940  50.683  1.00  0.00     0.295 C 
HETATM    7  N1  UNL     1      22.018   5.604  49.313  1.00  0.00     0.087 N 
HETATM    8  C6  UNL     1      23.177   6.227  48.634  1.00  0.00     0.290 C 
HETATM    9  C7  UNL     1      24.395   5.591  49.134  1.00  0.00     0.164 C 
HETATM   10  N2  UNL     1      25.695   5.878  48.720  1.00  0.00    -0.292 N 
HETATM   11  C8  UNL     1      25.925   7.011  47.928  1.00  0.00     0.374 A 
HETATM   12  O2  UNL     1      24.980   7.765  47.612  1.00  0.00    -0.237 OA
HETATM   13  O3  UNL     1      27.164   7.359  47.466  1.00  0.00    -0.242 OA
HETATM   14  C9  UNL     1      28.246   6.573  47.779  1.00  0.00     0.177 A 
HETATM   15  C11 UNL     1      28.046   5.506  48.520  1.00  0.00     0.088 A 
HETATM   16  C12 UNL     1      26.775   5.010  49.089  1.00  0.00     0.041 A 
HETATM   17  C13 UNL     1      26.798   3.927  49.816  1.00  0.00     0.022 C 
HETATM   18  C14 UNL     1      26.351   2.832  50.648  1.00  0.00     0.151 C 
HETATM   19  N5  UNL     1      24.919   2.857  51.016  1.00  0.00    -0.366 N 
HETATM   20  C15 UNL     1      24.267   1.749  51.685  1.00  0.00     0.154 A 
HETATM   21  O4  UNL     1      24.972   1.042  52.495  1.00  0.00    -0.305 OA
HETATM   22  C16 UNL     1      24.303   0.052  53.060  1.00  0.00     0.145 A 
HETATM   23  C17 UNL     1      23.033   0.178  52.522  1.00  0.00     0.041 A 
HETATM   24  C18 UNL     1      23.004   1.267  51.637  1.00  0.00     0.024 A 
HETATM   25  H9  UNL     1      21.189   6.020  48.794  1.00  0.00     0.316 HD
HETATM   26  H21 UNL     1      24.068   3.438  51.000  1.00  0.00     0.161 HD
ENDROOT
BRANCH  14  27
HETATM   27  N3  UNL     1      29.534   6.956  47.281  1.00  0.00    -0.220 NA
HETATM   28  C10 UNL     1      29.937   8.146  47.596  1.00  0.00     0.203 C 
BRANCH  28  29
HETATM   29  N4  UNL     1      31.200   8.689  47.182  1.00  0.00    -0.394 N 
HETATM   30  H15 UNL     1      31.130   9.333  46.372  1.00  0.00     0.156 HD
HETATM   31  H16 UNL     1      32.190   8.577  47.524  1.00  0.00     0.156 HD
ENDBRANCH  28  29
ENDBRANCH  14  27
TORSDOF 2
ENDMDL
MODEL 9
REMARK VINA RESULT:      -7.7      2.352      7.751
REMARK  2 active torsions:
REMARK  status: ('A' for Active; 'I' for Inactive)
REMARK    1  A    between atoms: C9_14  and  N3_15 
REMARK    2  A    between atoms: C10_16  and  N4_17 
ROOT
HETATM    1  C1  UNL     1      26.783   2.769  49.333  1.00  0.00     0.022 C 
HETATM    2  C2  UNL     1      26.361   3.158  50.511  1.00  0.00    -0.029 C 
HETATM    3  C3  UNL     1      27.168   2.745  51.703  1.00  0.00     0.206 C 
HETATM    4  O1  UNL     1      26.381   2.009  52.516  1.00  0.00    -0.385 OA
HETATM    5  C4  UNL     1      26.860   1.517  53.695  1.00  0.00     0.198 C 
HETATM    6  C5  UNL     1      25.626   0.774  54.294  1.00  0.00     0.295 C 
HETATM    7  N1  UNL     1      25.314  -0.231  53.345  1.00  0.00     0.087 N 
HETATM    8  C6  UNL     1      24.006  -0.892  53.553  1.00  0.00     0.290 C 
HETATM    9  C7  UNL     1      22.952   0.064  53.213  1.00  0.00     0.164 C 
HETATM   10  N2  UNL     1      21.582  -0.185  53.249  1.00  0.00    -0.292 N 
HETATM   11  C8  UNL     1      21.115  -1.354  53.867  1.00  0.00     0.374 A 
HETATM   12  O2  UNL     1      21.917  -2.154  54.394  1.00  0.00    -0.237 OA
HETATM   13  O3  UNL     1      19.791  -1.685  53.935  1.00  0.00    -0.242 OA
HETATM   14  C9  UNL     1      18.856  -0.846  53.376  1.00  0.00     0.177 A 
HETATM   15  C11 UNL     1      19.278   0.254  52.793  1.00  0.00     0.088 A 
HETATM   16  C12 UNL     1      20.667   0.739  52.646  1.00  0.00     0.041 A 
HETATM   17  C13 UNL     1      20.868   1.876  52.038  1.00  0.00     0.022 C 
HETATM   18  C14 UNL     1      21.550   3.021  51.477  1.00  0.00     0.151 C 
HETATM   19  N5  UNL     1      23.012   3.061  51.695  1.00  0.00    -0.366 N 
HETATM   20  C15 UNL     1      23.870   4.033  51.047  1.00  0.00     0.154 A 
HETATM   21  O4  UNL     1      23.376   5.194  50.800  1.00  0.00    -0.305 OA
HETATM   22  C16 UNL     1      24.223   6.018  50.208  1.00  0.00     0.145 A 
HETATM   23  C17 UNL     1      25.374   5.257  50.081  1.00  0.00     0.041 A 
HETATM   24  C18 UNL     1      25.152   3.980  50.620  1.00  0.00     0.024 A 
HETATM   25  H9  UNL     1      26.005  -1.029  53.476  1.00  0.00     0.316 HD
HETATM   26  H21 UNL     1      23.786   2.618  52.211  1.00  0.00     0.161 HD
ENDROOT
BRANCH  14  27
HETATM   27  N3  UNL     1      17.474  -1.215  53.457  1.00  0.00    -0.220 NA
HETATM   28  C10 UNL     1      17.180  -2.416  53.071  1.00  0.00     0.203 C 
BRANCH  28  29
HETATM   29  N4  UNL     1      15.847  -2.948  53.087  1.00  0.00    -0.394 N 
HETATM   30  H15 UNL     1      15.304  -2.684  53.930  1.00  0.00     0.156 HD
HETATM   31  H16 UNL     1      15.294  -3.552  52.424  1.00  0.00     0.156 HD
ENDBRANCH  28  29
ENDBRANCH  14  27
TORSDOF 2
ENDMDL
