MODEL 1
REMARK VINA RESULT:      -8.0      0.000      0.000
REMARK  4 active torsions:
REMARK  status: ('A' for Active; 'I' for Inactive)
REMARK    1  A    between atoms: O1_2  and  C2_3 
REMARK    2  A    between atoms: C10_13  and  C11_14 
REMARK    3  A    between atoms: C12_15  and  C13_16 
REMARK    4  A    between atoms: C17_24  and  O2_25 
ROOT
HETATM    1  C2  UNL     1      26.601  -0.054  53.348  1.00  0.00     0.103 C 
HETATM    2  C3  UNL     1      26.767   0.829  52.342  1.00  0.00     0.068 C 
HETATM    3  C4  UNL     1      25.534   1.497  51.948  1.00  0.00     0.051 C 
HETATM    4  N1  UNL     1      25.746   2.505  51.181  1.00  0.00    -0.246 NA
HETATM    5  C5  UNL     1      24.721   3.319  50.669  1.00  0.00     0.229 C 
HETATM    6  N2  UNL     1      23.751   4.065  50.360  1.00  0.00    -0.253 NA
HETATM    7  C6  UNL     1      22.809   4.625  51.265  1.00  0.00     0.232 C 
HETATM    8  C7  UNL     1      23.374   4.618  52.666  1.00  0.00     0.022 C 
HETATM    9  C8  UNL     1      24.134   3.554  52.827  1.00  0.00     0.010 C 
HETATM   10  C9  UNL     1      23.375   2.415  52.382  1.00  0.00    -0.018 C 
HETATM   11  C10 UNL     1      22.142   2.504  51.921  1.00  0.00     0.039 C 
HETATM   12  N3  UNL     1      21.638   3.721  51.403  1.00  0.00    -0.358 N 
HETATM   13  C14 UNL     1      20.332   4.198  51.029  1.00  0.00     0.152 C 
HETATM   14  C15 UNL     1      24.108   1.191  52.361  1.00  0.00     0.098 C 
HETATM   15  C16 UNL     1      24.135   0.263  53.462  1.00  0.00     0.028 C 
HETATM   16  C17 UNL     1      25.261  -0.321  53.919  1.00  0.00     0.098 C 
ENDROOT
BRANCH  11  17
HETATM   17  C11 UNL     1      21.335   1.292  51.966  1.00  0.00     0.034 C 
HETATM   18  C12 UNL     1      20.403   0.895  52.803  1.00  0.00     0.091 C 
BRANCH  18  19
HETATM   19  C13 UNL     1      19.570  -0.349  52.856  1.00  0.00     0.408 C 
HETATM   20  F1  UNL     1      19.000  -0.655  51.637  1.00  0.00    -0.167 F 
HETATM   21  F2  UNL     1      20.361  -1.442  53.203  1.00  0.00    -0.167 F 
HETATM   22  F3  UNL     1      18.585  -0.288  53.814  1.00  0.00    -0.167 F 
ENDBRANCH  18  19
ENDBRANCH  11  17
BRANCH  16  23
HETATM   23  O2  UNL     1      25.260  -1.242  54.986  1.00  0.00    -0.353 OA
HETATM   24  C18 UNL     1      24.068  -1.348  55.743  1.00  0.00     0.210 C 
ENDBRANCH  16  23
BRANCH   1  25
HETATM   25  O1  UNL     1      27.719  -0.727  53.819  1.00  0.00    -0.353 OA
HETATM   26  C1  UNL     1      28.733  -0.099  54.581  1.00  0.00     0.210 C 
ENDBRANCH   1  25
TORSDOF 4
ENDMDL
MODEL 2
REMARK VINA RESULT:      -7.8      1.475      1.743
REMARK  4 active torsions:
REMARK  status: ('A' for Active; 'I' for Inactive)
REMARK    1  A    between atoms: O1_2  and  C2_3 
REMARK    2  A    between atoms: C10_13  and  C11_14 
REMARK    3  A    between atoms: C12_15  and  C13_16 
REMARK    4  A    between atoms: C17_24  and  O2_25 
ROOT
HETATM    1  C2  UNL     1      27.146   1.818  52.598  1.00  0.00     0.103 C 
HETATM    2  C3  UNL     1      26.742   2.515  51.517  1.00  0.00     0.068 C 
HETATM    3  C4  UNL     1      25.293   2.608  51.395  1.00  0.00     0.051 C 
HETATM    4  N1  UNL     1      24.929   3.476  50.523  1.00  0.00    -0.246 NA
HETATM    5  C5  UNL     1      23.584   3.759  50.224  1.00  0.00     0.229 C 
HETATM    6  N2  UNL     1      22.358   4.034  50.113  1.00  0.00    -0.253 NA
HETATM    7  C6  UNL     1      21.476   4.356  51.179  1.00  0.00     0.232 C 
HETATM    8  C7  UNL     1      22.268   4.796  52.388  1.00  0.00     0.022 C 
HETATM    9  C8  UNL     1      23.403   4.128  52.435  1.00  0.00     0.010 C 
HETATM   10  C9  UNL     1      23.083   2.733  52.288  1.00  0.00    -0.018 C 
HETATM   11  C10 UNL     1      21.850   2.283  52.148  1.00  0.00     0.039 C 
HETATM   12  N3  UNL     1      20.812   3.125  51.680  1.00  0.00    -0.358 N 
HETATM   13  C14 UNL     1      19.378   3.019  51.611  1.00  0.00     0.152 C 
HETATM   14  C15 UNL     1      24.221   1.877  52.179  1.00  0.00     0.098 C 
HETATM   15  C16 UNL     1      24.834   1.226  53.307  1.00  0.00     0.028 C 
HETATM   16  C17 UNL     1      26.167   1.181  53.509  1.00  0.00     0.098 C 
ENDROOT
BRANCH  11  17
HETATM   17  C11 UNL     1      21.617   0.888  52.491  1.00  0.00     0.034 C 
HETATM   18  C12 UNL     1      21.281   0.312  53.623  1.00  0.00     0.091 C 
BRANCH  18  19
HETATM   19  C13 UNL     1      21.039  -1.121  53.984  1.00  0.00     0.408 C 
HETATM   20  F1  UNL     1      19.746  -1.522  53.717  1.00  0.00    -0.167 F 
HETATM   21  F2  UNL     1      21.869  -1.952  53.233  1.00  0.00    -0.167 F 
HETATM   22  F3  UNL     1      21.337  -1.396  55.299  1.00  0.00    -0.167 F 
ENDBRANCH  18  19
ENDBRANCH  11  17
BRANCH  16  23
HETATM   23  O2  UNL     1      26.747   0.521  54.611  1.00  0.00    -0.353 OA
HETATM   24  C18 UNL     1      25.933  -0.408  55.305  1.00  0.00     0.210 C 
ENDBRANCH  16  23
BRANCH   1  25
HETATM   25  O1  UNL     1      28.509   1.691  52.824  1.00  0.00    -0.353 OA
HETATM   26  C1  UNL     1      29.201   2.441  53.805  1.00  0.00     0.210 C 
ENDBRANCH   1  25
TORSDOF 4
ENDMDL
MODEL 3
REMARK VINA RESULT:      -7.8      3.343      5.517
REMARK  4 active torsions:
REMARK  status: ('A' for Active; 'I' for Inactive)
REMARK    1  A    between atoms: O1_2  and  C2_3 
REMARK    2  A    between atoms: C10_13  and  C11_14 
REMARK    3  A    between atoms: C12_15  and  C13_16 
REMARK    4  A    between atoms: C17_24  and  O2_25 
ROOT
HETATM    1  C2  UNL     1      20.591   0.373  53.320  1.00  0.00     0.103 C 
HETATM    2  C3  UNL     1      20.419   1.648  52.913  1.00  0.00     0.068 C 
HETATM    3  C4  UNL     1      21.618   2.238  52.333  1.00  0.00     0.051 C 
HETATM    4  N1  UNL     1      21.374   3.342  51.724  1.00  0.00    -0.246 NA
HETATM    5  C5  UNL     1      22.362   4.103  51.075  1.00  0.00     0.229 C 
HETATM    6  N2  UNL     1      23.287   4.652  50.416  1.00  0.00    -0.253 NA
HETATM    7  C6  UNL     1      24.124   4.012  49.462  1.00  0.00     0.232 C 
HETATM    8  C7  UNL     1      23.476   2.735  48.983  1.00  0.00     0.022 C 
HETATM    9  C8  UNL     1      22.793   2.192  49.971  1.00  0.00     0.010 C 
HETATM   10  C9  UNL     1      23.666   2.139  51.114  1.00  0.00    -0.018 C 
HETATM   11  C10 UNL     1      24.915   2.565  51.091  1.00  0.00     0.039 C 
HETATM   12  N3  UNL     1      25.352   3.502  50.125  1.00  0.00    -0.358 N 
HETATM   13  C14 UNL     1      26.637   3.998  49.705  1.00  0.00     0.152 C 
HETATM   14  C15 UNL     1      23.034   1.701  52.317  1.00  0.00     0.098 C 
HETATM   15  C16 UNL     1      23.013   0.327  52.746  1.00  0.00     0.028 C 
HETATM   16  C17 UNL     1      21.911  -0.292  53.215  1.00  0.00     0.098 C 
ENDROOT
BRANCH  11  17
HETATM   17  C11 UNL     1      25.810   2.030  52.108  1.00  0.00     0.034 C 
HETATM   18  C12 UNL     1      26.715   1.078  52.060  1.00  0.00     0.091 C 
BRANCH  18  19
HETATM   19  C13 UNL     1      27.638   0.523  53.101  1.00  0.00     0.408 C 
HETATM   20  F1  UNL     1      27.943  -0.805  52.881  1.00  0.00    -0.167 F 
HETATM   21  F2  UNL     1      28.851   1.210  53.083  1.00  0.00    -0.167 F 
HETATM   22  F3  UNL     1      27.150   0.671  54.378  1.00  0.00    -0.167 F 
ENDBRANCH  18  19
ENDBRANCH  11  17
BRANCH  16  23
HETATM   23  O2  UNL     1      21.918  -1.633  53.649  1.00  0.00    -0.353 OA
HETATM   24  C18 UNL     1      22.399  -1.883  54.958  1.00  0.00     0.210 C 
ENDBRANCH  16  23
BRANCH   1  25
HETATM   25  O1  UNL     1      19.504  -0.293  53.864  1.00  0.00    -0.353 OA
HETATM   26  C1  UNL     1      18.493  -0.894  53.075  1.00  0.00     0.210 C 
ENDBRANCH   1  25
TORSDOF 4
ENDMDL
MODEL 4
REMARK VINA RESULT:      -7.5      3.524      4.908
REMARK  4 active torsions:
REMARK  status: ('A' for Active; 'I' for Inactive)
REMARK    1  A    between atoms: O1_2  and  C2_3 
REMARK    2  A    between atoms: C10_13  and  C11_14 
REMARK    3  A    between atoms: C12_15  and  C13_16 
REMARK    4  A    between atoms: C17_24  and  O2_25 
ROOT
HETATM    1  C2  UNL     1      26.103   0.929  52.402  1.00  0.00     0.103 C 
HETATM    2  C3  UNL     1      25.154   0.348  53.164  1.00  0.00     0.068 C 
HETATM    3  C4  UNL     1      23.831   0.933  52.989  1.00  0.00     0.051 C 
HETATM    4  N1  UNL     1      22.905   0.216  53.515  1.00  0.00    -0.246 NA
HETATM    5  C5  UNL     1      21.542   0.560  53.477  1.00  0.00     0.229 C 
HETATM    6  N2  UNL     1      20.338   0.883  53.284  1.00  0.00    -0.253 NA
HETATM    7  C6  UNL     1      19.746   1.184  52.028  1.00  0.00     0.232 C 
HETATM    8  C7  UNL     1      20.591   0.615  50.912  1.00  0.00     0.022 C 
HETATM    9  C8  UNL     1      21.862   0.667  51.253  1.00  0.00     0.010 C 
HETATM   10  C9  UNL     1      22.128   2.006  51.708  1.00  0.00    -0.018 C 
HETATM   11  C10 UNL     1      21.213   2.956  51.735  1.00  0.00     0.039 C 
HETATM   12  N3  UNL     1      19.832   2.644  51.763  1.00  0.00    -0.358 N 
HETATM   13  C14 UNL     1      18.620   3.402  51.594  1.00  0.00     0.152 C 
HETATM   14  C15 UNL     1      23.436   2.195  52.248  1.00  0.00     0.098 C 
HETATM   15  C16 UNL     1      24.559   2.644  51.468  1.00  0.00     0.028 C 
HETATM   16  C17 UNL     1      25.784   2.085  51.532  1.00  0.00     0.098 C 
ENDROOT
BRANCH  11  17
HETATM   17  C11 UNL     1      21.693   4.331  51.742  1.00  0.00     0.034 C 
HETATM   18  C12 UNL     1      21.855   5.203  50.773  1.00  0.00     0.091 C 
BRANCH  18  19
HETATM   19  C13 UNL     1      22.348   6.617  50.771  1.00  0.00     0.408 C 
HETATM   20  F1  UNL     1      23.547   6.758  51.441  1.00  0.00    -0.167 F 
HETATM   21  F2  UNL     1      22.578   7.045  49.465  1.00  0.00    -0.167 F 
HETATM   22  F3  UNL     1      21.432   7.500  51.292  1.00  0.00    -0.167 F 
ENDBRANCH  18  19
ENDBRANCH  11  17
BRANCH  16  23
HETATM   23  O2  UNL     1      26.875   2.554  50.773  1.00  0.00    -0.353 OA
HETATM   24  C18 UNL     1      26.584   3.453  49.717  1.00  0.00     0.210 C 
ENDBRANCH  16  23
BRANCH   1  25
HETATM   25  O1  UNL     1      27.395   0.431  52.472  1.00  0.00    -0.353 OA
HETATM   26  C1  UNL     1      27.824  -0.460  53.486  1.00  0.00     0.210 C 
ENDBRANCH   1  25
TORSDOF 4
ENDMDL
MODEL 5
REMARK VINA RESULT:      -7.4      3.967      6.253
REMARK  4 active torsions:
REMARK  status: ('A' for Active; 'I' for Inactive)
REMARK    1  A    between atoms: O1_2  and  C2_3 
REMARK    2  A    between atoms: C10_13  and  C11_14 
REMARK    3  A    between atoms: C12_15  and  C13_16 
REMARK    4  A    between atoms: C17_24  and  O2_25 
ROOT
HETATM    1  C2  UNL     1      23.347   3.894  49.037  1.00  0.00     0.103 C 
HETATM    2  C3  UNL     1      22.420   2.919  48.932  1.00  0.00     0.068 C 
HETATM    3  C4  UNL     1      22.422   1.993  50.056  1.00  0.00     0.051 C 
HETATM    4  N1  UNL     1      21.384   1.238  50.071  1.00  0.00    -0.246 NA
HETATM    5  C5  UNL     1      21.147   0.265  51.057  1.00  0.00     0.229 C 
HETATM    6  N2  UNL     1      20.957  -0.492  52.049  1.00  0.00    -0.253 NA
HETATM    7  C6  UNL     1      21.012  -0.106  53.415  1.00  0.00     0.232 C 
HETATM    8  C7  UNL     1      20.851   1.392  53.533  1.00  0.00     0.022 C 
HETATM    9  C8  UNL     1      21.407   1.977  52.492  1.00  0.00     0.010 C 
HETATM   10  C9  UNL     1      22.732   1.433  52.354  1.00  0.00    -0.018 C 
HETATM   11  C10 UNL     1      23.230   0.524  53.172  1.00  0.00     0.039 C 
HETATM   12  N3  UNL     1      22.385  -0.308  53.945  1.00  0.00    -0.358 N 
HETATM   13  C14 UNL     1      22.590  -1.218  55.042  1.00  0.00     0.152 C 
HETATM   14  C15 UNL     1      23.426   1.863  51.184  1.00  0.00     0.098 C 
HETATM   15  C16 UNL     1      24.304   3.004  51.156  1.00  0.00     0.028 C 
HETATM   16  C17 UNL     1      24.288   3.934  50.181  1.00  0.00     0.098 C 
ENDROOT
BRANCH  11  17
HETATM   17  C11 UNL     1      24.682   0.420  53.233  1.00  0.00     0.034 C 
HETATM   18  C12 UNL     1      25.491  -0.601  53.061  1.00  0.00     0.091 C 
BRANCH  18  19
HETATM   19  C13 UNL     1      26.983  -0.715  53.122  1.00  0.00     0.408 C 
HETATM   20  F1  UNL     1      27.616   0.205  52.312  1.00  0.00    -0.167 F 
HETATM   21  F2  UNL     1      27.432  -0.468  54.418  1.00  0.00    -0.167 F 
HETATM   22  F3  UNL     1      27.432  -1.978  52.811  1.00  0.00    -0.167 F 
ENDBRANCH  18  19
ENDBRANCH  11  17
BRANCH  16  23
HETATM   23  O2  UNL     1      25.170   5.034  50.164  1.00  0.00    -0.353 OA
HETATM   24  C18 UNL     1      26.366   4.887  49.419  1.00  0.00     0.210 C 
ENDBRANCH  16  23
BRANCH   1  25
HETATM   25  O1  UNL     1      23.413   4.846  48.031  1.00  0.00    -0.353 OA
HETATM   26  C1  UNL     1      22.329   5.131  47.166  1.00  0.00     0.210 C 
ENDBRANCH   1  25
TORSDOF 4
ENDMDL
MODEL 6
REMARK VINA RESULT:      -7.2      3.763      5.169
REMARK  4 active torsions:
REMARK  status: ('A' for Active; 'I' for Inactive)
REMARK    1  A    between atoms: O1_2  and  C2_3 
REMARK    2  A    between atoms: C10_13  and  C11_14 
REMARK    3  A    between atoms: C12_15  and  C13_16 
REMARK    4  A    between atoms: C17_24  and  O2_25 
ROOT
HETATM    1  C2  UNL     1      24.635  -0.095  53.540  1.00  0.00     0.103 C 
HETATM    2  C3  UNL     1      23.323   0.139  53.745  1.00  0.00     0.068 C 
HETATM    3  C4  UNL     1      22.738   1.048  52.767  1.00  0.00     0.051 C 
HETATM    4  N1  UNL     1      21.455   1.059  52.816  1.00  0.00    -0.246 NA
HETATM    5  C5  UNL     1      20.654   1.848  51.972  1.00  0.00     0.229 C 
HETATM    6  N2  UNL     1      20.016   2.491  51.094  1.00  0.00    -0.253 NA
HETATM    7  C6  UNL     1      20.218   2.409  49.689  1.00  0.00     0.232 C 
HETATM    8  C7  UNL     1      20.943   1.128  49.348  1.00  0.00     0.022 C 
HETATM    9  C8  UNL     1      21.784   0.828  50.317  1.00  0.00     0.010 C 
HETATM   10  C9  UNL     1      22.559   2.009  50.591  1.00  0.00    -0.018 C 
HETATM   11  C10 UNL     1      22.403   3.145  49.937  1.00  0.00     0.039 C 
HETATM   12  N3  UNL     1      21.197   3.439  49.256  1.00  0.00    -0.358 N 
HETATM   13  C14 UNL     1      20.788   4.448  48.314  1.00  0.00     0.152 C 
HETATM   14  C15 UNL     1      23.428   1.894  51.717  1.00  0.00     0.098 C 
HETATM   15  C16 UNL     1      24.803   1.478  51.618  1.00  0.00     0.028 C 
HETATM   16  C17 UNL     1      25.372   0.579  52.446  1.00  0.00     0.098 C 
ENDROOT
BRANCH  11  17
HETATM   17  C11 UNL     1      23.525   4.074  49.958  1.00  0.00     0.034 C 
HETATM   18  C12 UNL     1      24.441   4.355  49.059  1.00  0.00     0.091 C 
BRANCH  18  19
HETATM   19  C13 UNL     1      25.596   5.308  49.073  1.00  0.00     0.408 C 
HETATM   20  F1  UNL     1      25.411   6.374  48.216  1.00  0.00    -0.167 F 
HETATM   21  F2  UNL     1      25.754   5.854  50.346  1.00  0.00    -0.167 F 
HETATM   22  F3  UNL     1      26.793   4.696  48.784  1.00  0.00    -0.167 F 
ENDBRANCH  18  19
ENDBRANCH  11  17
BRANCH  16  23
HETATM   23  O2  UNL     1      26.726   0.200  52.343  1.00  0.00    -0.353 OA
HETATM   24  C18 UNL     1      27.686   1.091  52.884  1.00  0.00     0.210 C 
ENDBRANCH  16  23
BRANCH   1  25
HETATM   25  O1  UNL     1      25.286  -0.969  54.399  1.00  0.00    -0.353 OA
HETATM   26  C1  UNL     1      24.857  -1.207  55.727  1.00  0.00     0.210 C 
ENDBRANCH   1  25
TORSDOF 4
ENDMDL
MODEL 7
REMARK VINA RESULT:      -6.8      3.355      6.127
REMARK  4 active torsions:
REMARK  status: ('A' for Active; 'I' for Inactive)
REMARK    1  A    between atoms: O1_2  and  C2_3 
REMARK    2  A    between atoms: C10_13  and  C11_14 
REMARK    3  A    between atoms: C12_15  and  C13_16 
REMARK    4  A    between atoms: C17_24  and  O2_25 
ROOT
HETATM    1  C2  UNL     1      17.868   3.052  51.171  1.00  0.00     0.103 C 
HETATM    2  C3  UNL     1      18.708   4.099  51.036  1.00  0.00     0.068 C 
HETATM    3  C4  UNL     1      20.102   3.760  51.290  1.00  0.00     0.051 C 
HETATM    4  N1  UNL     1      20.907   4.686  50.911  1.00  0.00    -0.246 NA
HETATM    5  C5  UNL     1      22.305   4.598  51.041  1.00  0.00     0.229 C 
HETATM    6  N2  UNL     1      23.547   4.379  51.081  1.00  0.00    -0.253 NA
HETATM    7  C6  UNL     1      24.209   3.235  50.561  1.00  0.00     0.232 C 
HETATM    8  C7  UNL     1      23.327   2.548  49.544  1.00  0.00     0.022 C 
HETATM    9  C8  UNL     1      22.065   2.674  49.901  1.00  0.00     0.010 C 
HETATM   10  C9  UNL     1      21.970   2.276  51.281  1.00  0.00    -0.018 C 
HETATM   11  C10 UNL     1      23.004   1.860  51.987  1.00  0.00     0.039 C 
HETATM   12  N3  UNL     1      24.328   2.194  51.615  1.00  0.00    -0.358 N 
HETATM   13  C14 UNL     1      25.636   1.753  52.024  1.00  0.00     0.152 C 
HETATM   14  C15 UNL     1      20.685   2.486  51.866  1.00  0.00     0.098 C 
HETATM   15  C16 UNL     1      19.656   1.480  51.900  1.00  0.00     0.028 C 
HETATM   16  C17 UNL     1      18.364   1.723  51.596  1.00  0.00     0.098 C 
ENDROOT
BRANCH  11  17
HETATM   17  C11 UNL     1      22.714   1.051  53.163  1.00  0.00     0.034 C 
HETATM   18  C12 UNL     1      22.658  -0.251  53.334  1.00  0.00     0.091 C 
BRANCH  18  19
HETATM   19  C13 UNL     1      22.360  -1.089  54.539  1.00  0.00     0.408 C 
HETATM   20  F1  UNL     1      21.860  -2.332  54.206  1.00  0.00    -0.167 F 
HETATM   21  F2  UNL     1      23.527  -1.319  55.265  1.00  0.00    -0.167 F 
HETATM   22  F3  UNL     1      21.496  -0.473  55.415  1.00  0.00    -0.167 F 
ENDBRANCH  18  19
ENDBRANCH  11  17
BRANCH  16  23
HETATM   23  O2  UNL     1      17.369   0.726  51.655  1.00  0.00    -0.353 OA
HETATM   24  C18 UNL     1      17.280  -0.160  50.554  1.00  0.00     0.210 C 
ENDBRANCH  16  23
BRANCH   1  25
HETATM   25  O1  UNL     1      16.519   3.259  50.926  1.00  0.00    -0.353 OA
HETATM   26  C1  UNL     1      15.692   4.037  51.773  1.00  0.00     0.210 C 
ENDBRANCH   1  25
TORSDOF 4
ENDMDL
MODEL 8
REMARK VINA RESULT:      -6.7      2.836      3.834
REMARK  4 active torsions:
REMARK  status: ('A' for Active; 'I' for Inactive)
REMARK    1  A    between atoms: O1_2  and  C2_3 
REMARK    2  A    between atoms: C10_13  and  C11_14 
REMARK    3  A    between atoms: C12_15  and  C13_16 
REMARK    4  A    between atoms: C17_24  and  O2_25 
ROOT
HETATM    1  C2  UNL     1      25.630   1.037  52.289  1.00  0.00     0.103 C 
HETATM    2  C3  UNL     1      26.568   1.728  51.609  1.00  0.00     0.068 C 
HETATM    3  C4  UNL     1      26.010   2.689  50.667  1.00  0.00     0.051 C 
HETATM    4  N1  UNL     1      26.894   3.508  50.223  1.00  0.00    -0.246 NA
HETATM    5  C5  UNL     1      26.607   4.536  49.307  1.00  0.00     0.229 C 
HETATM    6  N2  UNL     1      26.234   5.502  48.586  1.00  0.00    -0.253 NA
HETATM    7  C6  UNL     1      25.175   6.402  48.880  1.00  0.00     0.232 C 
HETATM    8  C7  UNL     1      24.865   6.365  50.359  1.00  0.00     0.022 C 
HETATM    9  C8  UNL     1      25.055   5.144  50.817  1.00  0.00     0.010 C 
HETATM   10  C9  UNL     1      24.354   4.245  49.940  1.00  0.00    -0.018 C 
HETATM   11  C10 UNL     1      23.657   4.649  48.894  1.00  0.00     0.039 C 
HETATM   12  N3  UNL     1      23.906   5.904  48.289  1.00  0.00    -0.358 N 
HETATM   13  C14 UNL     1      23.223   6.708  47.309  1.00  0.00     0.152 C 
HETATM   14  C15 UNL     1      24.574   2.862  50.218  1.00  0.00     0.098 C 
HETATM   15  C16 UNL     1      23.723   2.081  51.077  1.00  0.00     0.028 C 
HETATM   16  C17 UNL     1      24.187   1.237  52.020  1.00  0.00     0.098 C 
ENDROOT
BRANCH  11  17
HETATM   17  C11 UNL     1      22.633   3.742  48.397  1.00  0.00     0.034 C 
HETATM   18  C12 UNL     1      21.341   3.675  48.626  1.00  0.00     0.091 C 
BRANCH  18  19
HETATM   19  C13 UNL     1      20.282   2.745  48.119  1.00  0.00     0.408 C 
HETATM   20  F1  UNL     1      20.007   2.938  46.780  1.00  0.00    -0.167 F 
HETATM   21  F2  UNL     1      20.703   1.422  48.244  1.00  0.00    -0.167 F 
HETATM   22  F3  UNL     1      19.112   2.829  48.838  1.00  0.00    -0.167 F 
ENDBRANCH  18  19
ENDBRANCH  11  17
BRANCH  16  23
HETATM   23  O2  UNL     1      23.336   0.467  52.838  1.00  0.00    -0.353 OA
HETATM   24  C18 UNL     1      22.080   0.102  52.294  1.00  0.00     0.210 C 
ENDBRANCH  16  23
BRANCH   1  25
HETATM   25  O1  UNL     1      26.054   0.112  53.232  1.00  0.00    -0.353 OA
HETATM   26  C1  UNL     1      26.665   0.482  54.454  1.00  0.00     0.210 C 
ENDBRANCH   1  25
TORSDOF 4
ENDMDL
MODEL 9
REMARK VINA RESULT:      -6.5      3.699      5.835
REMARK  4 active torsions:
REMARK  status: ('A' for Active; 'I' for Inactive)
REMARK    1  A    between atoms: O1_2  and  C2_3 
REMARK    2  A    between atoms: C10_13  and  C11_14 
REMARK    3  A    between atoms: C12_15  and  C13_16 
REMARK    4  A    between atoms: C17_24  and  O2_25 
ROOT
HETATM    1  C2  UNL     1      22.983   5.218  48.089  1.00  0.00     0.103 C 
HETATM    2  C3  UNL     1      23.411   5.537  49.328  1.00  0.00     0.068 C 
HETATM    3  C4  UNL     1      23.318   4.434  50.275  1.00  0.00     0.051 C 
HETATM    4  N1  UNL     1      23.959   4.668  51.363  1.00  0.00    -0.246 NA
HETATM    5  C5  UNL     1      24.029   3.757  52.432  1.00  0.00     0.229 C 
HETATM    6  N2  UNL     1      24.140   2.833  53.284  1.00  0.00    -0.253 NA
HETATM    7  C6  UNL     1      24.562   1.502  53.019  1.00  0.00     0.232 C 
HETATM    8  C7  UNL     1      25.309   1.450  51.707  1.00  0.00     0.022 C 
HETATM    9  C8  UNL     1      24.791   2.328  50.872  1.00  0.00     0.010 C 
HETATM   10  C9  UNL     1      23.367   2.123  50.866  1.00  0.00    -0.018 C 
HETATM   11  C10 UNL     1      22.766   1.194  51.585  1.00  0.00     0.039 C 
HETATM   12  N3  UNL     1      23.383   0.644  52.734  1.00  0.00    -0.358 N 
HETATM   13  C14 UNL     1      23.109  -0.483  53.588  1.00  0.00     0.152 C 
HETATM   14  C15 UNL     1      22.637   3.090  50.111  1.00  0.00     0.098 C 
HETATM   15  C16 UNL     1      22.286   2.915  48.726  1.00  0.00     0.028 C 
HETATM   16  C17 UNL     1      22.428   3.877  47.792  1.00  0.00     0.098 C 
ENDROOT
BRANCH  11  17
HETATM   17  C11 UNL     1      21.445   0.772  51.141  1.00  0.00     0.034 C 
HETATM   18  C12 UNL     1      20.259   0.889  51.696  1.00  0.00     0.091 C 
BRANCH  18  19
HETATM   19  C13 UNL     1      18.897   0.458  51.246  1.00  0.00     0.408 C 
HETATM   20  F1  UNL     1      18.549  -0.784  51.736  1.00  0.00    -0.167 F 
HETATM   21  F2  UNL     1      17.933   1.348  51.717  1.00  0.00    -0.167 F 
HETATM   22  F3  UNL     1      18.764   0.460  49.877  1.00  0.00    -0.167 F 
ENDBRANCH  18  19
ENDBRANCH  11  17
BRANCH  16  23
HETATM   23  O2  UNL     1      22.058   3.690  46.445  1.00  0.00    -0.353 OA
HETATM   24  C18 UNL     1      20.678   3.775  46.139  1.00  0.00     0.210 C 
ENDBRANCH  16  23
BRANCH   1  25
HETATM   25  O1  UNL     1      23.052   6.190  47.102  1.00  0.00    -0.353 OA
HETATM   26  C1  UNL     1      22.708   7.545  47.327  1.00  0.00     0.210 C 
ENDBRANCH   1  25
TORSDOF 4
ENDMDL
