MODEL 1
REMARK VINA RESULT:      -9.7      0.000      0.000
REMARK  6 active torsions:
REMARK  status: ('A' for Active; 'I' for Inactive)
REMARK    1  A    between atoms: O1_1  and  C1_2 
REMARK    2  A    between atoms: C5_6  and  C6_7 
REMARK    3  A    between atoms: C6_7  and  O2_8 
REMARK    4  A    between atoms: O2_8  and  C7_9 
REMARK    5  A    between atoms: C7_9  and  C8_10 
REMARK    6  A    between atoms: C18_21  and  C19_22 
ROOT
HETATM    1  C8  UNL     1      22.831  -0.860  54.600  1.00  0.00    -0.032 A 
HETATM    2  C9  UNL     1      21.572  -1.438  54.557  1.00  0.00     0.010 A 
HETATM    3  C10 UNL     1      20.694  -0.813  53.658  1.00  0.00     0.012 A 
HETATM    4  C11 UNL     1      20.827   0.273  52.792  1.00  0.00     0.000 A 
HETATM    5  C12 UNL     1      22.141   0.852  52.851  1.00  0.00     0.149 A 
HETATM    6  C13 UNL     1      22.991   0.216  53.754  1.00  0.00     0.047 A 
HETATM    7  N1  UNL     1      22.906   1.910  52.236  1.00  0.00     0.002 N 
HETATM    8  C14 UNL     1      24.101   1.595  51.299  1.00  0.00     0.179 A 
HETATM    9  C15 UNL     1      24.062   3.424  51.365  1.00  0.00     0.033 A 
HETATM   10  C16 UNL     1      23.195   4.470  52.166  1.00  0.00     0.053 C 
HETATM   11  C17 UNL     1      22.323   3.287  52.636  1.00  0.00     0.209 A 
HETATM   12  C18 UNL     1      23.310   3.116  51.778  1.00  0.00     0.190 A 
HETATM   13  C19 UNL     1      24.453   2.862  50.620  1.00  0.00     0.089 A 
HETATM   14  C20 UNL     1      21.803   2.858  50.918  1.00  0.00     0.048 A 
HETATM   15  C21 UNL     1      22.023   1.657  50.364  1.00  0.00     0.061 A 
HETATM   16  C22 UNL     1      21.330   0.553  50.041  1.00  0.00    -0.007 A 
HETATM   17  C23 UNL     1      20.647   1.691  50.655  1.00  0.00     0.074 A 
HETATM   18  C24 UNL     1      20.059   2.722  51.206  1.00  0.00     0.060 A 
HETATM   19  C25 UNL     1      20.909   3.740  51.456  1.00  0.00    -0.028 A 
HETATM   20  O3  UNL     1      19.620   0.631  50.686  1.00  0.00    -0.372 OA
HETATM   21  C26 UNL     1      19.445   0.437  52.175  1.00  0.00     0.210 C 
ENDROOT
BRANCH   1  22
HETATM   22  C7  UNL     1      23.941  -1.346  55.481  1.00  0.00     0.206 C 
BRANCH  22  23
HETATM   23  O2  UNL     1      25.146  -1.273  54.913  1.00  0.00    -0.382 OA
BRANCH  23  24
HETATM   24  C6  UNL     1      25.983  -0.342  55.421  1.00  0.00     0.202 C 
BRANCH  24  25
HETATM   25  C5  UNL     1      26.868   0.379  54.456  1.00  0.00    -0.054 C 
HETATM   26  C4  UNL     1      26.653   1.462  53.487  1.00  0.00     0.063 C 
HETATM   27  C3  UNL     1      27.643   2.591  53.664  1.00  0.00    -0.024 C 
HETATM   28  C2  UNL     1      28.918   2.243  53.675  1.00  0.00     0.005 C 
HETATM   29  C1  UNL     1      28.982   0.777  53.503  1.00  0.00     0.164 C 
HETATM   30  C27 UNL     1      28.178   0.008  54.459  1.00  0.00     0.013 C 
BRANCH  29  31
HETATM   31  O1  UNL     1      30.347   0.426  53.503  1.00  0.00    -0.388 OA
HETATM   32  H1  UNL     1      30.880   1.143  53.962  1.00  0.00     0.210 HD
ENDBRANCH  29  31
ENDBRANCH  24  25
ENDBRANCH  23  24
ENDBRANCH  22  23
ENDBRANCH   1  22
TORSDOF 6
ENDMDL
MODEL 2
REMARK VINA RESULT:      -9.4      1.821      2.441
REMARK  6 active torsions:
REMARK  status: ('A' for Active; 'I' for Inactive)
REMARK    1  A    between atoms: O1_1  and  C1_2 
REMARK    2  A    between atoms: C5_6  and  C6_7 
REMARK    3  A    between atoms: C6_7  and  O2_8 
REMARK    4  A    between atoms: O2_8  and  C7_9 
REMARK    5  A    between atoms: C7_9  and  C8_10 
REMARK    6  A    between atoms: C18_21  and  C19_22 
ROOT
HETATM    1  C8  UNL     1      22.818   0.388  52.593  1.00  0.00    -0.032 A 
HETATM    2  C9  UNL     1      21.663  -0.246  52.160  1.00  0.00     0.010 A 
HETATM    3  C10 UNL     1      21.028   0.405  51.092  1.00  0.00     0.012 A 
HETATM    4  C11 UNL     1      21.319   1.563  50.369  1.00  0.00     0.000 A 
HETATM    5  C12 UNL     1      22.521   2.198  50.832  1.00  0.00     0.149 A 
HETATM    6  C13 UNL     1      23.130   1.534  51.896  1.00  0.00     0.047 A 
HETATM    7  N1  UNL     1      23.351   3.339  50.526  1.00  0.00     0.002 N 
HETATM    8  C14 UNL     1      24.778   3.160  49.946  1.00  0.00     0.179 A 
HETATM    9  C15 UNL     1      24.595   4.974  50.115  1.00  0.00     0.033 A 
HETATM   10  C16 UNL     1      23.469   5.907  50.704  1.00  0.00     0.053 C 
HETATM   11  C17 UNL     1      22.585   4.649  50.833  1.00  0.00     0.209 A 
HETATM   12  C18 UNL     1      23.781   4.596  50.279  1.00  0.00     0.190 A 
HETATM   13  C19 UNL     1      25.216   4.494  49.475  1.00  0.00     0.089 A 
HETATM   14  C20 UNL     1      22.594   4.335  49.014  1.00  0.00     0.048 A 
HETATM   15  C21 UNL     1      23.041   3.195  48.470  1.00  0.00     0.061 A 
HETATM   16  C22 UNL     1      22.544   2.088  47.895  1.00  0.00    -0.007 A 
HETATM   17  C23 UNL     1      21.640   3.137  48.363  1.00  0.00     0.074 A 
HETATM   18  C24 UNL     1      20.852   4.091  48.791  1.00  0.00     0.060 A 
HETATM   19  C25 UNL     1      21.526   5.125  49.334  1.00  0.00    -0.028 A 
HETATM   20  O3  UNL     1      20.722   2.029  48.036  1.00  0.00    -0.372 OA
HETATM   21  C26 UNL     1      20.155   1.707  49.400  1.00  0.00     0.210 C 
ENDROOT
BRANCH   1  22
HETATM   22  C7  UNL     1      23.671  -0.113  53.718  1.00  0.00     0.206 C 
BRANCH  22  23
HETATM   23  O2  UNL     1      24.655  -0.924  53.323  1.00  0.00    -0.382 OA
BRANCH  23  24
HETATM   24  C6  UNL     1      25.659  -0.341  52.632  1.00  0.00     0.202 C 
BRANCH  24  25
HETATM   25  C5  UNL     1      26.691   0.399  53.422  1.00  0.00    -0.054 C 
HETATM   26  C4  UNL     1      27.215   0.271  54.788  1.00  0.00     0.063 C 
HETATM   27  C3  UNL     1      28.725   0.191  54.814  1.00  0.00    -0.024 C 
HETATM   28  C2  UNL     1      29.365   1.154  54.174  1.00  0.00     0.005 C 
HETATM   29  C1  UNL     1      28.349   2.059  53.599  1.00  0.00     0.164 C 
HETATM   30  C27 UNL     1      27.337   1.400  52.764  1.00  0.00     0.013 C 
BRANCH  29  31
HETATM   31  O1  UNL     1      29.047   3.086  52.932  1.00  0.00    -0.388 OA
HETATM   32  H1  UNL     1      29.032   3.922  53.490  1.00  0.00     0.210 HD
ENDBRANCH  29  31
ENDBRANCH  24  25
ENDBRANCH  23  24
ENDBRANCH  22  23
ENDBRANCH   1  22
TORSDOF 6
ENDMDL
MODEL 3
REMARK VINA RESULT:      -9.4      4.477      6.788
REMARK  6 active torsions:
REMARK  status: ('A' for Active; 'I' for Inactive)
REMARK    1  A    between atoms: O1_1  and  C1_2 
REMARK    2  A    between atoms: C5_6  and  C6_7 
REMARK    3  A    between atoms: C6_7  and  O2_8 
REMARK    4  A    between atoms: O2_8  and  C7_9 
REMARK    5  A    between atoms: C7_9  and  C8_10 
REMARK    6  A    between atoms: C18_21  and  C19_22 
ROOT
HETATM    1  C8  UNL     1      24.666   3.448  49.920  1.00  0.00    -0.032 A 
HETATM    2  C9  UNL     1      26.023   3.186  49.806  1.00  0.00     0.010 A 
HETATM    3  C10 UNL     1      26.761   4.253  49.272  1.00  0.00     0.012 A 
HETATM    4  C11 UNL     1      26.412   5.530  48.830  1.00  0.00     0.000 A 
HETATM    5  C12 UNL     1      25.003   5.779  48.962  1.00  0.00     0.149 A 
HETATM    6  C13 UNL     1      24.293   4.703  49.491  1.00  0.00     0.047 A 
HETATM    7  N1  UNL     1      24.047   6.836  48.735  1.00  0.00     0.002 N 
HETATM    8  C14 UNL     1      23.336   7.542  49.918  1.00  0.00     0.179 A 
HETATM    9  C15 UNL     1      22.621   8.341  48.434  1.00  0.00     0.033 A 
HETATM   10  C16 UNL     1      22.780   8.104  46.883  1.00  0.00     0.053 C 
HETATM   11  C17 UNL     1      23.916   7.115  47.218  1.00  0.00     0.209 A 
HETATM   12  C18 UNL     1      23.313   7.814  48.159  1.00  0.00     0.190 A 
HETATM   13  C19 UNL     1      22.676   8.745  49.361  1.00  0.00     0.089 A 
HETATM   14  C20 UNL     1      24.953   8.419  48.011  1.00  0.00     0.048 A 
HETATM   15  C21 UNL     1      25.371   8.349  49.283  1.00  0.00     0.061 A 
HETATM   16  C22 UNL     1      26.504   8.102  49.960  1.00  0.00    -0.007 A 
HETATM   17  C23 UNL     1      26.506   8.077  48.499  1.00  0.00     0.074 A 
HETATM   18  C24 UNL     1      26.483   8.061  47.190  1.00  0.00     0.060 A 
HETATM   19  C25 UNL     1      25.264   8.337  46.683  1.00  0.00    -0.028 A 
HETATM   20  O3  UNL     1      27.833   7.529  48.842  1.00  0.00    -0.372 OA
HETATM   21  C26 UNL     1      27.714   6.120  48.309  1.00  0.00     0.210 C 
ENDROOT
BRANCH   1  22
HETATM   22  C7  UNL     1      23.671   2.467  50.461  1.00  0.00     0.206 C 
BRANCH  22  23
HETATM   23  O2  UNL     1      23.126   2.842  51.620  1.00  0.00    -0.382 OA
BRANCH  23  24
HETATM   24  C6  UNL     1      23.233   1.958  52.637  1.00  0.00     0.202 C 
BRANCH  24  25
HETATM   25  C5  UNL     1      24.604   1.463  52.968  1.00  0.00    -0.054 C 
HETATM   26  C4  UNL     1      25.267   0.156  52.872  1.00  0.00     0.063 C 
HETATM   27  C3  UNL     1      26.584   0.238  52.134  1.00  0.00    -0.024 C 
HETATM   28  C2  UNL     1      27.438   1.146  52.575  1.00  0.00     0.005 C 
HETATM   29  C1  UNL     1      26.804   1.837  53.715  1.00  0.00     0.164 C 
HETATM   30  C27 UNL     1      25.475   2.398  53.436  1.00  0.00     0.013 C 
BRANCH  29  31
HETATM   31  O1  UNL     1      27.731   2.791  54.181  1.00  0.00    -0.388 OA
HETATM   32  H1  UNL     1      28.370   2.355  54.822  1.00  0.00     0.210 HD
ENDBRANCH  29  31
ENDBRANCH  24  25
ENDBRANCH  23  24
ENDBRANCH  22  23
ENDBRANCH   1  22
TORSDOF 6
ENDMDL
MODEL 4
REMARK VINA RESULT:      -9.3      4.964      7.336
REMARK  6 active torsions:
REMARK  status: ('A' for Active; 'I' for Inactive)
REMARK    1  A    between atoms: O1_1  and  C1_2 
REMARK    2  A    between atoms: C5_6  and  C6_7 
REMARK    3  A    between atoms: C6_7  and  O2_8 
REMARK    4  A    between atoms: O2_8  and  C7_9 
REMARK    5  A    between atoms: C7_9  and  C8_10 
REMARK    6  A    between atoms: C18_21  and  C19_22 
ROOT
HETATM    1  C8  UNL     1      26.719   4.117  49.326  1.00  0.00    -0.032 A 
HETATM    2  C9  UNL     1      25.400   4.458  49.068  1.00  0.00     0.010 A 
HETATM    3  C10 UNL     1      24.475   3.800  49.892  1.00  0.00     0.012 A 
HETATM    4  C11 UNL     1      24.607   2.870  50.924  1.00  0.00     0.000 A 
HETATM    5  C12 UNL     1      25.981   2.536  51.176  1.00  0.00     0.149 A 
HETATM    6  C13 UNL     1      26.879   3.200  50.342  1.00  0.00     0.047 A 
HETATM    7  N1  UNL     1      26.770   1.717  52.066  1.00  0.00     0.002 N 
HETATM    8  C14 UNL     1      27.700   2.355  53.130  1.00  0.00     0.179 A 
HETATM    9  C15 UNL     1      27.959   0.556  53.340  1.00  0.00     0.033 A 
HETATM   10  C16 UNL     1      27.435  -0.720  52.575  1.00  0.00     0.053 C 
HETATM   11  C17 UNL     1      26.496   0.219  51.789  1.00  0.00     0.209 A 
HETATM   12  C18 UNL     1      27.261   0.670  52.764  1.00  0.00     0.190 A 
HETATM   13  C19 UNL     1      28.109   1.266  54.045  1.00  0.00     0.089 A 
HETATM   14  C20 UNL     1      25.597   0.754  53.310  1.00  0.00     0.048 A 
HETATM   15  C21 UNL     1      25.516   2.034  53.701  1.00  0.00     0.061 A 
HETATM   16  C22 UNL     1      24.611   3.025  53.731  1.00  0.00    -0.007 A 
HETATM   17  C23 UNL     1      24.244   1.716  53.193  1.00  0.00     0.074 A 
HETATM   18  C24 UNL     1      23.941   0.535  52.716  1.00  0.00     0.060 A 
HETATM   19  C25 UNL     1      24.970  -0.334  52.771  1.00  0.00    -0.028 A 
HETATM   20  O3  UNL     1      23.090   2.560  52.828  1.00  0.00    -0.372 OA
HETATM   21  C26 UNL     1      23.175   2.536  51.319  1.00  0.00     0.210 C 
ENDROOT
BRANCH   1  22
HETATM   22  C7  UNL     1      27.887   4.684  48.579  1.00  0.00     0.206 C 
BRANCH  22  23
HETATM   23  O2  UNL     1      27.748   5.974  48.268  1.00  0.00    -0.382 OA
BRANCH  23  24
HETATM   24  C6  UNL     1      28.844   6.581  47.762  1.00  0.00     0.202 C 
BRANCH  24  25
HETATM   25  C5  UNL     1      29.361   7.778  48.494  1.00  0.00    -0.054 C 
HETATM   26  C4  UNL     1      30.687   8.183  48.978  1.00  0.00     0.063 C 
HETATM   27  C3  UNL     1      31.061   9.574  48.517  1.00  0.00    -0.024 C 
HETATM   28  C2  UNL     1      30.178  10.524  48.773  1.00  0.00     0.005 C 
HETATM   29  C1  UNL     1      29.036   9.895  49.468  1.00  0.00     0.164 C 
HETATM   30  C27 UNL     1      28.445   8.746  48.770  1.00  0.00     0.013 C 
BRANCH  29  31
HETATM   31  O1  UNL     1      28.111  10.922  49.745  1.00  0.00    -0.388 OA
HETATM   32  H1  UNL     1      27.334  10.547  50.260  1.00  0.00     0.210 HD
ENDBRANCH  29  31
ENDBRANCH  24  25
ENDBRANCH  23  24
ENDBRANCH  22  23
ENDBRANCH   1  22
TORSDOF 6
ENDMDL
MODEL 5
REMARK VINA RESULT:      -9.2      3.854      5.990
REMARK  6 active torsions:
REMARK  status: ('A' for Active; 'I' for Inactive)
REMARK    1  A    between atoms: O1_1  and  C1_2 
REMARK    2  A    between atoms: C5_6  and  C6_7 
REMARK    3  A    between atoms: C6_7  and  O2_8 
REMARK    4  A    between atoms: O2_8  and  C7_9 
REMARK    5  A    between atoms: C7_9  and  C8_10 
REMARK    6  A    between atoms: C18_21  and  C19_22 
ROOT
HETATM    1  C8  UNL     1      25.035   2.836  50.740  1.00  0.00    -0.032 A 
HETATM    2  C9  UNL     1      26.376   2.788  50.390  1.00  0.00     0.010 A 
HETATM    3  C10 UNL     1      26.815   3.917  49.682  1.00  0.00     0.012 A 
HETATM    4  C11 UNL     1      26.180   5.084  49.257  1.00  0.00     0.000 A 
HETATM    5  C12 UNL     1      24.794   5.113  49.635  1.00  0.00     0.149 A 
HETATM    6  C13 UNL     1      24.383   3.979  50.334  1.00  0.00     0.047 A 
HETATM    7  N1  UNL     1      23.646   5.982  49.542  1.00  0.00     0.002 N 
HETATM    8  C14 UNL     1      23.042   6.651  50.804  1.00  0.00     0.179 A 
HETATM    9  C15 UNL     1      21.952   7.211  49.445  1.00  0.00     0.033 A 
HETATM   10  C16 UNL     1      21.876   6.888  47.903  1.00  0.00     0.053 C 
HETATM   11  C17 UNL     1      23.206   6.122  48.065  1.00  0.00     0.209 A 
HETATM   12  C18 UNL     1      22.666   6.784  49.070  1.00  0.00     0.190 A 
HETATM   13  C19 UNL     1      22.098   7.686  50.326  1.00  0.00     0.089 A 
HETATM   14  C20 UNL     1      24.125   7.632  48.595  1.00  0.00     0.048 A 
HETATM   15  C21 UNL     1      24.765   7.726  49.769  1.00  0.00     0.061 A 
HETATM   16  C22 UNL     1      26.024   7.714  50.236  1.00  0.00    -0.007 A 
HETATM   17  C23 UNL     1      25.776   7.582  48.802  1.00  0.00     0.074 A 
HETATM   18  C24 UNL     1      25.527   7.465  47.522  1.00  0.00     0.060 A 
HETATM   19  C25 UNL     1      24.209   7.503  47.237  1.00  0.00    -0.028 A 
HETATM   20  O3  UNL     1      27.216   7.282  48.918  1.00  0.00    -0.372 OA
HETATM   21  C26 UNL     1      27.250   5.836  48.479  1.00  0.00     0.210 C 
ENDROOT
BRANCH   1  22
HETATM   22  C7  UNL     1      24.334   1.750  51.499  1.00  0.00     0.206 C 
BRANCH  22  23
HETATM   23  O2  UNL     1      24.823   1.551  52.724  1.00  0.00    -0.382 OA
BRANCH  23  24
HETATM   24  C6  UNL     1      25.107   0.270  53.046  1.00  0.00     0.202 C 
BRANCH  24  25
HETATM   25  C5  UNL     1      26.520  -0.184  52.859  1.00  0.00    -0.054 C 
HETATM   26  C4  UNL     1      27.794   0.513  52.640  1.00  0.00     0.063 C 
HETATM   27  C3  UNL     1      28.859   0.075  53.620  1.00  0.00    -0.024 C 
HETATM   28  C2  UNL     1      29.065  -1.228  53.703  1.00  0.00     0.005 C 
HETATM   29  C1  UNL     1      28.139  -1.888  52.760  1.00  0.00     0.164 C 
HETATM   30  C27 UNL     1      26.726  -1.527  52.930  1.00  0.00     0.013 C 
BRANCH  29  31
HETATM   31  O1  UNL     1      28.382  -3.273  52.851  1.00  0.00    -0.388 OA
HETATM   32  H1  UNL     1      28.684  -3.622  51.959  1.00  0.00     0.210 HD
ENDBRANCH  29  31
ENDBRANCH  24  25
ENDBRANCH  23  24
ENDBRANCH  22  23
ENDBRANCH   1  22
TORSDOF 6
ENDMDL
MODEL 6
REMARK VINA RESULT:      -9.2      6.502      9.404
REMARK  6 active torsions:
REMARK  status: ('A' for Active; 'I' for Inactive)
REMARK    1  A    between atoms: O1_1  and  C1_2 
REMARK    2  A    between atoms: C5_6  and  C6_7 
REMARK    3  A    between atoms: C6_7  and  O2_8 
REMARK    4  A    between atoms: O2_8  and  C7_9 
REMARK    5  A    between atoms: C7_9  and  C8_10 
REMARK    6  A    between atoms: C18_21  and  C19_22 
ROOT
HETATM    1  C8  UNL     1      27.224   5.005  48.832  1.00  0.00    -0.032 A 
HETATM    2  C9  UNL     1      26.409   6.101  48.592  1.00  0.00     0.010 A 
HETATM    3  C10 UNL     1      27.110   7.247  48.187  1.00  0.00     0.012 A 
HETATM    4  C11 UNL     1      28.463   7.514  47.972  1.00  0.00     0.000 A 
HETATM    5  C12 UNL     1      29.285   6.363  48.222  1.00  0.00     0.149 A 
HETATM    6  C13 UNL     1      28.566   5.239  48.627  1.00  0.00     0.047 A 
HETATM    7  N1  UNL     1      30.672   5.969  48.167  1.00  0.00     0.002 N 
HETATM    8  C14 UNL     1      31.173   4.941  47.119  1.00  0.00     0.179 A 
HETATM    9  C15 UNL     1      32.670   5.344  48.091  1.00  0.00     0.033 A 
HETATM   10  C16 UNL     1      32.939   6.235  49.364  1.00  0.00     0.053 C 
HETATM   11  C17 UNL     1      31.484   6.734  49.239  1.00  0.00     0.209 A 
HETATM   12  C18 UNL     1      32.011   5.920  48.345  1.00  0.00     0.190 A 
HETATM   13  C19 UNL     1      32.652   4.998  47.140  1.00  0.00     0.089 A 
HETATM   14  C20 UNL     1      31.778   7.479  47.576  1.00  0.00     0.048 A 
HETATM   15  C21 UNL     1      31.084   7.128  46.484  1.00  0.00     0.061 A 
HETATM   16  C22 UNL     1      30.114   7.627  45.701  1.00  0.00    -0.007 A 
HETATM   17  C23 UNL     1      30.598   8.397  46.846  1.00  0.00     0.074 A 
HETATM   18  C24 UNL     1      31.048   9.067  47.877  1.00  0.00     0.060 A 
HETATM   19  C25 UNL     1      32.022   8.414  48.542  1.00  0.00    -0.028 A 
HETATM   20  O3  UNL     1      29.408   9.156  46.414  1.00  0.00    -0.372 OA
HETATM   21  C26 UNL     1      28.505   8.993  47.615  1.00  0.00     0.210 C 
ENDROOT
BRANCH   1  22
HETATM   22  C7  UNL     1      26.712   3.668  49.275  1.00  0.00     0.206 C 
BRANCH  22  23
HETATM   23  O2  UNL     1      27.116   3.319  50.498  1.00  0.00    -0.382 OA
BRANCH  23  24
HETATM   24  C6  UNL     1      26.429   2.310  51.081  1.00  0.00     0.202 C 
BRANCH  24  25
HETATM   25  C5  UNL     1      27.063   1.647  52.261  1.00  0.00    -0.054 C 
HETATM   26  C4  UNL     1      26.901   0.336  52.903  1.00  0.00     0.063 C 
HETATM   27  C3  UNL     1      28.221  -0.380  53.079  1.00  0.00    -0.024 C 
HETATM   28  C2  UNL     1      29.172   0.306  53.688  1.00  0.00     0.005 C 
HETATM   29  C1  UNL     1      28.620   1.633  54.025  1.00  0.00     0.164 C 
HETATM   30  C27 UNL     1      28.032   2.362  52.894  1.00  0.00     0.013 C 
BRANCH  29  31
HETATM   31  O1  UNL     1      29.642   2.345  54.684  1.00  0.00    -0.388 OA
HETATM   32  H1  UNL     1      29.748   3.251  54.264  1.00  0.00     0.210 HD
ENDBRANCH  29  31
ENDBRANCH  24  25
ENDBRANCH  23  24
ENDBRANCH  22  23
ENDBRANCH   1  22
TORSDOF 6
ENDMDL
MODEL 7
REMARK VINA RESULT:      -9.0      1.814      6.062
REMARK  6 active torsions:
REMARK  status: ('A' for Active; 'I' for Inactive)
REMARK    1  A    between atoms: O1_1  and  C1_2 
REMARK    2  A    between atoms: C5_6  and  C6_7 
REMARK    3  A    between atoms: C6_7  and  O2_8 
REMARK    4  A    between atoms: O2_8  and  C7_9 
REMARK    5  A    between atoms: C7_9  and  C8_10 
REMARK    6  A    between atoms: C18_21  and  C19_22 
ROOT
HETATM    1  C8  UNL     1      21.444  -0.156  53.460  1.00  0.00    -0.032 A 
HETATM    2  C9  UNL     1      22.266  -1.187  53.889  1.00  0.00     0.010 A 
HETATM    3  C10 UNL     1      23.627  -0.966  53.637  1.00  0.00     0.012 A 
HETATM    4  C11 UNL     1      24.331   0.083  53.042  1.00  0.00     0.000 A 
HETATM    5  C12 UNL     1      23.459   1.140  52.611  1.00  0.00     0.149 A 
HETATM    6  C13 UNL     1      22.112   0.894  52.870  1.00  0.00     0.047 A 
HETATM    7  N1  UNL     1      23.531   2.441  51.990  1.00  0.00     0.002 N 
HETATM    8  C14 UNL     1      23.172   3.727  52.778  1.00  0.00     0.179 A 
HETATM    9  C15 UNL     1      23.582   4.337  51.102  1.00  0.00     0.033 A 
HETATM   10  C16 UNL     1      23.954   3.630  49.743  1.00  0.00     0.053 C 
HETATM   11  C17 UNL     1      24.025   2.304  50.529  1.00  0.00     0.209 A 
HETATM   12  C18 UNL     1      23.803   3.453  51.137  1.00  0.00     0.190 A 
HETATM   13  C19 UNL     1      23.637   4.871  51.961  1.00  0.00     0.089 A 
HETATM   14  C20 UNL     1      25.400   2.901  51.606  1.00  0.00     0.048 A 
HETATM   15  C21 UNL     1      25.312   2.958  52.943  1.00  0.00     0.061 A 
HETATM   16  C22 UNL     1      25.772   2.292  54.014  1.00  0.00    -0.007 A 
HETATM   17  C23 UNL     1      26.149   1.862  52.668  1.00  0.00     0.074 A 
HETATM   18  C24 UNL     1      26.471   1.496  51.453  1.00  0.00     0.060 A 
HETATM   19  C25 UNL     1      25.922   2.283  50.505  1.00  0.00    -0.028 A 
HETATM   20  O3  UNL     1      26.641   0.760  53.518  1.00  0.00    -0.372 OA
HETATM   21  C26 UNL     1      25.779  -0.386  53.039  1.00  0.00     0.210 C 
ENDROOT
BRANCH   1  22
HETATM   22  C7  UNL     1      19.954  -0.159  53.617  1.00  0.00     0.206 C 
BRANCH  22  23
HETATM   23  O2  UNL     1      19.304  -0.610  52.542  1.00  0.00    -0.382 OA
BRANCH  23  24
HETATM   24  C6  UNL     1      18.257   0.138  52.128  1.00  0.00     0.202 C 
BRANCH  24  25
HETATM   25  C5  UNL     1      18.566   1.344  51.299  1.00  0.00    -0.054 C 
HETATM   26  C4  UNL     1      18.520   2.791  51.547  1.00  0.00     0.063 C 
HETATM   27  C3  UNL     1      19.822   3.472  51.189  1.00  0.00    -0.024 C 
HETATM   28  C2  UNL     1      20.280   3.237  49.972  1.00  0.00     0.005 C 
HETATM   29  C1  UNL     1      19.325   2.330  49.303  1.00  0.00     0.164 C 
HETATM   30  C27 UNL     1      19.023   1.098  50.041  1.00  0.00     0.013 C 
BRANCH  29  31
HETATM   31  O1  UNL     1      19.821   2.102  48.004  1.00  0.00    -0.388 OA
HETATM   32  H1  UNL     1      19.059   1.900  47.382  1.00  0.00     0.210 HD
ENDBRANCH  29  31
ENDBRANCH  24  25
ENDBRANCH  23  24
ENDBRANCH  22  23
ENDBRANCH   1  22
TORSDOF 6
ENDMDL
MODEL 8
REMARK VINA RESULT:      -9.0      2.583      5.896
REMARK  6 active torsions:
REMARK  status: ('A' for Active; 'I' for Inactive)
REMARK    1  A    between atoms: O1_1  and  C1_2 
REMARK    2  A    between atoms: C5_6  and  C6_7 
REMARK    3  A    between atoms: C6_7  and  O2_8 
REMARK    4  A    between atoms: O2_8  and  C7_9 
REMARK    5  A    between atoms: C7_9  and  C8_10 
REMARK    6  A    between atoms: C18_21  and  C19_22 
ROOT
HETATM    1  C8  UNL     1      25.406   1.490  51.725  1.00  0.00    -0.032 A 
HETATM    2  C9  UNL     1      26.655   1.958  51.347  1.00  0.00     0.010 A 
HETATM    3  C10 UNL     1      26.611   3.142  50.597  1.00  0.00     0.012 A 
HETATM    4  C11 UNL     1      25.566   3.952  50.150  1.00  0.00     0.000 A 
HETATM    5  C12 UNL     1      24.283   3.450  50.558  1.00  0.00     0.149 A 
HETATM    6  C13 UNL     1      24.355   2.271  51.298  1.00  0.00     0.047 A 
HETATM    7  N1  UNL     1      22.885   3.796  50.464  1.00  0.00     0.002 N 
HETATM    8  C14 UNL     1      22.078   4.221  51.718  1.00  0.00     0.179 A 
HETATM    9  C15 UNL     1      20.845   4.261  50.366  1.00  0.00     0.033 A 
HETATM   10  C16 UNL     1      20.889   3.879  48.836  1.00  0.00     0.053 C 
HETATM   11  C17 UNL     1      22.414   3.700  48.993  1.00  0.00     0.209 A 
HETATM   12  C18 UNL     1      21.666   4.134  49.989  1.00  0.00     0.190 A 
HETATM   13  C19 UNL     1      20.800   4.786  51.230  1.00  0.00     0.089 A 
HETATM   14  C20 UNL     1      22.673   5.468  49.457  1.00  0.00     0.048 A 
HETATM   15  C21 UNL     1      23.235   5.846  50.614  1.00  0.00     0.061 A 
HETATM   16  C22 UNL     1      24.401   6.345  51.054  1.00  0.00    -0.007 A 
HETATM   17  C23 UNL     1      24.212   6.074  49.630  1.00  0.00     0.074 A 
HETATM   18  C24 UNL     1      24.019   5.823  48.359  1.00  0.00     0.060 A 
HETATM   19  C25 UNL     1      22.790   5.332  48.102  1.00  0.00    -0.028 A 
HETATM   20  O3  UNL     1      25.656   6.367  49.724  1.00  0.00    -0.372 OA
HETATM   21  C26 UNL     1      26.250   5.034  49.327  1.00  0.00     0.210 C 
ENDROOT
BRANCH   1  22
HETATM   22  C7  UNL     1      25.192   0.245  52.530  1.00  0.00     0.206 C 
BRANCH  22  23
HETATM   23  O2  UNL     1      24.551   0.455  53.681  1.00  0.00    -0.382 OA
BRANCH  23  24
HETATM   24  C6  UNL     1      23.599  -0.449  54.001  1.00  0.00     0.202 C 
BRANCH  24  25
HETATM   25  C5  UNL     1      22.181  -0.083  53.701  1.00  0.00    -0.054 C 
HETATM   26  C4  UNL     1      21.530   1.116  53.158  1.00  0.00     0.063 C 
HETATM   27  C3  UNL     1      20.622   0.794  51.992  1.00  0.00    -0.024 C 
HETATM   28  C2  UNL     1      19.722  -0.150  52.206  1.00  0.00     0.005 C 
HETATM   29  C1  UNL     1      19.893  -0.624  53.594  1.00  0.00     0.164 C 
HETATM   30  C27 UNL     1      21.255  -1.053  53.936  1.00  0.00     0.013 C 
BRANCH  29  31
HETATM   31  O1  UNL     1      18.919  -1.618  53.809  1.00  0.00    -0.388 OA
HETATM   32  H1  UNL     1      19.366  -2.481  54.065  1.00  0.00     0.210 HD
ENDBRANCH  29  31
ENDBRANCH  24  25
ENDBRANCH  23  24
ENDBRANCH  22  23
ENDBRANCH   1  22
TORSDOF 6
ENDMDL
MODEL 9
REMARK VINA RESULT:      -8.9      4.740      7.106
REMARK  6 active torsions:
REMARK  status: ('A' for Active; 'I' for Inactive)
REMARK    1  A    between atoms: O1_1  and  C1_2 
REMARK    2  A    between atoms: C5_6  and  C6_7 
REMARK    3  A    between atoms: C6_7  and  O2_8 
REMARK    4  A    between atoms: O2_8  and  C7_9 
REMARK    5  A    between atoms: C7_9  and  C8_10 
REMARK    6  A    between atoms: C18_21  and  C19_22 
ROOT
HETATM    1  C8  UNL     1      26.754   4.288  49.197  1.00  0.00    -0.032 A 
HETATM    2  C9  UNL     1      27.903   4.831  48.641  1.00  0.00     0.010 A 
HETATM    3  C10 UNL     1      27.744   6.151  48.195  1.00  0.00     0.012 A 
HETATM    4  C11 UNL     1      26.667   7.038  48.197  1.00  0.00     0.000 A 
HETATM    5  C12 UNL     1      25.491   6.455  48.782  1.00  0.00     0.149 A 
HETATM    6  C13 UNL     1      25.674   5.142  49.213  1.00  0.00     0.047 A 
HETATM    7  N1  UNL     1      24.129   6.811  49.102  1.00  0.00     0.002 N 
HETATM    8  C14 UNL     1      23.661   6.946  50.574  1.00  0.00     0.179 A 
HETATM    9  C15 UNL     1      22.149   7.282  49.598  1.00  0.00     0.033 A 
HETATM   10  C16 UNL     1      21.814   7.247  48.057  1.00  0.00     0.053 C 
HETATM   11  C17 UNL     1      23.322   7.042  47.802  1.00  0.00     0.209 A 
HETATM   12  C18 UNL     1      22.851   7.243  49.017  1.00  0.00     0.190 A 
HETATM   13  C19 UNL     1      22.335   7.603  50.540  1.00  0.00     0.089 A 
HETATM   14  C20 UNL     1      23.773   8.663  48.559  1.00  0.00     0.048 A 
HETATM   15  C21 UNL     1      24.608   8.778  49.602  1.00  0.00     0.061 A 
HETATM   16  C22 UNL     1      25.869   9.170  49.846  1.00  0.00    -0.007 A 
HETATM   17  C23 UNL     1      25.339   9.220  48.485  1.00  0.00     0.074 A 
HETATM   18  C24 UNL     1      24.841   9.256  47.274  1.00  0.00     0.060 A 
HETATM   19  C25 UNL     1      23.562   8.831  47.220  1.00  0.00    -0.028 A 
HETATM   20  O3  UNL     1      26.777   9.487  48.291  1.00  0.00    -0.372 OA
HETATM   21  C26 UNL     1      27.193   8.277  47.487  1.00  0.00     0.210 C 
ENDROOT
BRANCH   1  22
HETATM   22  C7  UNL     1      26.671   2.895  49.743  1.00  0.00     0.206 C 
BRANCH  22  23
HETATM   23  O2  UNL     1      26.475   2.849  51.062  1.00  0.00    -0.382 OA
BRANCH  23  24
HETATM   24  C6  UNL     1      26.211   1.627  51.577  1.00  0.00     0.202 C 
BRANCH  24  25
HETATM   25  C5  UNL     1      27.129   1.123  52.644  1.00  0.00    -0.054 C 
HETATM   26  C4  UNL     1      27.348  -0.191  53.263  1.00  0.00     0.063 C 
HETATM   27  C3  UNL     1      28.806  -0.593  53.244  1.00  0.00    -0.024 C 
HETATM   28  C2  UNL     1      29.655   0.289  53.742  1.00  0.00     0.005 C 
HETATM   29  C1  UNL     1      28.872   1.459  54.188  1.00  0.00     0.164 C 
HETATM   30  C27 UNL     1      27.991   2.038  53.165  1.00  0.00     0.013 C 
BRANCH  29  31
HETATM   31  O1  UNL     1      29.790   2.382  54.728  1.00  0.00    -0.388 OA
HETATM   32  H1  UNL     1      30.689   2.254  54.300  1.00  0.00     0.210 HD
ENDBRANCH  29  31
ENDBRANCH  24  25
ENDBRANCH  23  24
ENDBRANCH  22  23
ENDBRANCH   1  22
TORSDOF 6
ENDMDL
