MODEL 1
REMARK VINA RESULT:      -6.9      0.000      0.000
REMARK  4 active torsions:
REMARK  status: ('A' for Active; 'I' for Inactive)
REMARK    1  A    between atoms: O1_2  and  C2_3 
REMARK    2  A    between atoms: C7_10  and  N3_11 
REMARK    3  A    between atoms: N3_11  and  C9_13 
REMARK    4  A    between atoms: C12_18  and  O3_19 
ROOT
HETATM    1  C9  UNL     1      23.158   3.581  51.993  1.00  0.00     0.103 C 
HETATM    2  C10 UNL     1      22.080   4.286  52.271  1.00  0.00     0.110 C 
HETATM    3  C11 UNL     1      20.791   3.670  52.356  1.00  0.00     0.089 C 
HETATM    4  N4  UNL     1      19.745   3.180  52.412  1.00  0.00    -0.192 NA
ENDROOT
BRANCH   1   5
HETATM    5  N3  UNL     1      23.120   2.179  51.761  1.00  0.00    -0.345 N 
HETATM    6  C8  UNL     1      22.819   1.893  50.350  1.00  0.00     0.157 C 
BRANCH   5   7
HETATM    7  C7  UNL     1      23.327   1.105  52.673  1.00  0.00     0.145 A 
HETATM    8  C4  UNL     1      24.525   0.626  53.164  1.00  0.00     0.066 A 
HETATM    9  C3  UNL     1      25.711   1.320  52.678  1.00  0.00     0.057 A 
HETATM   10  C5  UNL     1      24.533  -0.432  54.048  1.00  0.00     0.182 A 
HETATM   11  C2  UNL     1      26.886   0.882  53.133  1.00  0.00     0.102 A 
HETATM   12  C12 UNL     1      27.004  -0.244  54.082  1.00  0.00     0.325 A 
HETATM   13  O2  UNL     1      25.794  -0.817  54.466  1.00  0.00    -0.295 OA
HETATM   14  N1  UNL     1      23.385  -1.012  54.442  1.00  0.00    -0.217 NA
HETATM   15  C6  UNL     1      22.198  -0.540  53.959  1.00  0.00     0.238 A 
HETATM   16  N2  UNL     1      22.175   0.506  53.084  1.00  0.00    -0.223 NA
BRANCH  11  17
HETATM   17  O1  UNL     1      28.081   1.446  52.754  1.00  0.00    -0.355 OA
HETATM   18  C1  UNL     1      28.699   2.444  53.550  1.00  0.00     0.209 C 
ENDBRANCH  11  17
BRANCH  12  19
HETATM   19  O3  UNL     1      27.799  -1.262  53.559  1.00  0.00    -0.359 OA
HETATM   20  C13 UNL     1      27.075  -2.014  52.638  1.00  0.00     0.205 C 
ENDBRANCH  12  19
ENDBRANCH   5   7
ENDBRANCH   1   5
TORSDOF 4
ENDMDL
MODEL 2
REMARK VINA RESULT:      -6.8      1.494      2.149
REMARK  4 active torsions:
REMARK  status: ('A' for Active; 'I' for Inactive)
REMARK    1  A    between atoms: O1_2  and  C2_3 
REMARK    2  A    between atoms: C7_10  and  N3_11 
REMARK    3  A    between atoms: N3_11  and  C9_13 
REMARK    4  A    between atoms: C12_18  and  O3_19 
ROOT
HETATM    1  C9  UNL     1      24.649   3.891  50.822  1.00  0.00     0.103 C 
HETATM    2  C10 UNL     1      24.547   3.743  49.516  1.00  0.00     0.110 C 
HETATM    3  C11 UNL     1      23.429   3.067  48.931  1.00  0.00     0.089 C 
HETATM    4  N4  UNL     1      22.536   2.510  48.453  1.00  0.00    -0.192 NA
ENDROOT
BRANCH   1   5
HETATM    5  N3  UNL     1      23.672   3.399  51.730  1.00  0.00    -0.345 N 
HETATM    6  C8  UNL     1      22.766   4.476  52.153  1.00  0.00     0.157 C 
BRANCH   5   7
HETATM    7  C7  UNL     1      23.488   2.079  52.233  1.00  0.00     0.145 A 
HETATM    8  C4  UNL     1      24.355   1.338  53.010  1.00  0.00     0.066 A 
HETATM    9  C3  UNL     1      25.606   2.006  53.347  1.00  0.00     0.057 A 
HETATM   10  C5  UNL     1      24.006   0.065  53.409  1.00  0.00     0.182 A 
HETATM   11  C2  UNL     1      26.467   1.317  54.098  1.00  0.00     0.102 A 
HETATM   12  C12 UNL     1      26.189  -0.052  54.576  1.00  0.00     0.325 A 
HETATM   13  O2  UNL     1      24.958  -0.573  54.184  1.00  0.00    -0.295 OA
HETATM   14  N1  UNL     1      22.825  -0.472  53.050  1.00  0.00    -0.217 NA
HETATM   15  C6  UNL     1      21.965   0.259  52.281  1.00  0.00     0.238 A 
HETATM   16  N2  UNL     1      22.299   1.520  51.880  1.00  0.00    -0.223 NA
BRANCH  11  17
HETATM   17  O1  UNL     1      27.682   1.829  54.485  1.00  0.00    -0.355 OA
HETATM   18  C1  UNL     1      28.570   2.394  53.535  1.00  0.00     0.209 C 
ENDBRANCH  11  17
BRANCH  12  19
HETATM   19  O3  UNL     1      27.172  -0.944  54.152  1.00  0.00    -0.359 OA
HETATM   20  C13 UNL     1      26.988  -1.260  52.809  1.00  0.00     0.205 C 
ENDBRANCH  12  19
ENDBRANCH   5   7
ENDBRANCH   1   5
TORSDOF 4
ENDMDL
MODEL 3
REMARK VINA RESULT:      -6.6      1.885      3.707
REMARK  4 active torsions:
REMARK  status: ('A' for Active; 'I' for Inactive)
REMARK    1  A    between atoms: O1_2  and  C2_3 
REMARK    2  A    between atoms: C7_10  and  N3_11 
REMARK    3  A    between atoms: N3_11  and  C9_13 
REMARK    4  A    between atoms: C12_18  and  O3_19 
ROOT
HETATM    1  C9  UNL     1      21.923   0.865  51.823  1.00  0.00     0.103 C 
HETATM    2  C10 UNL     1      21.365   0.411  50.719  1.00  0.00     0.110 C 
HETATM    3  C11 UNL     1      21.584   1.053  49.458  1.00  0.00     0.089 C 
HETATM    4  N4  UNL     1      21.746   1.575  48.439  1.00  0.00    -0.192 NA
ENDROOT
BRANCH   1   5
HETATM    5  N3  UNL     1      22.770   2.006  51.843  1.00  0.00    -0.345 N 
HETATM    6  C8  UNL     1      21.997   3.222  52.134  1.00  0.00     0.157 C 
BRANCH   5   7
HETATM    7  C7  UNL     1      24.176   2.094  51.630  1.00  0.00     0.145 A 
HETATM    8  C4  UNL     1      25.181   1.447  52.319  1.00  0.00     0.066 A 
HETATM    9  C3  UNL     1      24.728   0.571  53.392  1.00  0.00     0.057 A 
HETATM   10  C5  UNL     1      26.499   1.655  51.971  1.00  0.00     0.182 A 
HETATM   11  C2  UNL     1      25.675  -0.070  54.079  1.00  0.00     0.102 A 
HETATM   12  C12 UNL     1      27.115   0.084  53.786  1.00  0.00     0.325 A 
HETATM   13  O2  UNL     1      27.411   0.951  52.737  1.00  0.00    -0.295 OA
HETATM   14  N1  UNL     1      26.825   2.486  50.963  1.00  0.00    -0.217 NA
HETATM   15  C6  UNL     1      25.831   3.126  50.279  1.00  0.00     0.238 A 
HETATM   16  N2  UNL     1      24.524   2.929  50.613  1.00  0.00    -0.223 NA
BRANCH  11  17
HETATM   17  O1  UNL     1      25.385  -0.925  55.115  1.00  0.00    -0.355 OA
HETATM   18  C1  UNL     1      24.042  -1.251  55.434  1.00  0.00     0.209 C 
ENDBRANCH  11  17
BRANCH  12  19
HETATM   19  O3  UNL     1      27.812   0.533  54.906  1.00  0.00    -0.359 OA
HETATM   20  C13 UNL     1      29.107   0.901  54.551  1.00  0.00     0.205 C 
ENDBRANCH  12  19
ENDBRANCH   5   7
ENDBRANCH   1   5
TORSDOF 4
ENDMDL
MODEL 4
REMARK VINA RESULT:      -6.6      3.506      5.954
REMARK  4 active torsions:
REMARK  status: ('A' for Active; 'I' for Inactive)
REMARK    1  A    between atoms: O1_2  and  C2_3 
REMARK    2  A    between atoms: C7_10  and  N3_11 
REMARK    3  A    between atoms: N3_11  and  C9_13 
REMARK    4  A    between atoms: C12_18  and  O3_19 
ROOT
HETATM    1  C9  UNL     1      26.081   0.070  52.151  1.00  0.00     0.103 C 
HETATM    2  C10 UNL     1      27.265  -0.335  52.563  1.00  0.00     0.110 C 
HETATM    3  C11 UNL     1      27.631  -0.275  53.945  1.00  0.00     0.089 C 
HETATM    4  N4  UNL     1      27.938  -0.217  55.059  1.00  0.00    -0.192 NA
ENDROOT
BRANCH   1   5
HETATM    5  N3  UNL     1      25.096   0.588  53.036  1.00  0.00    -0.345 N 
HETATM    6  C8  UNL     1      25.380   1.992  53.367  1.00  0.00     0.157 C 
BRANCH   5   7
HETATM    7  C7  UNL     1      23.952  -0.053  53.592  1.00  0.00     0.145 A 
HETATM    8  C4  UNL     1      22.660  -0.056  53.107  1.00  0.00     0.066 A 
HETATM    9  C3  UNL     1      22.463   0.694  51.872  1.00  0.00     0.057 A 
HETATM   10  C5  UNL     1      21.672  -0.737  53.785  1.00  0.00     0.182 A 
HETATM   11  C2  UNL     1      21.225   0.711  51.376  1.00  0.00     0.102 A 
HETATM   12  C12 UNL     1      20.096   0.014  52.025  1.00  0.00     0.325 A 
HETATM   13  O2  UNL     1      20.421  -0.664  53.197  1.00  0.00    -0.295 OA
HETATM   14  N1  UNL     1      21.946  -1.404  54.921  1.00  0.00    -0.217 NA
HETATM   15  C6  UNL     1      23.224  -1.404  55.403  1.00  0.00     0.238 A 
HETATM   16  N2  UNL     1      24.211  -0.733  54.742  1.00  0.00    -0.223 NA
BRANCH  11  17
HETATM   17  O1  UNL     1      20.903   1.381  50.219  1.00  0.00    -0.355 OA
HETATM   18  C1  UNL     1      21.512   1.035  48.986  1.00  0.00     0.209 C 
ENDBRANCH  11  17
BRANCH  12  19
HETATM   19  O3  UNL     1      19.065   0.900  52.329  1.00  0.00    -0.359 OA
HETATM   20  C13 UNL     1      17.867   0.451  51.778  1.00  0.00     0.205 C 
ENDBRANCH  12  19
ENDBRANCH   5   7
ENDBRANCH   1   5
TORSDOF 4
ENDMDL
MODEL 5
REMARK VINA RESULT:      -6.6      3.149      6.227
REMARK  4 active torsions:
REMARK  status: ('A' for Active; 'I' for Inactive)
REMARK    1  A    between atoms: O1_2  and  C2_3 
REMARK    2  A    between atoms: C7_10  and  N3_11 
REMARK    3  A    between atoms: N3_11  and  C9_13 
REMARK    4  A    between atoms: C12_18  and  O3_19 
ROOT
HETATM    1  C9  UNL     1      27.951  -0.503  53.379  1.00  0.00     0.103 C 
HETATM    2  C10 UNL     1      29.141  -0.088  53.761  1.00  0.00     0.110 C 
HETATM    3  C11 UNL     1      29.322   1.201  54.356  1.00  0.00     0.089 C 
HETATM    4  N4  UNL     1      29.477   2.247  54.824  1.00  0.00    -0.192 NA
ENDROOT
BRANCH   1   5
HETATM    5  N3  UNL     1      26.778   0.285  53.527  1.00  0.00    -0.345 N 
HETATM    6  C8  UNL     1      26.252   0.183  54.897  1.00  0.00     0.157 C 
BRANCH   5   7
HETATM    7  C7  UNL     1      26.108   1.102  52.571  1.00  0.00     0.145 A 
HETATM    8  C4  UNL     1      24.771   1.091  52.232  1.00  0.00     0.066 A 
HETATM    9  C3  UNL     1      23.960   0.118  52.954  1.00  0.00     0.057 A 
HETATM   10  C5  UNL     1      24.296   1.961  51.275  1.00  0.00     0.182 A 
HETATM   11  C2  UNL     1      22.662   0.080  52.650  1.00  0.00     0.102 A 
HETATM   12  C12 UNL     1      22.054   0.970  51.640  1.00  0.00     0.325 A 
HETATM   13  O2  UNL     1      22.939   1.852  51.026  1.00  0.00    -0.295 OA
HETATM   14  N1  UNL     1      25.120   2.828  50.658  1.00  0.00    -0.217 NA
HETATM   15  C6  UNL     1      26.444   2.842  50.992  1.00  0.00     0.238 A 
HETATM   16  N2  UNL     1      26.928   1.986  51.938  1.00  0.00    -0.223 NA
BRANCH  11  17
HETATM   17  O1  UNL     1      21.787  -0.790  53.256  1.00  0.00    -0.355 OA
HETATM   18  C1  UNL     1      20.744  -0.311  54.088  1.00  0.00     0.209 C 
ENDBRANCH  11  17
BRANCH  12  19
HETATM   19  O3  UNL     1      21.431   0.236  50.633  1.00  0.00    -0.359 OA
HETATM   20  C13 UNL     1      21.111   1.066  49.561  1.00  0.00     0.205 C 
ENDBRANCH  12  19
ENDBRANCH   5   7
ENDBRANCH   1   5
TORSDOF 4
ENDMDL
MODEL 6
REMARK VINA RESULT:      -6.4      1.951      3.592
REMARK  4 active torsions:
REMARK  status: ('A' for Active; 'I' for Inactive)
REMARK    1  A    between atoms: O1_2  and  C2_3 
REMARK    2  A    between atoms: C7_10  and  N3_11 
REMARK    3  A    between atoms: N3_11  and  C9_13 
REMARK    4  A    between atoms: C12_18  and  O3_19 
ROOT
HETATM    1  C9  UNL     1      22.019   3.174  52.108  1.00  0.00     0.103 C 
HETATM    2  C10 UNL     1      21.802   4.466  52.246  1.00  0.00     0.110 C 
HETATM    3  C11 UNL     1      22.486   5.425  51.433  1.00  0.00     0.089 C 
HETATM    4  N4  UNL     1      23.046   6.205  50.788  1.00  0.00    -0.192 NA
ENDROOT
BRANCH   1   5
HETATM    5  N3  UNL     1      22.932   2.645  51.156  1.00  0.00    -0.345 N 
HETATM    6  C8  UNL     1      22.231   2.250  49.926  1.00  0.00     0.157 C 
BRANCH   5   7
HETATM    7  C7  UNL     1      24.343   2.472  51.254  1.00  0.00     0.145 A 
HETATM    8  C4  UNL     1      25.036   1.577  52.044  1.00  0.00     0.066 A 
HETATM    9  C3  UNL     1      24.203   0.711  52.870  1.00  0.00     0.057 A 
HETATM   10  C5  UNL     1      26.413   1.551  52.008  1.00  0.00     0.182 A 
HETATM   11  C2  UNL     1      24.842  -0.167  53.645  1.00  0.00     0.102 A 
HETATM   12  C12 UNL     1      26.315  -0.275  53.681  1.00  0.00     0.325 A 
HETATM   13  O2  UNL     1      26.989   0.611  52.844  1.00  0.00    -0.295 OA
HETATM   14  N1  UNL     1      27.101   2.391  51.213  1.00  0.00    -0.217 NA
HETATM   15  C6  UNL     1      26.418   3.278  50.430  1.00  0.00     0.238 A 
HETATM   16  N2  UNL     1      25.054   3.314  50.455  1.00  0.00    -0.223 NA
BRANCH  11  17
HETATM   17  O1  UNL     1      24.178  -1.041  54.472  1.00  0.00    -0.355 OA
HETATM   18  C1  UNL     1      22.763  -1.025  54.561  1.00  0.00     0.209 C 
ENDBRANCH  11  17
BRANCH  12  19
HETATM   19  O3  UNL     1      26.803  -0.081  54.972  1.00  0.00    -0.359 OA
HETATM   20  C13 UNL     1      28.182   0.109  54.942  1.00  0.00     0.205 C 
ENDBRANCH  12  19
ENDBRANCH   5   7
ENDBRANCH   1   5
TORSDOF 4
ENDMDL
MODEL 7
REMARK VINA RESULT:      -6.2      1.725      2.459
REMARK  4 active torsions:
REMARK  status: ('A' for Active; 'I' for Inactive)
REMARK    1  A    between atoms: O1_2  and  C2_3 
REMARK    2  A    between atoms: C7_10  and  N3_11 
REMARK    3  A    between atoms: N3_11  and  C9_13 
REMARK    4  A    between atoms: C12_18  and  O3_19 
ROOT
HETATM    1  C9  UNL     1      21.049   0.569  50.673  1.00  0.00     0.103 C 
HETATM    2  C10 UNL     1      21.691   1.142  49.675  1.00  0.00     0.110 C 
HETATM    3  C11 UNL     1      22.705   2.124  49.911  1.00  0.00     0.089 C 
HETATM    4  N4  UNL     1      23.515   2.928  50.095  1.00  0.00    -0.192 NA
ENDROOT
BRANCH   1   5
HETATM    5  N3  UNL     1      21.312   0.879  52.035  1.00  0.00    -0.345 N 
HETATM    6  C8  UNL     1      20.930   2.267  52.336  1.00  0.00     0.157 C 
BRANCH   5   7
HETATM    7  C7  UNL     1      21.860   0.057  53.061  1.00  0.00     0.145 A 
HETATM    8  C4  UNL     1      23.155   0.044  53.538  1.00  0.00     0.066 A 
HETATM    9  C3  UNL     1      24.056   0.998  52.902  1.00  0.00     0.057 A 
HETATM   10  C5  UNL     1      23.509  -0.828  54.545  1.00  0.00     0.182 A 
HETATM   11  C2  UNL     1      25.316   1.012  53.340  1.00  0.00     0.102 A 
HETATM   12  C12 UNL     1      25.796   0.118  54.413  1.00  0.00     0.325 A 
HETATM   13  O2  UNL     1      24.834  -0.743  54.935  1.00  0.00    -0.295 OA
HETATM   14  N1  UNL     1      22.608  -1.676  55.074  1.00  0.00    -0.217 NA
HETATM   15  C6  UNL     1      21.325  -1.665  54.604  1.00  0.00     0.238 A 
HETATM   16  N2  UNL     1      20.962  -0.807  53.608  1.00  0.00    -0.223 NA
BRANCH  11  17
HETATM   17  O1  UNL     1      26.266   1.861  52.826  1.00  0.00    -0.355 OA
HETATM   18  C1  UNL     1      26.630   1.802  51.457  1.00  0.00     0.209 C 
ENDBRANCH  11  17
BRANCH  12  19
HETATM   19  O3  UNL     1      26.863  -0.665  53.977  1.00  0.00    -0.359 OA
HETATM   20  C13 UNL     1      28.058  -0.192  54.513  1.00  0.00     0.205 C 
ENDBRANCH  12  19
ENDBRANCH   5   7
ENDBRANCH   1   5
TORSDOF 4
ENDMDL
MODEL 8
REMARK VINA RESULT:      -5.9      1.518      3.428
REMARK  4 active torsions:
REMARK  status: ('A' for Active; 'I' for Inactive)
REMARK    1  A    between atoms: O1_2  and  C2_3 
REMARK    2  A    between atoms: C7_10  and  N3_11 
REMARK    3  A    between atoms: N3_11  and  C9_13 
REMARK    4  A    between atoms: C12_18  and  O3_19 
ROOT
HETATM    1  C9  UNL     1      21.541   0.446  51.179  1.00  0.00     0.103 C 
HETATM    2  C10 UNL     1      20.339   0.961  51.022  1.00  0.00     0.110 C 
HETATM    3  C11 UNL     1      19.940   2.142  51.727  1.00  0.00     0.089 C 
HETATM    4  N4  UNL     1      19.607   3.088  52.303  1.00  0.00    -0.192 NA
ENDROOT
BRANCH   1   5
HETATM    5  N3  UNL     1      22.515   1.015  52.044  1.00  0.00    -0.345 N 
HETATM    6  C8  UNL     1      22.200   0.719  53.449  1.00  0.00     0.157 C 
BRANCH   5   7
HETATM    7  C7  UNL     1      23.673   1.781  51.724  1.00  0.00     0.145 A 
HETATM    8  C4  UNL     1      24.995   1.458  51.955  1.00  0.00     0.066 A 
HETATM    9  C3  UNL     1      25.211   0.171  52.604  1.00  0.00     0.057 A 
HETATM   10  C5  UNL     1      25.993   2.329  51.574  1.00  0.00     0.182 A 
HETATM   11  C2  UNL     1      26.478  -0.172  52.842  1.00  0.00     0.102 A 
HETATM   12  C12 UNL     1      27.619   0.690  52.473  1.00  0.00     0.325 A 
HETATM   13  O2  UNL     1      27.274   1.891  51.859  1.00  0.00    -0.295 OA
HETATM   14  N1  UNL     1      25.699   3.500  50.978  1.00  0.00    -0.217 NA
HETATM   15  C6  UNL     1      24.391   3.821  50.748  1.00  0.00     0.238 A 
HETATM   16  N2  UNL     1      23.394   2.968  51.120  1.00  0.00    -0.223 NA
BRANCH  11  17
HETATM   17  O1  UNL     1      26.820  -1.357  53.449  1.00  0.00    -0.355 OA
HETATM   18  C1  UNL     1      27.487  -2.378  52.725  1.00  0.00     0.209 C 
ENDBRANCH  11  17
BRANCH  12  19
HETATM   19  O3  UNL     1      28.396   1.001  53.587  1.00  0.00    -0.359 OA
HETATM   20  C13 UNL     1      28.662   2.367  53.623  1.00  0.00     0.205 C 
ENDBRANCH  12  19
ENDBRANCH   5   7
ENDBRANCH   1   5
TORSDOF 4
ENDMDL
MODEL 9
REMARK VINA RESULT:      -5.9      2.649      4.740
REMARK  4 active torsions:
REMARK  status: ('A' for Active; 'I' for Inactive)
REMARK    1  A    between atoms: O1_2  and  C2_3 
REMARK    2  A    between atoms: C7_10  and  N3_11 
REMARK    3  A    between atoms: N3_11  and  C9_13 
REMARK    4  A    between atoms: C12_18  and  O3_19 
ROOT
HETATM    1  C9  UNL     1      23.144   3.800  50.156  1.00  0.00     0.103 C 
HETATM    2  C10 UNL     1      23.793   4.341  49.145  1.00  0.00     0.110 C 
HETATM    3  C11 UNL     1      25.180   4.679  49.248  1.00  0.00     0.089 C 
HETATM    4  N4  UNL     1      26.297   4.967  49.330  1.00  0.00    -0.192 NA
ENDROOT
BRANCH   1   5
HETATM    5  N3  UNL     1      23.763   3.516  51.403  1.00  0.00    -0.345 N 
HETATM    6  C8  UNL     1      23.722   4.693  52.284  1.00  0.00     0.157 C 
BRANCH   5   7
HETATM    7  C7  UNL     1      24.371   2.311  51.859  1.00  0.00     0.145 A 
HETATM    8  C4  UNL     1      23.773   1.253  52.512  1.00  0.00     0.066 A 
HETATM    9  C3  UNL     1      22.344   1.407  52.756  1.00  0.00     0.057 A 
HETATM   10  C5  UNL     1      24.524   0.158  52.881  1.00  0.00     0.182 A 
HETATM   11  C2  UNL     1      21.734   0.402  53.386  1.00  0.00     0.102 A 
HETATM   12  C12 UNL     1      22.448  -0.815  53.824  1.00  0.00     0.325 A 
HETATM   13  O2  UNL     1      23.810  -0.834  53.529  1.00  0.00    -0.295 OA
HETATM   14  N1  UNL     1      25.842   0.102  52.615  1.00  0.00    -0.217 NA
HETATM   15  C6  UNL     1      26.437   1.148  51.967  1.00  0.00     0.238 A 
HETATM   16  N2  UNL     1      25.704   2.237  51.596  1.00  0.00    -0.223 NA
BRANCH  11  17
HETATM   17  O1  UNL     1      20.391   0.420  53.678  1.00  0.00    -0.355 OA
HETATM   18  C1  UNL     1      19.447  -0.166  52.797  1.00  0.00     0.209 C 
ENDBRANCH  11  17
BRANCH  12  19
HETATM   19  O3  UNL     1      22.317  -1.010  55.197  1.00  0.00    -0.359 OA
HETATM   20  C13 UNL     1      23.450  -1.642  55.704  1.00  0.00     0.205 C 
ENDBRANCH  12  19
ENDBRANCH   5   7
ENDBRANCH   1   5
TORSDOF 4
ENDMDL
