MODEL 1
REMARK VINA RESULT:      -7.3      0.000      0.000
REMARK  9 active torsions:
REMARK  status: ('A' for Active; 'I' for Inactive)
REMARK    1  A    between atoms: C2_2  and  O1_3 
REMARK    2  A    between atoms: C2_2  and  C3_4 
REMARK    3  A    between atoms: C3_4  and  C4_5 
REMARK    4  A    between atoms: C3_4  and  O5_24 
REMARK    5  A    between atoms: C4_5  and  C5_6 
REMARK    6  A    between atoms: C6_7  and  O2_8 
REMARK    7  A    between atoms: O2_8  and  C7_9 
REMARK    8  A    between atoms: C12_16  and  O3_17 
REMARK    9  A    between atoms: C14_19  and  O4_20 
ROOT
HETATM    1  C7  UNL     1      26.636   1.863  52.485  1.00  0.00     0.203 C 
HETATM    2  C8  UNL     1      27.991   1.189  52.795  1.00  0.00     0.128 C 
HETATM    3  N1  UNL     1      27.493   0.832  53.929  1.00  0.00    -0.255 NA
HETATM    4  C9  UNL     1      27.904   0.120  55.009  1.00  0.00     0.232 C 
HETATM    5  N2  UNL     1      26.647  -0.292  54.996  1.00  0.00    -0.241 NA
HETATM    6  C10 UNL     1      25.591   0.044  54.109  1.00  0.00     0.070 A 
HETATM    7  C11 UNL     1      24.383  -0.638  54.313  1.00  0.00     0.072 A 
HETATM    8  C12 UNL     1      23.238  -0.671  53.743  1.00  0.00     0.103 A 
HETATM    9  C14 UNL     1      23.254   0.228  52.633  1.00  0.00     0.102 A 
HETATM   10  C16 UNL     1      24.367   1.024  52.234  1.00  0.00     0.052 A 
HETATM   11  C17 UNL     1      25.558   0.940  52.979  1.00  0.00     0.008 A 
ENDROOT
BRANCH   1  12
HETATM   12  O2  UNL     1      26.570   2.061  51.123  1.00  0.00    -0.348 OA
BRANCH  12  13
HETATM   13  C6  UNL     1      26.666   3.169  50.426  1.00  0.00     0.136 C 
HETATM   14  C5  UNL     1      26.003   3.775  49.394  1.00  0.00     0.027 C 
BRANCH  14  15
HETATM   15  C4  UNL     1      26.647   5.047  49.055  1.00  0.00     0.037 C 
BRANCH  15  16
HETATM   16  C3  UNL     1      27.228   6.129  48.627  1.00  0.00     0.083 C 
BRANCH  16  17
HETATM   17  C2  UNL     1      28.576   6.323  48.092  1.00  0.00     0.143 C 
HETATM   18  C1  UNL     1      29.808   6.361  47.779  1.00  0.00     0.052 C 
BRANCH  17  19
HETATM   19  O1  UNL     1      29.112   5.421  49.039  1.00  0.00    -0.379 OA
HETATM   20  H3  UNL     1      30.116   5.324  49.254  1.00  0.00     0.211 HD
ENDBRANCH  17  19
ENDBRANCH  16  17
BRANCH  16  21
HETATM   21  O5  UNL     1      26.014   6.587  48.989  1.00  0.00    -0.357 OA
HETATM   22  C18 UNL     1      25.737   7.372  50.125  1.00  0.00     0.209 C 
ENDBRANCH  16  21
ENDBRANCH  15  16
ENDBRANCH  14  15
ENDBRANCH  12  13
ENDBRANCH   1  12
BRANCH   9  23
HETATM   23  O4  UNL     1      22.299   0.557  51.693  1.00  0.00    -0.353 OA
HETATM   24  C15 UNL     1      22.310   1.455  50.669  1.00  0.00     0.210 C 
ENDBRANCH   9  23
BRANCH   8  25
HETATM   25  O3  UNL     1      21.967  -1.097  53.579  1.00  0.00    -0.353 OA
HETATM   26  C13 UNL     1      21.051  -1.544  54.513  1.00  0.00     0.210 C 
ENDBRANCH   8  25
TORSDOF 9
ENDMDL
MODEL 2
REMARK VINA RESULT:      -7.2      0.724      1.828
REMARK  9 active torsions:
REMARK  status: ('A' for Active; 'I' for Inactive)
REMARK    1  A    between atoms: C2_2  and  O1_3 
REMARK    2  A    between atoms: C2_2  and  C3_4 
REMARK    3  A    between atoms: C3_4  and  C4_5 
REMARK    4  A    between atoms: C3_4  and  O5_24 
REMARK    5  A    between atoms: C4_5  and  C5_6 
REMARK    6  A    between atoms: C6_7  and  O2_8 
REMARK    7  A    between atoms: O2_8  and  C7_9 
REMARK    8  A    between atoms: C12_16  and  O3_17 
REMARK    9  A    between atoms: C14_19  and  O4_20 
ROOT
HETATM    1  C7  UNL     1      26.919   1.970  52.574  1.00  0.00     0.203 C 
HETATM    2  C8  UNL     1      28.278   1.290  52.854  1.00  0.00     0.128 C 
HETATM    3  N1  UNL     1      27.790   0.899  53.981  1.00  0.00    -0.255 NA
HETATM    4  C9  UNL     1      28.211   0.157  55.037  1.00  0.00     0.232 C 
HETATM    5  N2  UNL     1      26.955  -0.259  55.020  1.00  0.00    -0.241 NA
HETATM    6  C10 UNL     1      25.892   0.101  54.152  1.00  0.00     0.070 A 
HETATM    7  C11 UNL     1      24.687  -0.591  54.344  1.00  0.00     0.072 A 
HETATM    8  C12 UNL     1      23.537  -0.611  53.781  1.00  0.00     0.103 A 
HETATM    9  C14 UNL     1      23.543   0.320  52.699  1.00  0.00     0.102 A 
HETATM   10  C16 UNL     1      24.651   1.132  52.315  1.00  0.00     0.052 A 
HETATM   11  C17 UNL     1      25.847   1.029  53.048  1.00  0.00     0.008 A 
ENDROOT
BRANCH   1  12
HETATM   12  O2  UNL     1      26.842   2.207  51.220  1.00  0.00    -0.348 OA
BRANCH  12  13
HETATM   13  C6  UNL     1      26.729   3.341  50.567  1.00  0.00     0.136 C 
HETATM   14  C5  UNL     1      26.702   3.760  49.265  1.00  0.00     0.027 C 
BRANCH  14  15
HETATM   15  C4  UNL     1      26.562   5.218  49.204  1.00  0.00     0.037 C 
BRANCH  15  16
HETATM   16  C3  UNL     1      26.421   6.497  49.015  1.00  0.00     0.083 C 
BRANCH  16  17
HETATM   17  C2  UNL     1      25.462   7.434  49.600  1.00  0.00     0.143 C 
HETATM   18  C1  UNL     1      24.737   8.221  50.288  1.00  0.00     0.052 C 
BRANCH  17  19
HETATM   19  O1  UNL     1      26.127   7.378  50.847  1.00  0.00    -0.379 OA
HETATM   20  H3  UNL     1      26.397   8.202  51.405  1.00  0.00     0.211 HD
ENDBRANCH  17  19
ENDBRANCH  16  17
BRANCH  16  21
HETATM   21  O5  UNL     1      27.457   6.205  48.204  1.00  0.00    -0.357 OA
HETATM   22  C18 UNL     1      28.534   7.063  47.908  1.00  0.00     0.209 C 
ENDBRANCH  16  21
ENDBRANCH  15  16
ENDBRANCH  14  15
ENDBRANCH  12  13
ENDBRANCH   1  12
BRANCH   9  23
HETATM   23  O4  UNL     1      22.579   0.675  51.776  1.00  0.00    -0.353 OA
HETATM   24  C15 UNL     1      22.630   1.483  50.681  1.00  0.00     0.210 C 
ENDBRANCH   9  23
BRANCH   8  25
HETATM   25  O3  UNL     1      22.266  -1.035  53.615  1.00  0.00    -0.353 OA
HETATM   26  C13 UNL     1      21.272  -1.257  54.549  1.00  0.00     0.210 C 
ENDBRANCH   8  25
TORSDOF 9
ENDMDL
MODEL 3
REMARK VINA RESULT:      -6.5      2.328      3.900
REMARK  9 active torsions:
REMARK  status: ('A' for Active; 'I' for Inactive)
REMARK    1  A    between atoms: C2_2  and  O1_3 
REMARK    2  A    between atoms: C2_2  and  C3_4 
REMARK    3  A    between atoms: C3_4  and  C4_5 
REMARK    4  A    between atoms: C3_4  and  O5_24 
REMARK    5  A    between atoms: C4_5  and  C5_6 
REMARK    6  A    between atoms: C6_7  and  O2_8 
REMARK    7  A    between atoms: O2_8  and  C7_9 
REMARK    8  A    between atoms: C12_16  and  O3_17 
REMARK    9  A    between atoms: C14_19  and  O4_20 
ROOT
HETATM    1  C7  UNL     1      23.948   2.291  50.760  1.00  0.00     0.203 C 
HETATM    2  C8  UNL     1      22.467   2.713  50.630  1.00  0.00     0.128 C 
HETATM    3  N1  UNL     1      22.153   1.485  50.859  1.00  0.00    -0.255 NA
HETATM    4  C9  UNL     1      21.010   0.764  50.988  1.00  0.00     0.232 C 
HETATM    5  N2  UNL     1      21.716   0.140  51.917  1.00  0.00    -0.241 NA
HETATM    6  C10 UNL     1      23.048   0.368  52.350  1.00  0.00     0.070 A 
HETATM    7  C11 UNL     1      23.481  -0.418  53.427  1.00  0.00     0.072 A 
HETATM    8  C12 UNL     1      24.547  -0.507  54.131  1.00  0.00     0.103 A 
HETATM    9  C14 UNL     1      25.490   0.454  53.655  1.00  0.00     0.102 A 
HETATM   10  C16 UNL     1      25.270   1.360  52.576  1.00  0.00     0.052 A 
HETATM   11  C17 UNL     1      24.034   1.322  51.906  1.00  0.00     0.008 A 
ENDROOT
BRANCH   1  12
HETATM   12  O2  UNL     1      24.689   3.430  50.984  1.00  0.00    -0.348 OA
BRANCH  12  13
HETATM   13  C6  UNL     1      25.577   4.023  50.220  1.00  0.00     0.136 C 
HETATM   14  C5  UNL     1      26.680   3.671  49.491  1.00  0.00     0.027 C 
BRANCH  14  15
HETATM   15  C4  UNL     1      27.262   4.852  48.849  1.00  0.00     0.037 C 
BRANCH  15  16
HETATM   16  C3  UNL     1      27.830   5.933  48.400  1.00  0.00     0.083 C 
BRANCH  16  17
HETATM   17  C2  UNL     1      27.322   7.303  48.332  1.00  0.00     0.143 C 
HETATM   18  C1  UNL     1      26.835   8.469  48.477  1.00  0.00     0.052 C 
BRANCH  17  19
HETATM   19  O1  UNL     1      27.010   7.285  49.711  1.00  0.00    -0.379 OA
HETATM   20  H3  UNL     1      26.709   8.108  50.255  1.00  0.00     0.211 HD
ENDBRANCH  17  19
ENDBRANCH  16  17
BRANCH  16  21
HETATM   21  O5  UNL     1      28.786   5.006  48.192  1.00  0.00    -0.357 OA
HETATM   22  C18 UNL     1      30.169   5.258  48.106  1.00  0.00     0.209 C 
ENDBRANCH  16  21
ENDBRANCH  15  16
ENDBRANCH  14  15
ENDBRANCH  12  13
ENDBRANCH   1  12
BRANCH   9  23
HETATM   23  O4  UNL     1      26.768   0.779  54.062  1.00  0.00    -0.353 OA
HETATM   24  C15 UNL     1      27.961   0.747  53.407  1.00  0.00     0.210 C 
ENDBRANCH   9  23
BRANCH   8  25
HETATM   25  O3  UNL     1      25.321  -1.009  55.117  1.00  0.00    -0.353 OA
HETATM   26  C13 UNL     1      25.067  -1.138  56.470  1.00  0.00     0.210 C 
ENDBRANCH   8  25
TORSDOF 9
ENDMDL
MODEL 4
REMARK VINA RESULT:      -6.5      4.111      6.165
REMARK  9 active torsions:
REMARK  status: ('A' for Active; 'I' for Inactive)
REMARK    1  A    between atoms: C2_2  and  O1_3 
REMARK    2  A    between atoms: C2_2  and  C3_4 
REMARK    3  A    between atoms: C3_4  and  C4_5 
REMARK    4  A    between atoms: C3_4  and  O5_24 
REMARK    5  A    between atoms: C4_5  and  C5_6 
REMARK    6  A    between atoms: C6_7  and  O2_8 
REMARK    7  A    between atoms: O2_8  and  C7_9 
REMARK    8  A    between atoms: C12_16  and  O3_17 
REMARK    9  A    between atoms: C14_19  and  O4_20 
ROOT
HETATM    1  C7  UNL     1      23.290   1.394  51.226  1.00  0.00     0.203 C 
HETATM    2  C8  UNL     1      23.174   2.765  50.523  1.00  0.00     0.128 C 
HETATM    3  N1  UNL     1      22.148   2.297  49.898  1.00  0.00    -0.255 NA
HETATM    4  C9  UNL     1      21.247   2.758  48.994  1.00  0.00     0.232 C 
HETATM    5  N2  UNL     1      20.417   2.009  49.703  1.00  0.00    -0.241 NA
HETATM    6  C10 UNL     1      20.671   1.207  50.845  1.00  0.00     0.070 A 
HETATM    7  C11 UNL     1      19.548   0.596  51.423  1.00  0.00     0.072 A 
HETATM    8  C12 UNL     1      19.326  -0.144  52.443  1.00  0.00     0.103 A 
HETATM    9  C14 UNL     1      20.562  -0.369  53.122  1.00  0.00     0.102 A 
HETATM   10  C16 UNL     1      21.829   0.151  52.722  1.00  0.00     0.052 A 
HETATM   11  C17 UNL     1      21.894   0.950  51.566  1.00  0.00     0.008 A 
ENDROOT
BRANCH   1  12
HETATM   12  O2  UNL     1      24.070   1.564  52.349  1.00  0.00    -0.348 OA
BRANCH  12  13
HETATM   13  C6  UNL     1      25.221   1.019  52.666  1.00  0.00     0.136 C 
HETATM   14  C5  UNL     1      25.881  -0.157  52.436  1.00  0.00     0.027 C 
BRANCH  14  15
HETATM   15  C4  UNL     1      27.181  -0.150  53.111  1.00  0.00     0.037 C 
BRANCH  15  16
HETATM   16  C3  UNL     1      28.383  -0.079  53.602  1.00  0.00     0.083 C 
BRANCH  16  17
HETATM   17  C2  UNL     1      29.058   1.028  54.279  1.00  0.00     0.143 C 
HETATM   18  C1  UNL     1      29.667   2.073  54.675  1.00  0.00     0.052 C 
BRANCH  17  19
HETATM   19  O1  UNL     1      29.231   1.709  53.052  1.00  0.00    -0.379 OA
HETATM   20  H3  UNL     1      28.623   2.471  52.713  1.00  0.00     0.211 HD
ENDBRANCH  17  19
ENDBRANCH  16  17
BRANCH  16  21
HETATM   21  O5  UNL     1      28.353  -1.335  53.114  1.00  0.00    -0.357 OA
HETATM   22  C18 UNL     1      29.359  -2.306  53.285  1.00  0.00     0.209 C 
ENDBRANCH  16  21
ENDBRANCH  15  16
ENDBRANCH  14  15
ENDBRANCH  12  13
ENDBRANCH   1  12
BRANCH   9  23
HETATM   23  O4  UNL     1      20.878  -1.075  54.265  1.00  0.00    -0.353 OA
HETATM   24  C15 UNL     1      22.033  -1.172  54.978  1.00  0.00     0.210 C 
ENDBRANCH   9  23
BRANCH   8  25
HETATM   25  O3  UNL     1      18.553  -0.860  53.288  1.00  0.00    -0.353 OA
HETATM   26  C13 UNL     1      17.249  -1.297  53.147  1.00  0.00     0.210 C 
ENDBRANCH   8  25
TORSDOF 9
ENDMDL
MODEL 5
REMARK VINA RESULT:      -6.4      3.076      7.810
REMARK  9 active torsions:
REMARK  status: ('A' for Active; 'I' for Inactive)
REMARK    1  A    between atoms: C2_2  and  O1_3 
REMARK    2  A    between atoms: C2_2  and  C3_4 
REMARK    3  A    between atoms: C3_4  and  C4_5 
REMARK    4  A    between atoms: C3_4  and  O5_24 
REMARK    5  A    between atoms: C4_5  and  C5_6 
REMARK    6  A    between atoms: C6_7  and  O2_8 
REMARK    7  A    between atoms: O2_8  and  C7_9 
REMARK    8  A    between atoms: C12_16  and  O3_17 
REMARK    9  A    between atoms: C14_19  and  O4_20 
ROOT
HETATM    1  C7  UNL     1      23.708   2.339  50.787  1.00  0.00     0.203 C 
HETATM    2  C8  UNL     1      24.071   2.959  49.419  1.00  0.00     0.128 C 
HETATM    3  N1  UNL     1      25.099   3.485  49.991  1.00  0.00    -0.255 NA
HETATM    4  C9  UNL     1      26.151   4.258  49.617  1.00  0.00     0.232 C 
HETATM    5  N2  UNL     1      26.794   3.495  50.487  1.00  0.00    -0.241 NA
HETATM    6  C10 UNL     1      26.312   2.428  51.288  1.00  0.00     0.070 A 
HETATM    7  C11 UNL     1      27.276   1.756  52.053  1.00  0.00     0.072 A 
HETATM    8  C12 UNL     1      27.285   0.753  52.847  1.00  0.00     0.103 A 
HETATM    9  C14 UNL     1      25.959   0.231  52.938  1.00  0.00     0.102 A 
HETATM   10  C16 UNL     1      24.821   0.747  52.251  1.00  0.00     0.052 A 
HETATM   11  C17 UNL     1      24.990   1.864  51.413  1.00  0.00     0.008 A 
ENDROOT
BRANCH   1  12
HETATM   12  O2  UNL     1      22.827   1.305  50.557  1.00  0.00    -0.348 OA
BRANCH  12  13
HETATM   13  C6  UNL     1      21.788   0.911  51.256  1.00  0.00     0.136 C 
HETATM   14  C5  UNL     1      20.580   1.420  51.647  1.00  0.00     0.027 C 
BRANCH  14  15
HETATM   15  C4  UNL     1      19.856   0.440  52.462  1.00  0.00     0.037 C 
BRANCH  15  16
HETATM   16  C3  UNL     1      19.148  -0.465  53.071  1.00  0.00     0.083 C 
BRANCH  16  17
HETATM   17  C2  UNL     1      17.868  -1.066  52.697  1.00  0.00     0.143 C 
HETATM   18  C1  UNL     1      16.726  -1.615  52.580  1.00  0.00     0.052 C 
BRANCH  17  19
HETATM   19  O1  UNL     1      17.529  -1.256  54.057  1.00  0.00    -0.379 OA
HETATM   20  H3  UNL     1      18.002  -1.917  54.693  1.00  0.00     0.211 HD
ENDBRANCH  17  19
ENDBRANCH  16  17
BRANCH  16  21
HETATM   21  O5  UNL     1      20.203  -0.328  53.899  1.00  0.00    -0.357 OA
HETATM   22  C18 UNL     1      21.104  -1.351  54.255  1.00  0.00     0.209 C 
ENDBRANCH  16  21
ENDBRANCH  15  16
ENDBRANCH  14  15
ENDBRANCH  12  13
ENDBRANCH   1  12
BRANCH   9  23
HETATM   23  O4  UNL     1      25.428  -0.836  53.636  1.00  0.00    -0.353 OA
HETATM   24  C15 UNL     1      24.792  -0.903  54.838  1.00  0.00     0.210 C 
ENDBRANCH   9  23
BRANCH   8  25
HETATM   25  O3  UNL     1      27.861  -0.140  53.682  1.00  0.00    -0.353 OA
HETATM   26  C13 UNL     1      28.875  -1.050  53.449  1.00  0.00     0.210 C 
ENDBRANCH   8  25
TORSDOF 9
ENDMDL
MODEL 6
REMARK VINA RESULT:      -6.4      2.105      3.467
REMARK  9 active torsions:
REMARK  status: ('A' for Active; 'I' for Inactive)
REMARK    1  A    between atoms: C2_2  and  O1_3 
REMARK    2  A    between atoms: C2_2  and  C3_4 
REMARK    3  A    between atoms: C3_4  and  C4_5 
REMARK    4  A    between atoms: C3_4  and  O5_24 
REMARK    5  A    between atoms: C4_5  and  C5_6 
REMARK    6  A    between atoms: C6_7  and  O2_8 
REMARK    7  A    between atoms: O2_8  and  C7_9 
REMARK    8  A    between atoms: C12_16  and  O3_17 
REMARK    9  A    between atoms: C14_19  and  O4_20 
ROOT
HETATM    1  C7  UNL     1      23.886   0.843  53.150  1.00  0.00     0.203 C 
HETATM    2  C8  UNL     1      24.994  -0.162  53.536  1.00  0.00     0.128 C 
HETATM    3  N1  UNL     1      24.263  -0.498  54.543  1.00  0.00    -0.255 NA
HETATM    4  C9  UNL     1      24.337  -1.388  55.565  1.00  0.00     0.232 C 
HETATM    5  N2  UNL     1      23.037  -1.486  55.341  1.00  0.00    -0.241 NA
HETATM    6  C10 UNL     1      22.229  -0.823  54.381  1.00  0.00     0.070 A 
HETATM    7  C11 UNL     1      20.883  -1.215  54.343  1.00  0.00     0.072 A 
HETATM    8  C12 UNL     1      19.859  -0.919  53.634  1.00  0.00     0.103 A 
HETATM    9  C14 UNL     1      20.242   0.054  52.661  1.00  0.00     0.102 A 
HETATM   10  C16 UNL     1      21.552   0.597  52.510  1.00  0.00     0.052 A 
HETATM   11  C17 UNL     1      22.567   0.160  53.381  1.00  0.00     0.008 A 
ENDROOT
BRANCH   1  12
HETATM   12  O2  UNL     1      24.072   1.182  51.828  1.00  0.00    -0.348 OA
BRANCH  12  13
HETATM   13  C6  UNL     1      24.534   2.291  51.298  1.00  0.00     0.136 C 
HETATM   14  C5  UNL     1      25.712   2.745  50.771  1.00  0.00     0.027 C 
BRANCH  14  15
HETATM   15  C4  UNL     1      25.574   4.141  50.348  1.00  0.00     0.037 C 
BRANCH  15  16
HETATM   16  C3  UNL     1      25.337   5.343  49.911  1.00  0.00     0.083 C 
BRANCH  16  17
HETATM   17  C2  UNL     1      24.296   6.296  50.297  1.00  0.00     0.143 C 
HETATM   18  C1  UNL     1      23.519   7.173  50.792  1.00  0.00     0.052 C 
BRANCH  17  19
HETATM   19  O1  UNL     1      25.076   6.748  51.386  1.00  0.00    -0.379 OA
HETATM   20  H3  UNL     1      24.728   6.859  52.351  1.00  0.00     0.211 HD
ENDBRANCH  17  19
ENDBRANCH  16  17
BRANCH  16  21
HETATM   21  O5  UNL     1      26.408   4.983  49.177  1.00  0.00    -0.357 OA
HETATM   22  C18 UNL     1      27.280   5.866  48.509  1.00  0.00     0.209 C 
ENDBRANCH  16  21
ENDBRANCH  15  16
ENDBRANCH  14  15
ENDBRANCH  12  13
ENDBRANCH   1  12
BRANCH   9  23
HETATM   23  O4  UNL     1      19.538   0.692  51.660  1.00  0.00    -0.353 OA
HETATM   24  C15 UNL     1      19.297   2.010  51.422  1.00  0.00     0.210 C 
ENDBRANCH   9  23
BRANCH   8  25
HETATM   25  O3  UNL     1      18.565  -1.011  53.259  1.00  0.00    -0.353 OA
HETATM   26  C13 UNL     1      17.673  -2.060  53.388  1.00  0.00     0.210 C 
ENDBRANCH   8  25
TORSDOF 9
ENDMDL
MODEL 7
REMARK VINA RESULT:      -6.3      1.993      2.766
REMARK  9 active torsions:
REMARK  status: ('A' for Active; 'I' for Inactive)
REMARK    1  A    between atoms: C2_2  and  O1_3 
REMARK    2  A    between atoms: C2_2  and  C3_4 
REMARK    3  A    between atoms: C3_4  and  C4_5 
REMARK    4  A    between atoms: C3_4  and  O5_24 
REMARK    5  A    between atoms: C4_5  and  C5_6 
REMARK    6  A    between atoms: C6_7  and  O2_8 
REMARK    7  A    between atoms: O2_8  and  C7_9 
REMARK    8  A    between atoms: C12_16  and  O3_17 
REMARK    9  A    between atoms: C14_19  and  O4_20 
ROOT
HETATM    1  C7  UNL     1      23.925   1.127  52.816  1.00  0.00     0.203 C 
HETATM    2  C8  UNL     1      25.136   0.206  53.084  1.00  0.00     0.128 C 
HETATM    3  N1  UNL     1      24.541  -0.172  54.163  1.00  0.00    -0.255 NA
HETATM    4  C9  UNL     1      24.785  -1.047  55.171  1.00  0.00     0.232 C 
HETATM    5  N2  UNL     1      23.478  -1.238  55.086  1.00  0.00    -0.241 NA
HETATM    6  C10 UNL     1      22.529  -0.641  54.216  1.00  0.00     0.070 A 
HETATM    7  C11 UNL     1      21.218  -1.126  54.320  1.00  0.00     0.072 A 
HETATM    8  C12 UNL     1      20.106  -0.908  53.724  1.00  0.00     0.103 A 
HETATM    9  C14 UNL     1      20.315   0.081  52.715  1.00  0.00     0.102 A 
HETATM   10  C16 UNL     1      21.560   0.714  52.427  1.00  0.00     0.052 A 
HETATM   11  C17 UNL     1      22.689   0.356  53.185  1.00  0.00     0.008 A 
ENDROOT
BRANCH   1  12
HETATM   12  O2  UNL     1      23.947   1.468  51.481  1.00  0.00    -0.348 OA
BRANCH  12  13
HETATM   13  C6  UNL     1      24.292   2.596  50.904  1.00  0.00     0.136 C 
HETATM   14  C5  UNL     1      24.046   3.932  51.067  1.00  0.00     0.027 C 
BRANCH  14  15
HETATM   15  C4  UNL     1      24.749   4.706  50.041  1.00  0.00     0.037 C 
BRANCH  15  16
HETATM   16  C3  UNL     1      25.482   5.316  49.156  1.00  0.00     0.083 C 
BRANCH  16  17
HETATM   17  C2  UNL     1      26.877   5.095  48.777  1.00  0.00     0.143 C 
HETATM   18  C1  UNL     1      28.129   5.083  48.547  1.00  0.00     0.052 C 
BRANCH  17  19
HETATM   19  O1  UNL     1      27.276   6.270  49.454  1.00  0.00    -0.379 OA
HETATM   20  H3  UNL     1      28.120   6.819  49.228  1.00  0.00     0.211 HD
ENDBRANCH  17  19
ENDBRANCH  16  17
BRANCH  16  21
HETATM   21  O5  UNL     1      24.307   5.965  49.044  1.00  0.00    -0.357 OA
HETATM   22  C18 UNL     1      24.142   7.295  48.609  1.00  0.00     0.209 C 
ENDBRANCH  16  21
ENDBRANCH  15  16
ENDBRANCH  14  15
ENDBRANCH  12  13
ENDBRANCH   1  12
BRANCH   9  23
HETATM   23  O4  UNL     1      19.466   0.660  51.793  1.00  0.00    -0.353 OA
HETATM   24  C15 UNL     1      19.659   1.659  50.890  1.00  0.00     0.210 C 
ENDBRANCH   9  23
BRANCH   8  25
HETATM   25  O3  UNL     1      18.789  -1.094  53.488  1.00  0.00    -0.353 OA
HETATM   26  C13 UNL     1      18.016  -2.233  53.609  1.00  0.00     0.210 C 
ENDBRANCH   8  25
TORSDOF 9
ENDMDL
MODEL 8
REMARK VINA RESULT:      -6.1      3.612      9.437
REMARK  9 active torsions:
REMARK  status: ('A' for Active; 'I' for Inactive)
REMARK    1  A    between atoms: C2_2  and  O1_3 
REMARK    2  A    between atoms: C2_2  and  C3_4 
REMARK    3  A    between atoms: C3_4  and  C4_5 
REMARK    4  A    between atoms: C3_4  and  O5_24 
REMARK    5  A    between atoms: C4_5  and  C5_6 
REMARK    6  A    between atoms: C6_7  and  O2_8 
REMARK    7  A    between atoms: O2_8  and  C7_9 
REMARK    8  A    between atoms: C12_16  and  O3_17 
REMARK    9  A    between atoms: C14_19  and  O4_20 
ROOT
HETATM    1  C7  UNL     1      27.404   6.385  48.582  1.00  0.00     0.203 C 
HETATM    2  C8  UNL     1      26.348   7.189  47.791  1.00  0.00     0.128 C 
HETATM    3  N1  UNL     1      27.190   8.164  47.763  1.00  0.00    -0.255 NA
HETATM    4  C9  UNL     1      27.234   9.417  47.244  1.00  0.00     0.232 C 
HETATM    5  N2  UNL     1      28.501   9.096  47.033  1.00  0.00    -0.241 NA
HETATM    6  C10 UNL     1      29.192   7.893  47.330  1.00  0.00     0.070 A 
HETATM    7  C11 UNL     1      30.525   7.834  46.899  1.00  0.00     0.072 A 
HETATM    8  C12 UNL     1      31.461   6.961  46.920  1.00  0.00     0.103 A 
HETATM    9  C14 UNL     1      30.968   5.778  47.549  1.00  0.00     0.102 A 
HETATM   10  C16 UNL     1      29.649   5.606  48.064  1.00  0.00     0.052 A 
HETATM   11  C17 UNL     1      28.741   6.675  47.960  1.00  0.00     0.008 A 
ENDROOT
BRANCH   1  12
HETATM   12  O2  UNL     1      27.067   5.052  48.493  1.00  0.00    -0.348 OA
BRANCH  12  13
HETATM   13  C6  UNL     1      26.941   4.150  49.439  1.00  0.00     0.136 C 
HETATM   14  C5  UNL     1      26.016   3.221  49.833  1.00  0.00     0.027 C 
BRANCH  14  15
HETATM   15  C4  UNL     1      26.488   2.508  51.023  1.00  0.00     0.037 C 
BRANCH  15  16
HETATM   16  C3  UNL     1      26.779   1.883  52.125  1.00  0.00     0.083 C 
BRANCH  16  17
HETATM   17  C2  UNL     1      27.953   1.998  52.990  1.00  0.00     0.143 C 
HETATM   18  C1  UNL     1      28.848   2.211  53.869  1.00  0.00     0.052 C 
BRANCH  17  19
HETATM   19  O1  UNL     1      27.208   2.722  53.950  1.00  0.00    -0.379 OA
HETATM   20  H3  UNL     1      27.021   2.400  54.912  1.00  0.00     0.211 HD
ENDBRANCH  17  19
ENDBRANCH  16  17
BRANCH  16  21
HETATM   21  O5  UNL     1      25.585   1.347  51.805  1.00  0.00    -0.357 OA
HETATM   22  C18 UNL     1      24.841   0.460  52.608  1.00  0.00     0.209 C 
ENDBRANCH  16  21
ENDBRANCH  15  16
ENDBRANCH  14  15
ENDBRANCH  12  13
ENDBRANCH   1  12
BRANCH   9  23
HETATM   23  O4  UNL     1      31.553   4.555  47.813  1.00  0.00    -0.353 OA
HETATM   24  C15 UNL     1      31.752   3.460  47.028  1.00  0.00     0.210 C 
ENDBRANCH   9  23
BRANCH   8  25
HETATM   25  O3  UNL     1      32.704   6.496  46.667  1.00  0.00    -0.353 OA
HETATM   26  C13 UNL     1      33.937   7.052  46.952  1.00  0.00     0.210 C 
ENDBRANCH   8  25
TORSDOF 9
ENDMDL
MODEL 9
REMARK VINA RESULT:      -6.1      3.352      7.503
REMARK  9 active torsions:
REMARK  status: ('A' for Active; 'I' for Inactive)
REMARK    1  A    between atoms: C2_2  and  O1_3 
REMARK    2  A    between atoms: C2_2  and  C3_4 
REMARK    3  A    between atoms: C3_4  and  C4_5 
REMARK    4  A    between atoms: C3_4  and  O5_24 
REMARK    5  A    between atoms: C4_5  and  C5_6 
REMARK    6  A    between atoms: C6_7  and  O2_8 
REMARK    7  A    between atoms: O2_8  and  C7_9 
REMARK    8  A    between atoms: C12_16  and  O3_17 
REMARK    9  A    between atoms: C14_19  and  O4_20 
ROOT
HETATM    1  C7  UNL     1      23.792   1.867  51.757  1.00  0.00     0.203 C 
HETATM    2  C8  UNL     1      23.913   2.370  50.302  1.00  0.00     0.128 C 
HETATM    3  N1  UNL     1      24.997   2.970  50.656  1.00  0.00    -0.255 NA
HETATM    4  C9  UNL     1      25.948   3.731  50.056  1.00  0.00     0.232 C 
HETATM    5  N2  UNL     1      26.747   3.066  50.875  1.00  0.00    -0.241 NA
HETATM    6  C10 UNL     1      26.436   2.064  51.830  1.00  0.00     0.070 A 
HETATM    7  C11 UNL     1      27.532   1.487  52.488  1.00  0.00     0.072 A 
HETATM    8  C12 UNL     1      27.703   0.561  53.354  1.00  0.00     0.103 A 
HETATM    9  C14 UNL     1      26.428   0.017  53.698  1.00  0.00     0.102 A 
HETATM   10  C16 UNL     1      25.178   0.442  53.158  1.00  0.00     0.052 A 
HETATM   11  C17 UNL     1      25.172   1.482  52.211  1.00  0.00     0.008 A 
ENDROOT
BRANCH   1  12
HETATM   12  O2  UNL     1      22.925   0.796  51.759  1.00  0.00    -0.348 OA
BRANCH  12  13
HETATM   13  C6  UNL     1      21.626   0.763  51.575  1.00  0.00     0.136 C 
HETATM   14  C5  UNL     1      20.754   0.694  50.522  1.00  0.00     0.027 C 
BRANCH  14  15
HETATM   15  C4  UNL     1      19.371   0.707  51.005  1.00  0.00     0.037 C 
BRANCH  15  16
HETATM   16  C3  UNL     1      18.131   0.840  51.372  1.00  0.00     0.083 C 
BRANCH  16  17
HETATM   17  C2  UNL     1      17.244  -0.108  52.048  1.00  0.00     0.143 C 
HETATM   18  C1  UNL     1      16.650  -1.018  52.709  1.00  0.00     0.052 C 
BRANCH  17  19
HETATM   19  O1  UNL     1      18.349  -0.760  52.642  1.00  0.00    -0.379 OA
HETATM   20  H3  UNL     1      18.528  -1.775  52.591  1.00  0.00     0.211 HD
ENDBRANCH  17  19
ENDBRANCH  16  17
BRANCH  16  21
HETATM   21  O5  UNL     1      18.386   2.036  50.807  1.00  0.00    -0.357 OA
HETATM   22  C18 UNL     1      18.231   3.289  51.432  1.00  0.00     0.209 C 
ENDBRANCH  16  21
ENDBRANCH  15  16
ENDBRANCH  14  15
ENDBRANCH  12  13
ENDBRANCH   1  12
BRANCH   9  23
HETATM   23  O4  UNL     1      26.052  -0.994  54.559  1.00  0.00    -0.353 OA
HETATM   24  C15 UNL     1      24.985  -1.120  55.395  1.00  0.00     0.210 C 
ENDBRANCH   9  23
BRANCH   8  25
HETATM   25  O3  UNL     1      28.435  -0.239  54.160  1.00  0.00    -0.353 OA
HETATM   26  C13 UNL     1      29.652  -0.854  53.936  1.00  0.00     0.210 C 
ENDBRANCH   8  25
TORSDOF 9
ENDMDL
