MODEL 1
REMARK VINA RESULT:      -8.9      0.000      0.000
REMARK  7 active torsions:
REMARK  status: ('A' for Active; 'I' for Inactive)
REMARK    1  A    between atoms: C2_2  and  C3_3 
REMARK    2  A    between atoms: C3_3  and  C4_4 
REMARK    3  A    between atoms: C3_3  and  C21_28 
REMARK    4  A    between atoms: C5_5  and  C6_6 
REMARK       I    between atoms: C6_6  and  N1_8 
REMARK    5  A    between atoms: N1_8  and  C7_9 
REMARK    6  A    between atoms: C10_12  and  N2_13 
REMARK    7  A    between atoms: N2_13  and  C11_14 
ROOT
HETATM    1  C7  UNL     1      24.621   3.484  50.292  1.00  0.00     0.036 A 
HETATM    2  C8  UNL     1      24.877   2.782  51.447  1.00  0.00     0.047 A 
HETATM    3  C9  UNL     1      24.082   1.771  51.938  1.00  0.00     0.041 A 
HETATM    4  C10 UNL     1      24.351   1.077  53.097  1.00  0.00     0.142 A 
HETATM    5  N3  UNL     1      23.443   0.143  53.375  1.00  0.00    -0.224 NA
HETATM    6  C17 UNL     1      22.364  -0.140  52.649  1.00  0.00     0.236 A 
HETATM    7  N4  UNL     1      22.115   0.549  51.521  1.00  0.00    -0.241 NA
HETATM    8  C18 UNL     1      22.978   1.512  51.159  1.00  0.00     0.072 A 
HETATM    9  C19 UNL     1      22.675   2.183  49.997  1.00  0.00     0.035 A 
HETATM   10  C20 UNL     1      23.505   3.187  49.548  1.00  0.00     0.032 A 
ENDROOT
BRANCH   1  11
HETATM   11  N1  UNL     1      25.436   4.528  49.776  1.00  0.00    -0.316 N 
HETATM   12  C6  UNL     1      26.693   4.056  49.280  1.00  0.00     0.301 C 
HETATM   13  O1  UNL     1      26.865   2.798  49.383  1.00  0.00    -0.258 OA
HETATM   14  H7  UNL     1      25.261   5.551  49.709  1.00  0.00     0.170 HD
BRANCH  12  15
HETATM   15  C5  UNL     1      27.691   4.898  48.710  1.00  0.00    -0.005 C 
HETATM   16  C4  UNL     1      28.526   5.627  48.236  1.00  0.00    -0.092 C 
BRANCH  16  17
HETATM   17  C3  UNL     1      29.523   6.524  47.652  1.00  0.00     0.065 C 
BRANCH  17  18
HETATM   18  C2  UNL     1      29.027   7.932  47.749  1.00  0.00     0.012 C 
HETATM   19  C1  UNL     1      27.955   8.113  46.697  1.00  0.00     0.006 C 
ENDBRANCH  17  18
BRANCH  17  20
HETATM   20  C21 UNL     1      30.870   6.305  48.310  1.00  0.00     0.012 C 
HETATM   21  C22 UNL     1      31.525   5.036  47.768  1.00  0.00     0.006 C 
ENDBRANCH  17  20
ENDBRANCH  16  17
ENDBRANCH  12  15
ENDBRANCH   1  11
BRANCH   4  22
HETATM   22  N2  UNL     1      25.485   1.386  53.853  1.00  0.00    -0.340 N 
HETATM   23  H9  UNL     1      25.465   2.106  54.586  1.00  0.00     0.167 HD
BRANCH  22  24
HETATM   24  C11 UNL     1      26.780   0.817  53.769  1.00  0.00     0.035 A 
HETATM   25  C12 UNL     1      27.919   1.540  54.014  1.00  0.00     0.032 A 
HETATM   26  C13 UNL     1      29.198   1.017  53.937  1.00  0.00     0.046 A 
HETATM   27  C14 UNL     1      29.385  -0.304  53.596  1.00  0.00     0.138 A 
HETATM   28  F1  UNL     1      30.592  -0.884  53.501  1.00  0.00    -0.204 F 
HETATM   29  C15 UNL     1      28.270  -1.066  53.342  1.00  0.00     0.074 A 
HETATM   30 CL1  UNL     1      28.446  -2.744  52.907  1.00  0.00    -0.081 Cl
HETATM   31  C16 UNL     1      27.035  -0.495  53.435  1.00  0.00     0.056 A 
ENDBRANCH  22  24
ENDBRANCH   4  22
TORSDOF 7
ENDMDL
MODEL 2
REMARK VINA RESULT:      -8.7      4.009      8.953
REMARK  7 active torsions:
REMARK  status: ('A' for Active; 'I' for Inactive)
REMARK    1  A    between atoms: C2_2  and  C3_3 
REMARK    2  A    between atoms: C3_3  and  C4_4 
REMARK    3  A    between atoms: C3_3  and  C21_28 
REMARK    4  A    between atoms: C5_5  and  C6_6 
REMARK       I    between atoms: C6_6  and  N1_8 
REMARK    5  A    between atoms: N1_8  and  C7_9 
REMARK    6  A    between atoms: C10_12  and  N2_13 
REMARK    7  A    between atoms: N2_13  and  C11_14 
ROOT
HETATM    1  C7  UNL     1      24.460  -0.154  53.395  1.00  0.00     0.036 A 
HETATM    2  C8  UNL     1      25.189   0.661  52.559  1.00  0.00     0.047 A 
HETATM    3  C9  UNL     1      26.406   1.219  52.880  1.00  0.00     0.041 A 
HETATM    4  C10 UNL     1      27.124   2.033  52.033  1.00  0.00     0.142 A 
HETATM    5  N3  UNL     1      28.273   2.456  52.557  1.00  0.00    -0.224 NA
HETATM    6  C17 UNL     1      28.738   2.159  53.768  1.00  0.00     0.236 A 
HETATM    7  N4  UNL     1      28.023   1.363  54.583  1.00  0.00    -0.241 NA
HETATM    8  C18 UNL     1      26.847   0.887  54.140  1.00  0.00     0.072 A 
HETATM    9  C19 UNL     1      26.160   0.077  55.014  1.00  0.00     0.035 A 
HETATM   10  C20 UNL     1      24.945  -0.457  54.644  1.00  0.00     0.032 A 
ENDROOT
BRANCH   1  11
HETATM   11  N1  UNL     1      23.204  -0.736  53.072  1.00  0.00    -0.316 N 
HETATM   12  C6  UNL     1      22.147   0.227  53.008  1.00  0.00     0.301 C 
HETATM   13  O1  UNL     1      22.506   1.425  53.247  1.00  0.00    -0.258 OA
HETATM   14  H7  UNL     1      22.948  -1.726  52.882  1.00  0.00     0.170 HD
BRANCH  12  15
HETATM   15  C5  UNL     1      20.793  -0.096  52.702  1.00  0.00    -0.005 C 
HETATM   16  C4  UNL     1      19.651  -0.388  52.449  1.00  0.00    -0.092 C 
BRANCH  16  17
HETATM   17  C3  UNL     1      18.273  -0.760  52.132  1.00  0.00     0.065 C 
BRANCH  17  18
HETATM   18  C2  UNL     1      17.569  -1.142  53.396  1.00  0.00     0.012 C 
HETATM   19  C1  UNL     1      17.782  -2.626  53.606  1.00  0.00     0.006 C 
ENDBRANCH  17  18
BRANCH  17  20
HETATM   20  C21 UNL     1      17.593   0.359  51.370  1.00  0.00     0.012 C 
HETATM   21  C22 UNL     1      17.021  -0.165  50.054  1.00  0.00     0.006 C 
ENDBRANCH  17  20
ENDBRANCH  16  17
ENDBRANCH  12  15
ENDBRANCH   1  11
BRANCH   4  22
HETATM   22  N2  UNL     1      26.624   2.343  50.765  1.00  0.00    -0.340 N 
HETATM   23  H9  UNL     1      26.452   1.615  50.061  1.00  0.00     0.167 HD
BRANCH  22  24
HETATM   24  C11 UNL     1      26.282   3.614  50.241  1.00  0.00     0.035 A 
HETATM   25  C12 UNL     1      27.002   4.217  49.242  1.00  0.00     0.032 A 
HETATM   26  C13 UNL     1      26.700   5.458  48.711  1.00  0.00     0.046 A 
HETATM   27  C14 UNL     1      25.617   6.166  49.184  1.00  0.00     0.138 A 
HETATM   28  F1  UNL     1      25.259   7.374  48.720  1.00  0.00    -0.204 F 
HETATM   29  C15 UNL     1      24.866   5.599  50.186  1.00  0.00     0.074 A 
HETATM   30 CL1  UNL     1      23.486   6.450  50.823  1.00  0.00    -0.081 Cl
HETATM   31  C16 UNL     1      25.214   4.372  50.669  1.00  0.00     0.056 A 
ENDBRANCH  22  24
ENDBRANCH   4  22
TORSDOF 7
ENDMDL
MODEL 3
REMARK VINA RESULT:      -8.6      1.289      2.008
REMARK  7 active torsions:
REMARK  status: ('A' for Active; 'I' for Inactive)
REMARK    1  A    between atoms: C2_2  and  C3_3 
REMARK    2  A    between atoms: C3_3  and  C4_4 
REMARK    3  A    between atoms: C3_3  and  C21_28 
REMARK    4  A    between atoms: C5_5  and  C6_6 
REMARK       I    between atoms: C6_6  and  N1_8 
REMARK    5  A    between atoms: N1_8  and  C7_9 
REMARK    6  A    between atoms: C10_12  and  N2_13 
REMARK    7  A    between atoms: N2_13  and  C11_14 
ROOT
HETATM    1  C7  UNL     1      24.210   3.462  49.846  1.00  0.00     0.036 A 
HETATM    2  C8  UNL     1      24.277   2.716  51.001  1.00  0.00     0.047 A 
HETATM    3  C9  UNL     1      23.388   1.720  51.339  1.00  0.00     0.041 A 
HETATM    4  C10 UNL     1      23.468   0.982  52.499  1.00  0.00     0.142 A 
HETATM    5  N3  UNL     1      22.501   0.074  52.612  1.00  0.00    -0.224 NA
HETATM    6  C17 UNL     1      21.527  -0.149  51.732  1.00  0.00     0.236 A 
HETATM    7  N4  UNL     1      21.464   0.582  50.605  1.00  0.00    -0.241 NA
HETATM    8  C18 UNL     1      22.399   1.525  50.402  1.00  0.00     0.072 A 
HETATM    9  C19 UNL     1      22.287   2.240  49.233  1.00  0.00     0.035 A 
HETATM   10  C20 UNL     1      23.203   3.227  48.942  1.00  0.00     0.032 A 
ENDROOT
BRANCH   1  11
HETATM   11  N1  UNL     1      25.123   4.490  49.488  1.00  0.00    -0.316 N 
HETATM   12  C6  UNL     1      26.425   3.990  49.171  1.00  0.00     0.301 C 
HETATM   13  O1  UNL     1      26.544   2.725  49.261  1.00  0.00    -0.258 OA
HETATM   14  H7  UNL     1      24.989   5.520  49.425  1.00  0.00     0.170 HD
BRANCH  12  15
HETATM   15  C5  UNL     1      27.521   4.813  48.780  1.00  0.00    -0.005 C 
HETATM   16  C4  UNL     1      28.446   5.520  48.467  1.00  0.00    -0.092 C 
BRANCH  16  17
HETATM   17  C3  UNL     1      29.555   6.396  48.090  1.00  0.00     0.065 C 
BRANCH  17  18
HETATM   18  C2  UNL     1      30.764   5.558  47.815  1.00  0.00     0.012 C 
HETATM   19  C1  UNL     1      31.699   5.703  48.997  1.00  0.00     0.006 C 
ENDBRANCH  17  18
BRANCH  17  20
HETATM   20  C21 UNL     1      29.150   7.281  46.930  1.00  0.00     0.012 C 
HETATM   21  C22 UNL     1      30.364   8.033  46.387  1.00  0.00     0.006 C 
ENDBRANCH  17  20
ENDBRANCH  16  17
ENDBRANCH  12  15
ENDBRANCH   1  11
BRANCH   4  22
HETATM   22  N2  UNL     1      24.491   1.228  53.418  1.00  0.00    -0.340 N 
HETATM   23  H9  UNL     1      24.350   1.839  54.232  1.00  0.00     0.167 HD
BRANCH  22  24
HETATM   24  C11 UNL     1      25.815   0.725  53.415  1.00  0.00     0.035 A 
HETATM   25  C12 UNL     1      26.122  -0.539  52.980  1.00  0.00     0.032 A 
HETATM   26  C13 UNL     1      27.402  -1.064  52.966  1.00  0.00     0.046 A 
HETATM   27  C14 UNL     1      28.464  -0.304  53.407  1.00  0.00     0.138 A 
HETATM   28  F1  UNL     1      29.733  -0.742  53.425  1.00  0.00    -0.204 F 
HETATM   29  C15 UNL     1      28.203   0.969  53.852  1.00  0.00     0.074 A 
HETATM   30 CL1  UNL     1      29.507   1.975  54.420  1.00  0.00    -0.081 Cl
HETATM   31  C16 UNL     1      26.919   1.431  53.840  1.00  0.00     0.056 A 
ENDBRANCH  22  24
ENDBRANCH   4  22
TORSDOF 7
ENDMDL
MODEL 4
REMARK VINA RESULT:      -8.5      0.787      1.528
REMARK  7 active torsions:
REMARK  status: ('A' for Active; 'I' for Inactive)
REMARK    1  A    between atoms: C2_2  and  C3_3 
REMARK    2  A    between atoms: C3_3  and  C4_4 
REMARK    3  A    between atoms: C3_3  and  C21_28 
REMARK    4  A    between atoms: C5_5  and  C6_6 
REMARK       I    between atoms: C6_6  and  N1_8 
REMARK    5  A    between atoms: N1_8  and  C7_9 
REMARK    6  A    between atoms: C10_12  and  N2_13 
REMARK    7  A    between atoms: N2_13  and  C11_14 
ROOT
HETATM    1  C7  UNL     1      25.122   4.030  50.133  1.00  0.00     0.036 A 
HETATM    2  C8  UNL     1      25.279   3.264  51.265  1.00  0.00     0.047 A 
HETATM    3  C9  UNL     1      24.415   2.266  51.658  1.00  0.00     0.041 A 
HETATM    4  C10 UNL     1      24.585   1.506  52.794  1.00  0.00     0.142 A 
HETATM    5  N3  UNL     1      23.626   0.600  52.970  1.00  0.00    -0.224 NA
HETATM    6  C17 UNL     1      22.582   0.398  52.169  1.00  0.00     0.236 A 
HETATM    7  N4  UNL     1      22.431   1.150  51.064  1.00  0.00    -0.241 NA
HETATM    8  C18 UNL     1      23.352   2.092  50.802  1.00  0.00     0.072 A 
HETATM    9  C19 UNL     1      23.148   2.829  49.659  1.00  0.00     0.035 A 
HETATM   10  C20 UNL     1      24.043   3.817  49.311  1.00  0.00     0.032 A 
ENDROOT
BRANCH   1  11
HETATM   11  N1  UNL     1      26.009   5.061  49.720  1.00  0.00    -0.316 N 
HETATM   12  C6  UNL     1      27.164   4.560  49.040  1.00  0.00     0.301 C 
HETATM   13  O1  UNL     1      27.201   3.292  48.922  1.00  0.00    -0.258 OA
HETATM   14  H7  UNL     1      25.944   6.093  49.836  1.00  0.00     0.170 HD
BRANCH  12  15
HETATM   15  C5  UNL     1      28.204   5.385  48.524  1.00  0.00    -0.005 C 
HETATM   16  C4  UNL     1      29.094   6.084  48.106  1.00  0.00    -0.092 C 
BRANCH  16  17
HETATM   17  C3  UNL     1      30.171   6.943  47.616  1.00  0.00     0.065 C 
BRANCH  17  18
HETATM   18  C2  UNL     1      31.412   6.123  47.451  1.00  0.00     0.012 C 
HETATM   19  C1  UNL     1      32.040   6.506  46.128  1.00  0.00     0.006 C 
ENDBRANCH  17  18
BRANCH  17  20
HETATM   20  C21 UNL     1      29.736   7.652  46.349  1.00  0.00     0.012 C 
HETATM   21  C22 UNL     1      28.563   8.586  46.639  1.00  0.00     0.006 C 
ENDBRANCH  17  20
ENDBRANCH  16  17
ENDBRANCH  12  15
ENDBRANCH   1  11
BRANCH   4  22
HETATM   22  N2  UNL     1      25.682   1.730  53.631  1.00  0.00    -0.340 N 
HETATM   23  H9  UNL     1      25.670   2.463  54.351  1.00  0.00     0.167 HD
BRANCH  22  24
HETATM   24  C11 UNL     1      26.924   1.050  53.652  1.00  0.00     0.035 A 
HETATM   25  C12 UNL     1      28.097   1.670  54.000  1.00  0.00     0.032 A 
HETATM   26  C13 UNL     1      29.328   1.038  54.027  1.00  0.00     0.046 A 
HETATM   27  C14 UNL     1      29.427  -0.295  53.694  1.00  0.00     0.138 A 
HETATM   28  F1  UNL     1      30.583  -0.978  53.697  1.00  0.00    -0.204 F 
HETATM   29  C15 UNL     1      28.276  -0.956  53.339  1.00  0.00     0.074 A 
HETATM   30 CL1  UNL     1      28.341  -2.643  52.908  1.00  0.00    -0.081 Cl
HETATM   31  C16 UNL     1      27.091  -0.279  53.331  1.00  0.00     0.056 A 
ENDBRANCH  22  24
ENDBRANCH   4  22
TORSDOF 7
ENDMDL
MODEL 5
REMARK VINA RESULT:      -8.2      1.972      2.652
REMARK  7 active torsions:
REMARK  status: ('A' for Active; 'I' for Inactive)
REMARK    1  A    between atoms: C2_2  and  C3_3 
REMARK    2  A    between atoms: C3_3  and  C4_4 
REMARK    3  A    between atoms: C3_3  and  C21_28 
REMARK    4  A    between atoms: C5_5  and  C6_6 
REMARK       I    between atoms: C6_6  and  N1_8 
REMARK    5  A    between atoms: N1_8  and  C7_9 
REMARK    6  A    between atoms: C10_12  and  N2_13 
REMARK    7  A    between atoms: N2_13  and  C11_14 
ROOT
HETATM    1  C7  UNL     1      22.649   2.376  51.162  1.00  0.00     0.036 A 
HETATM    2  C8  UNL     1      23.314   1.342  51.779  1.00  0.00     0.047 A 
HETATM    3  C9  UNL     1      22.799   0.586  52.808  1.00  0.00     0.041 A 
HETATM    4  C10 UNL     1      23.477  -0.447  53.417  1.00  0.00     0.142 A 
HETATM    5  N3  UNL     1      22.780  -1.035  54.387  1.00  0.00    -0.224 NA
HETATM    6  C17 UNL     1      21.551  -0.708  54.777  1.00  0.00     0.236 A 
HETATM    7  N4  UNL     1      20.903   0.304  54.173  1.00  0.00    -0.241 NA
HETATM    8  C18 UNL     1      21.527   0.958  53.180  1.00  0.00     0.072 A 
HETATM    9  C19 UNL     1      20.818   1.982  52.597  1.00  0.00     0.035 A 
HETATM   10  C20 UNL     1      21.380   2.709  51.570  1.00  0.00     0.032 A 
ENDROOT
BRANCH   1  11
HETATM   11  N1  UNL     1      23.172   3.160  50.099  1.00  0.00    -0.316 N 
HETATM   12  C6  UNL     1      24.126   4.130  50.542  1.00  0.00     0.301 C 
HETATM   13  O1  UNL     1      24.341   4.126  51.798  1.00  0.00    -0.258 OA
HETATM   14  H7  UNL     1      22.970   3.135  49.078  1.00  0.00     0.170 HD
BRANCH  12  15
HETATM   15  C5  UNL     1      24.798   5.040  49.676  1.00  0.00    -0.005 C 
HETATM   16  C4  UNL     1      25.369   5.796  48.929  1.00  0.00    -0.092 C 
BRANCH  16  17
HETATM   17  C3  UNL     1      26.076   6.697  48.020  1.00  0.00     0.065 C 
BRANCH  17  18
HETATM   18  C2  UNL     1      25.307   7.976  47.907  1.00  0.00     0.012 C 
HETATM   19  C1  UNL     1      24.338   7.825  46.755  1.00  0.00     0.006 C 
ENDBRANCH  17  18
BRANCH  17  20
HETATM   20  C21 UNL     1      27.507   6.885  48.482  1.00  0.00     0.012 C 
HETATM   21  C22 UNL     1      28.282   5.575  48.354  1.00  0.00     0.006 C 
ENDBRANCH  17  20
ENDBRANCH  16  17
ENDBRANCH  12  15
ENDBRANCH   1  11
BRANCH   4  22
HETATM   22  N2  UNL     1      24.770  -0.778  53.002  1.00  0.00    -0.340 N 
HETATM   23  H9  UNL     1      24.945  -1.554  52.351  1.00  0.00     0.167 HD
BRANCH  22  24
HETATM   24  C11 UNL     1      25.993  -0.164  53.363  1.00  0.00     0.035 A 
HETATM   25  C12 UNL     1      26.064   1.133  53.805  1.00  0.00     0.032 A 
HETATM   26  C13 UNL     1      27.242   1.765  54.162  1.00  0.00     0.046 A 
HETATM   27  C14 UNL     1      28.439   1.089  54.086  1.00  0.00     0.138 A 
HETATM   28  F1  UNL     1      29.622   1.633  54.414  1.00  0.00    -0.204 F 
HETATM   29  C15 UNL     1      28.416  -0.214  53.648  1.00  0.00     0.074 A 
HETATM   30 CL1  UNL     1      29.900  -1.118  53.532  1.00  0.00    -0.081 Cl
HETATM   31  C16 UNL     1      27.223  -0.784  53.311  1.00  0.00     0.056 A 
ENDBRANCH  22  24
ENDBRANCH   4  22
TORSDOF 7
ENDMDL
MODEL 6
REMARK VINA RESULT:      -8.2      1.955      2.703
REMARK  7 active torsions:
REMARK  status: ('A' for Active; 'I' for Inactive)
REMARK    1  A    between atoms: C2_2  and  C3_3 
REMARK    2  A    between atoms: C3_3  and  C4_4 
REMARK    3  A    between atoms: C3_3  and  C21_28 
REMARK    4  A    between atoms: C5_5  and  C6_6 
REMARK       I    between atoms: C6_6  and  N1_8 
REMARK    5  A    between atoms: N1_8  and  C7_9 
REMARK    6  A    between atoms: C10_12  and  N2_13 
REMARK    7  A    between atoms: N2_13  and  C11_14 
ROOT
HETATM    1  C7  UNL     1      25.412   5.423  49.452  1.00  0.00     0.036 A 
HETATM    2  C8  UNL     1      25.194   4.650  50.570  1.00  0.00     0.047 A 
HETATM    3  C9  UNL     1      23.989   4.067  50.892  1.00  0.00     0.041 A 
HETATM    4  C10 UNL     1      23.785   3.296  52.015  1.00  0.00     0.142 A 
HETATM    5  N3  UNL     1      22.540   2.836  52.119  1.00  0.00    -0.224 NA
HETATM    6  C17 UNL     1      21.547   3.061  51.262  1.00  0.00     0.236 A 
HETATM    7  N4  UNL     1      21.763   3.817  50.171  1.00  0.00    -0.241 NA
HETATM    8  C18 UNL     1      22.992   4.326  49.980  1.00  0.00     0.072 A 
HETATM    9  C19 UNL     1      23.156   5.090  48.848  1.00  0.00     0.035 A 
HETATM   10  C20 UNL     1      24.383   5.651  48.571  1.00  0.00     0.032 A 
ENDROOT
BRANCH   1  11
HETATM   11  N1  UNL     1      26.652   6.028  49.111  1.00  0.00    -0.316 N 
HETATM   12  C6  UNL     1      27.663   5.071  48.778  1.00  0.00     0.301 C 
HETATM   13  O1  UNL     1      27.285   3.856  48.842  1.00  0.00    -0.258 OA
HETATM   14  H7  UNL     1      26.925   7.031  49.070  1.00  0.00     0.170 HD
BRANCH  12  15
HETATM   15  C5  UNL     1      28.992   5.416  48.399  1.00  0.00    -0.005 C 
HETATM   16  C4  UNL     1      30.115   5.727  48.088  1.00  0.00    -0.092 C 
BRANCH  16  17
HETATM   17  C3  UNL     1      31.469   6.122  47.703  1.00  0.00     0.065 C 
BRANCH  17  18
HETATM   18  C2  UNL     1      32.263   6.406  48.939  1.00  0.00     0.012 C 
HETATM   19  C1  UNL     1      31.751   7.706  49.522  1.00  0.00     0.006 C 
ENDBRANCH  17  18
BRANCH  17  20
HETATM   20  C21 UNL     1      32.087   5.064  46.811  1.00  0.00     0.012 C 
HETATM   21  C22 UNL     1      32.553   3.873  47.645  1.00  0.00     0.006 C 
ENDBRANCH  17  20
ENDBRANCH  16  17
ENDBRANCH  12  15
ENDBRANCH   1  11
BRANCH   4  22
HETATM   22  N2  UNL     1      24.833   3.070  52.911  1.00  0.00    -0.340 N 
HETATM   23  H9  UNL     1      25.001   3.691  53.713  1.00  0.00     0.167 HD
BRANCH  22  24
HETATM   24  C11 UNL     1      25.793   2.029  52.896  1.00  0.00     0.035 A 
HETATM   25  C12 UNL     1      25.615   0.873  52.180  1.00  0.00     0.032 A 
HETATM   26  C13 UNL     1      26.529  -0.165  52.147  1.00  0.00     0.046 A 
HETATM   27  C14 UNL     1      27.704  -0.074  52.861  1.00  0.00     0.138 A 
HETATM   28  F1  UNL     1      28.639  -1.038  52.878  1.00  0.00    -0.204 F 
HETATM   29  C15 UNL     1      27.925   1.068  53.592  1.00  0.00     0.074 A 
HETATM   30 CL1  UNL     1      29.393   1.238  54.514  1.00  0.00    -0.081 Cl
HETATM   31  C16 UNL     1      26.986   2.058  53.586  1.00  0.00     0.056 A 
ENDBRANCH  22  24
ENDBRANCH   4  22
TORSDOF 7
ENDMDL
MODEL 7
REMARK VINA RESULT:      -8.0      3.667      8.160
REMARK  7 active torsions:
REMARK  status: ('A' for Active; 'I' for Inactive)
REMARK    1  A    between atoms: C2_2  and  C3_3 
REMARK    2  A    between atoms: C3_3  and  C4_4 
REMARK    3  A    between atoms: C3_3  and  C21_28 
REMARK    4  A    between atoms: C5_5  and  C6_6 
REMARK       I    between atoms: C6_6  and  N1_8 
REMARK    5  A    between atoms: N1_8  and  C7_9 
REMARK    6  A    between atoms: C10_12  and  N2_13 
REMARK    7  A    between atoms: N2_13  and  C11_14 
ROOT
HETATM    1  C7  UNL     1      25.466   5.277  49.755  1.00  0.00     0.036 A 
HETATM    2  C8  UNL     1      26.501   6.140  49.473  1.00  0.00     0.047 A 
HETATM    3  C9  UNL     1      26.456   7.125  48.511  1.00  0.00     0.041 A 
HETATM    4  C10 UNL     1      27.499   7.981  48.240  1.00  0.00     0.142 A 
HETATM    5  N3  UNL     1      27.228   8.852  47.271  1.00  0.00    -0.224 NA
HETATM    6  C17 UNL     1      26.085   8.939  46.593  1.00  0.00     0.236 A 
HETATM    7  N4  UNL     1      25.076   8.093  46.870  1.00  0.00    -0.241 NA
HETATM    8  C18 UNL     1      25.258   7.178  47.836  1.00  0.00     0.072 A 
HETATM    9  C19 UNL     1      24.194   6.342  48.078  1.00  0.00     0.035 A 
HETATM   10  C20 UNL     1      24.290   5.372  49.052  1.00  0.00     0.032 A 
ENDROOT
BRANCH   1  11
HETATM   11  N1  UNL     1      25.503   4.259  50.746  1.00  0.00    -0.316 N 
HETATM   12  C6  UNL     1      26.383   3.184  50.404  1.00  0.00     0.301 C 
HETATM   13  O1  UNL     1      26.976   3.319  49.284  1.00  0.00    -0.258 OA
HETATM   14  H7  UNL     1      25.001   4.183  51.654  1.00  0.00     0.170 HD
BRANCH  12  15
HETATM   15  C5  UNL     1      26.601   2.041  51.226  1.00  0.00    -0.005 C 
HETATM   16  C4  UNL     1      26.806   1.077  51.921  1.00  0.00    -0.092 C 
BRANCH  16  17
HETATM   17  C3  UNL     1      27.068  -0.100  52.748  1.00  0.00     0.065 C 
BRANCH  17  18
HETATM   18  C2  UNL     1      27.753   0.333  54.006  1.00  0.00     0.012 C 
HETATM   19  C1  UNL     1      29.228   0.476  53.697  1.00  0.00     0.006 C 
ENDBRANCH  17  18
BRANCH  17  20
HETATM   20  C21 UNL     1      25.784  -0.867  52.986  1.00  0.00     0.012 C 
HETATM   21  C22 UNL     1      24.746   0.030  53.657  1.00  0.00     0.006 C 
ENDBRANCH  17  20
ENDBRANCH  16  17
ENDBRANCH  12  15
ENDBRANCH   1  11
BRANCH   4  22
HETATM   22  N2  UNL     1      28.696   7.878  48.955  1.00  0.00    -0.340 N 
HETATM   23  H9  UNL     1      28.811   8.308  49.881  1.00  0.00     0.167 HD
BRANCH  22  24
HETATM   24  C11 UNL     1      29.889   7.214  48.579  1.00  0.00     0.035 A 
HETATM   25  C12 UNL     1      29.891   5.960  48.023  1.00  0.00     0.032 A 
HETATM   26  C13 UNL     1      31.037   5.281  47.649  1.00  0.00     0.046 A 
HETATM   27  C14 UNL     1      32.273   5.863  47.825  1.00  0.00     0.138 A 
HETATM   28  F1  UNL     1      33.429   5.270  47.487  1.00  0.00    -0.204 F 
HETATM   29  C15 UNL     1      32.319   7.121  48.378  1.00  0.00     0.074 A 
HETATM   30 CL1  UNL     1      33.855   7.905  48.625  1.00  0.00    -0.081 Cl
HETATM   31  C16 UNL     1      31.155   7.740  48.728  1.00  0.00     0.056 A 
ENDBRANCH  22  24
ENDBRANCH   4  22
TORSDOF 7
ENDMDL
MODEL 8
REMARK VINA RESULT:      -7.9      3.966      5.940
REMARK  7 active torsions:
REMARK  status: ('A' for Active; 'I' for Inactive)
REMARK    1  A    between atoms: C2_2  and  C3_3 
REMARK    2  A    between atoms: C3_3  and  C4_4 
REMARK    3  A    between atoms: C3_3  and  C21_28 
REMARK    4  A    between atoms: C5_5  and  C6_6 
REMARK       I    between atoms: C6_6  and  N1_8 
REMARK    5  A    between atoms: N1_8  and  C7_9 
REMARK    6  A    between atoms: C10_12  and  N2_13 
REMARK    7  A    between atoms: N2_13  and  C11_14 
ROOT
HETATM    1  C7  UNL     1      25.957   0.820  52.424  1.00  0.00     0.036 A 
HETATM    2  C8  UNL     1      24.634   0.441  52.385  1.00  0.00     0.047 A 
HETATM    3  C9  UNL     1      23.993  -0.258  53.383  1.00  0.00     0.041 A 
HETATM    4  C10 UNL     1      22.668  -0.630  53.331  1.00  0.00     0.142 A 
HETATM    5  N3  UNL     1      22.265  -1.297  54.410  1.00  0.00    -0.224 NA
HETATM    6  C17 UNL     1      23.015  -1.605  55.466  1.00  0.00     0.236 A 
HETATM    7  N4  UNL     1      24.307  -1.234  55.501  1.00  0.00    -0.241 NA
HETATM    8  C18 UNL     1      24.804  -0.555  54.454  1.00  0.00     0.072 A 
HETATM    9  C19 UNL     1      26.130  -0.200  54.543  1.00  0.00     0.035 A 
HETATM   10  C20 UNL     1      26.725   0.499  53.516  1.00  0.00     0.032 A 
ENDROOT
BRANCH   1  11
HETATM   11  N1  UNL     1      26.626   1.541  51.399  1.00  0.00    -0.316 N 
HETATM   12  C6  UNL     1      26.064   2.838  51.175  1.00  0.00     0.301 C 
HETATM   13  O1  UNL     1      25.072   3.122  51.922  1.00  0.00    -0.258 OA
HETATM   14  H7  UNL     1      27.439   1.275  50.806  1.00  0.00     0.170 HD
BRANCH  12  15
HETATM   15  C5  UNL     1      26.551   3.761  50.204  1.00  0.00    -0.005 C 
HETATM   16  C4  UNL     1      26.967   4.526  49.371  1.00  0.00    -0.092 C 
BRANCH  16  17
HETATM   17  C3  UNL     1      27.489   5.442  48.358  1.00  0.00     0.065 C 
BRANCH  17  18
HETATM   18  C2  UNL     1      27.125   6.844  48.735  1.00  0.00     0.012 C 
HETATM   19  C1  UNL     1      26.225   7.390  47.647  1.00  0.00     0.006 C 
ENDBRANCH  17  18
BRANCH  17  20
HETATM   20  C21 UNL     1      28.978   5.226  48.178  1.00  0.00     0.012 C 
HETATM   21  C22 UNL     1      29.725   6.553  48.302  1.00  0.00     0.006 C 
ENDBRANCH  17  20
ENDBRANCH  16  17
ENDBRANCH  12  15
ENDBRANCH   1  11
BRANCH   4  22
HETATM   22  N2  UNL     1      21.892  -0.306  52.214  1.00  0.00    -0.340 N 
HETATM   23  H9  UNL     1      21.954  -0.842  51.340  1.00  0.00     0.167 HD
BRANCH  22  24
HETATM   24  C11 UNL     1      20.943   0.737  52.077  1.00  0.00     0.035 A 
HETATM   25  C12 UNL     1      21.257   2.053  52.302  1.00  0.00     0.032 A 
HETATM   26  C13 UNL     1      20.356   3.095  52.181  1.00  0.00     0.046 A 
HETATM   27  C14 UNL     1      19.053   2.842  51.813  1.00  0.00     0.138 A 
HETATM   28  F1  UNL     1      18.120   3.798  51.675  1.00  0.00    -0.204 F 
HETATM   29  C15 UNL     1      18.693   1.536  51.577  1.00  0.00     0.074 A 
HETATM   30 CL1  UNL     1      17.059   1.157  51.109  1.00  0.00    -0.081 Cl
HETATM   31  C16 UNL     1      19.627   0.551  51.712  1.00  0.00     0.056 A 
ENDBRANCH  22  24
ENDBRANCH   4  22
TORSDOF 7
ENDMDL
MODEL 9
REMARK VINA RESULT:      -7.8      3.695      8.420
REMARK  7 active torsions:
REMARK  status: ('A' for Active; 'I' for Inactive)
REMARK    1  A    between atoms: C2_2  and  C3_3 
REMARK    2  A    between atoms: C3_3  and  C4_4 
REMARK    3  A    between atoms: C3_3  and  C21_28 
REMARK    4  A    between atoms: C5_5  and  C6_6 
REMARK       I    between atoms: C6_6  and  N1_8 
REMARK    5  A    between atoms: N1_8  and  C7_9 
REMARK    6  A    between atoms: C10_12  and  N2_13 
REMARK    7  A    between atoms: N2_13  and  C11_14 
ROOT
HETATM    1  C7  UNL     1      25.081   4.928  49.071  1.00  0.00     0.036 A 
HETATM    2  C8  UNL     1      26.406   5.295  49.012  1.00  0.00     0.047 A 
HETATM    3  C9  UNL     1      26.869   6.456  48.435  1.00  0.00     0.041 A 
HETATM    4  C10 UNL     1      28.199   6.810  48.382  1.00  0.00     0.142 A 
HETATM    5  N3  UNL     1      28.410   7.978  47.778  1.00  0.00    -0.224 NA
HETATM    6  C17 UNL     1      27.476   8.770  47.256  1.00  0.00     0.236 A 
HETATM    7  N4  UNL     1      26.181   8.408  47.315  1.00  0.00    -0.241 NA
HETATM    8  C18 UNL     1      25.871   7.244  47.908  1.00  0.00     0.072 A 
HETATM    9  C19 UNL     1      24.533   6.925  47.941  1.00  0.00     0.035 A 
HETATM   10  C20 UNL     1      24.122   5.750  48.531  1.00  0.00     0.032 A 
ENDROOT
BRANCH   1  11
HETATM   11  N1  UNL     1      24.594   3.733  49.665  1.00  0.00    -0.316 N 
HETATM   12  C6  UNL     1      24.159   3.921  51.015  1.00  0.00     0.301 C 
HETATM   13  O1  UNL     1      24.281   5.112  51.451  1.00  0.00    -0.258 OA
HETATM   14  H7  UNL     1      24.509   2.772  49.276  1.00  0.00     0.170 HD
BRANCH  12  15
HETATM   15  C5  UNL     1      23.628   2.882  51.834  1.00  0.00    -0.005 C 
HETATM   16  C4  UNL     1      23.197   1.996  52.529  1.00  0.00    -0.092 C 
BRANCH  16  17
HETATM   17  C3  UNL     1      22.687   0.907  53.360  1.00  0.00     0.065 C 
BRANCH  17  18
HETATM   18  C2  UNL     1      21.223   0.741  53.100  1.00  0.00     0.012 C 
HETATM   19  C1  UNL     1      20.624   0.030  54.295  1.00  0.00     0.006 C 
ENDBRANCH  17  18
BRANCH  17  20
HETATM   20  C21 UNL     1      23.495  -0.353  53.124  1.00  0.00     0.012 C 
HETATM   21  C22 UNL     1      24.896  -0.203  53.714  1.00  0.00     0.006 C 
ENDBRANCH  17  20
ENDBRANCH  16  17
ENDBRANCH  12  15
ENDBRANCH   1  11
BRANCH   4  22
HETATM   22  N2  UNL     1      29.171   5.968  48.929  1.00  0.00    -0.340 N 
HETATM   23  H9  UNL     1      28.956   5.327  49.702  1.00  0.00     0.167 HD
BRANCH  22  24
HETATM   24  C11 UNL     1      30.532   5.841  48.558  1.00  0.00     0.035 A 
HETATM   25  C12 UNL     1      31.534   6.539  49.181  1.00  0.00     0.032 A 
HETATM   26  C13 UNL     1      32.872   6.442  48.842  1.00  0.00     0.046 A 
HETATM   27  C14 UNL     1      33.266   5.604  47.822  1.00  0.00     0.138 A 
HETATM   28  F1  UNL     1      34.543   5.456  47.434  1.00  0.00    -0.204 F 
HETATM   29  C15 UNL     1      32.295   4.884  47.169  1.00  0.00     0.074 A 
HETATM   30 CL1  UNL     1      32.736   3.809  45.871  1.00  0.00    -0.081 Cl
HETATM   31  C16 UNL     1      30.992   5.022  47.549  1.00  0.00     0.056 A 
ENDBRANCH  22  24
ENDBRANCH   4  22
TORSDOF 7
ENDMDL
