MODEL 1
REMARK VINA RESULT:      -7.8      0.000      0.000
REMARK  4 active torsions:
REMARK  status: ('A' for Active; 'I' for Inactive)
REMARK    1  A    between atoms: C3_3  and  C4_4 
REMARK    2  A    between atoms: C4_4  and  C5_6 
REMARK    3  A    between atoms: C7_8  and  N1_9 
REMARK    4  A    between atoms: N1_9  and  C8_10 
ROOT
HETATM    1  C5  UNL     1      25.601   0.666  53.688  1.00  0.00     0.107 C 
HETATM    2  C6  UNL     1      25.495   1.894  53.246  1.00  0.00     0.072 C 
HETATM    3  C7  UNL     1      24.660   2.838  52.412  1.00  0.00     0.211 A 
HETATM    4  N2  UNL     1      24.001   3.809  53.142  1.00  0.00    -0.226 NA
HETATM    5  C14 UNL     1      23.242   2.762  52.849  1.00  0.00     0.179 A 
HETATM    6  N3  UNL     1      22.261   1.728  52.637  1.00  0.00    -0.240 NA
HETATM    7  C15 UNL     1      22.393   0.427  52.721  1.00  0.00     0.138 C 
HETATM    8  C16 UNL     1      23.452  -0.558  53.029  1.00  0.00     0.136 C 
HETATM    9  N4  UNL     1      24.681  -0.379  53.401  1.00  0.00    -0.256 NA
ENDROOT
BRANCH   3  10
HETATM   10  N1  UNL     1      24.845   2.807  50.995  1.00  0.00    -0.352 N 
HETATM   11  H7  UNL     1      24.447   1.953  50.497  1.00  0.00     0.163 HD
BRANCH  10  12
HETATM   12  C8  UNL     1      25.479   3.751  50.174  1.00  0.00     0.031 A 
HETATM   13  C9  UNL     1      26.761   3.634  49.679  1.00  0.00     0.029 A 
HETATM   14  C10 UNL     1      27.408   4.543  48.872  1.00  0.00     0.004 A 
HETATM   15  C11 UNL     1      26.700   5.675  48.529  1.00  0.00     0.019 A 
HETATM   16  C12 UNL     1      25.425   5.868  48.977  1.00  0.00     0.013 A 
HETATM   17 BR1  UNL     1      24.443   7.424  48.510  1.00  0.00    -0.051 Br
HETATM   18  C13 UNL     1      24.847   4.912  49.782  1.00  0.00     0.048 A 
ENDBRANCH  10  12
ENDBRANCH   3  10
BRANCH   1  19
HETATM   19  C4  UNL     1      26.707   0.267  54.537  1.00  0.00     0.200 C 
HETATM   20  O1  UNL     1      26.450  -0.526  55.460  1.00  0.00    -0.286 OA
BRANCH  19  21
HETATM   21  C3  UNL     1      28.101   0.655  54.473  1.00  0.00     0.053 C 
HETATM   22  C2  UNL     1      29.056  -0.102  53.977  1.00  0.00    -0.027 C 
HETATM   23  C1  UNL     1      29.231  -1.434  53.358  1.00  0.00     0.036 C 
ENDBRANCH  19  21
ENDBRANCH   1  19
TORSDOF 4
ENDMDL
MODEL 2
REMARK VINA RESULT:      -7.6      3.643      5.378
REMARK  4 active torsions:
REMARK  status: ('A' for Active; 'I' for Inactive)
REMARK    1  A    between atoms: C3_3  and  C4_4 
REMARK    2  A    between atoms: C4_4  and  C5_6 
REMARK    3  A    between atoms: C7_8  and  N1_9 
REMARK    4  A    between atoms: N1_9  and  C8_10 
ROOT
HETATM    1  C5  UNL     1      22.069   0.603  52.581  1.00  0.00     0.107 C 
HETATM    2  C6  UNL     1      23.130   1.324  52.845  1.00  0.00     0.072 C 
HETATM    3  C7  UNL     1      24.258   2.126  52.239  1.00  0.00     0.211 A 
HETATM    4  N2  UNL     1      24.165   3.488  52.453  1.00  0.00    -0.226 NA
HETATM    5  C14 UNL     1      23.704   3.107  51.271  1.00  0.00     0.179 A 
HETATM    6  N3  UNL     1      23.159   2.901  49.952  1.00  0.00    -0.240 NA
HETATM    7  C15 UNL     1      22.346   1.967  49.525  1.00  0.00     0.138 C 
HETATM    8  C16 UNL     1      21.642   0.784  50.065  1.00  0.00     0.136 C 
HETATM    9  N4  UNL     1      21.586   0.321  51.275  1.00  0.00    -0.256 NA
ENDROOT
BRANCH   3  10
HETATM   10  N1  UNL     1      25.399   1.408  51.764  1.00  0.00    -0.352 N 
HETATM   11  H7  UNL     1      25.305   0.983  50.792  1.00  0.00     0.163 HD
BRANCH  10  12
HETATM   12  C8  UNL     1      26.626   1.189  52.409  1.00  0.00     0.031 A 
HETATM   13  C9  UNL     1      27.400   2.171  52.990  1.00  0.00     0.029 A 
HETATM   14  C10 UNL     1      28.605   1.987  53.630  1.00  0.00     0.004 A 
HETATM   15  C11 UNL     1      29.077   0.693  53.691  1.00  0.00     0.019 A 
HETATM   16  C12 UNL     1      28.372  -0.338  53.141  1.00  0.00     0.013 A 
HETATM   17 BR1  UNL     1      29.014  -2.122  53.222  1.00  0.00    -0.051 Br
HETATM   18  C13 UNL     1      27.174  -0.071  52.517  1.00  0.00     0.048 A 
ENDBRANCH  10  12
ENDBRANCH   3  10
BRANCH   1  19
HETATM   19  C4  UNL     1      21.278   0.015  53.646  1.00  0.00     0.200 C 
HETATM   20  O1  UNL     1      20.448   0.755  54.203  1.00  0.00    -0.286 OA
BRANCH  19  21
HETATM   21  C3  UNL     1      21.304  -1.334  54.173  1.00  0.00     0.053 C 
HETATM   22  C2  UNL     1      22.237  -1.793  54.980  1.00  0.00    -0.027 C 
HETATM   23  C1  UNL     1      23.475  -1.335  55.648  1.00  0.00     0.036 C 
ENDBRANCH  19  21
ENDBRANCH   1  19
TORSDOF 4
ENDMDL
MODEL 3
REMARK VINA RESULT:      -7.2      3.770      6.781
REMARK  4 active torsions:
REMARK  status: ('A' for Active; 'I' for Inactive)
REMARK    1  A    between atoms: C3_3  and  C4_4 
REMARK    2  A    between atoms: C4_4  and  C5_6 
REMARK    3  A    between atoms: C7_8  and  N1_9 
REMARK    4  A    between atoms: N1_9  and  C8_10 
ROOT
HETATM    1  C5  UNL     1      26.363   5.838  49.297  1.00  0.00     0.107 C 
HETATM    2  C6  UNL     1      25.960   4.599  49.432  1.00  0.00     0.072 C 
HETATM    3  C7  UNL     1      24.991   3.688  50.151  1.00  0.00     0.211 A 
HETATM    4  N2  UNL     1      23.998   3.166  49.345  1.00  0.00    -0.226 NA
HETATM    5  C14 UNL     1      23.615   4.234  50.029  1.00  0.00     0.179 A 
HETATM    6  N3  UNL     1      23.008   5.369  50.677  1.00  0.00    -0.240 NA
HETATM    7  C15 UNL     1      23.499   6.563  50.895  1.00  0.00     0.138 C 
HETATM    8  C16 UNL     1      24.754   7.304  50.643  1.00  0.00     0.136 C 
HETATM    9  N4  UNL     1      25.826   6.946  50.008  1.00  0.00    -0.256 NA
ENDROOT
BRANCH   3  10
HETATM   10  N1  UNL     1      25.343   3.258  51.468  1.00  0.00    -0.352 N 
HETATM   11  H7  UNL     1      25.532   4.035  52.172  1.00  0.00     0.163 HD
BRANCH  10  12
HETATM   12  C8  UNL     1      25.471   1.949  51.956  1.00  0.00     0.031 A 
HETATM   13  C9  UNL     1      26.600   1.167  51.837  1.00  0.00     0.029 A 
HETATM   14  C10 UNL     1      26.754  -0.118  52.306  1.00  0.00     0.004 A 
HETATM   15  C11 UNL     1      25.671  -0.669  52.958  1.00  0.00     0.019 A 
HETATM   16  C12 UNL     1      24.515   0.038  53.119  1.00  0.00     0.013 A 
HETATM   17 BR1  UNL     1      23.020  -0.713  54.014  1.00  0.00    -0.051 Br
HETATM   18  C13 UNL     1      24.439   1.319  52.620  1.00  0.00     0.048 A 
ENDBRANCH  10  12
ENDBRANCH   3  10
BRANCH   1  19
HETATM   19  C4  UNL     1      27.430   6.183  48.377  1.00  0.00     0.200 C 
HETATM   20  O1  UNL     1      27.247   7.177  47.652  1.00  0.00    -0.286 OA
BRANCH  19  21
HETATM   21  C3  UNL     1      28.709   5.536  48.168  1.00  0.00     0.053 C 
HETATM   22  C2  UNL     1      29.872   6.132  48.321  1.00  0.00    -0.027 C 
HETATM   23  C1  UNL     1      30.420   7.454  48.696  1.00  0.00     0.036 C 
ENDBRANCH  19  21
ENDBRANCH   1  19
TORSDOF 4
ENDMDL
MODEL 4
REMARK VINA RESULT:      -7.2      3.352      5.569
REMARK  4 active torsions:
REMARK  status: ('A' for Active; 'I' for Inactive)
REMARK    1  A    between atoms: C3_3  and  C4_4 
REMARK    2  A    between atoms: C4_4  and  C5_6 
REMARK    3  A    between atoms: C7_8  and  N1_9 
REMARK    4  A    between atoms: N1_9  and  C8_10 
ROOT
HETATM    1  C5  UNL     1      21.956   1.187  51.473  1.00  0.00     0.107 C 
HETATM    2  C6  UNL     1      22.977   1.883  51.908  1.00  0.00     0.072 C 
HETATM    3  C7  UNL     1      24.183   2.694  51.494  1.00  0.00     0.211 A 
HETATM    4  N2  UNL     1      24.072   4.048  51.748  1.00  0.00    -0.226 NA
HETATM    5  C14 UNL     1      23.773   3.719  50.499  1.00  0.00     0.179 A 
HETATM    6  N3  UNL     1      23.413   3.571  49.112  1.00  0.00    -0.240 NA
HETATM    7  C15 UNL     1      22.659   2.665  48.540  1.00  0.00     0.138 C 
HETATM    8  C16 UNL     1      21.879   1.471  48.931  1.00  0.00     0.136 C 
HETATM    9  N4  UNL     1      21.654   0.963  50.103  1.00  0.00    -0.256 NA
ENDROOT
BRANCH   3  10
HETATM   10  N1  UNL     1      25.373   1.980  51.151  1.00  0.00    -0.352 N 
HETATM   11  H7  UNL     1      25.674   2.048  50.132  1.00  0.00     0.163 HD
BRANCH  10  12
HETATM   12  C8  UNL     1      26.196   1.203  51.980  1.00  0.00     0.031 A 
HETATM   13  C9  UNL     1      26.069  -0.156  52.170  1.00  0.00     0.029 A 
HETATM   14  C10 UNL     1      26.862  -0.943  52.975  1.00  0.00     0.004 A 
HETATM   15  C11 UNL     1      27.879  -0.304  53.652  1.00  0.00     0.019 A 
HETATM   16  C12 UNL     1      28.073   1.041  53.518  1.00  0.00     0.013 A 
HETATM   17 BR1  UNL     1      29.470   1.929  54.446  1.00  0.00    -0.051 Br
HETATM   18  C13 UNL     1      27.236   1.759  52.694  1.00  0.00     0.048 A 
ENDBRANCH  10  12
ENDBRANCH   3  10
BRANCH   1  19
HETATM   19  C4  UNL     1      21.022   0.569  52.395  1.00  0.00     0.200 C 
HETATM   20  O1  UNL     1      20.137  -0.151  51.901  1.00  0.00    -0.286 OA
BRANCH  19  21
HETATM   21  C3  UNL     1      20.960   0.661  53.840  1.00  0.00     0.053 C 
HETATM   22  C2  UNL     1      21.422  -0.260  54.659  1.00  0.00    -0.027 C 
HETATM   23  C1  UNL     1      22.095  -1.576  54.610  1.00  0.00     0.036 C 
ENDBRANCH  19  21
ENDBRANCH   1  19
TORSDOF 4
ENDMDL
MODEL 5
REMARK VINA RESULT:      -7.2      3.414      6.857
REMARK  4 active torsions:
REMARK  status: ('A' for Active; 'I' for Inactive)
REMARK    1  A    between atoms: C3_3  and  C4_4 
REMARK    2  A    between atoms: C4_4  and  C5_6 
REMARK    3  A    between atoms: C7_8  and  N1_9 
REMARK    4  A    between atoms: N1_9  and  C8_10 
ROOT
HETATM    1  C5  UNL     1      23.922   3.911  51.737  1.00  0.00     0.107 C 
HETATM    2  C6  UNL     1      24.192   3.133  52.755  1.00  0.00     0.072 C 
HETATM    3  C7  UNL     1      25.016   1.957  53.226  1.00  0.00     0.211 A 
HETATM    4  N2  UNL     1      26.004   2.282  54.135  1.00  0.00    -0.226 NA
HETATM    5  C14 UNL     1      26.444   2.186  52.888  1.00  0.00     0.179 A 
HETATM    6  N3  UNL     1      27.115   2.130  51.614  1.00  0.00    -0.240 NA
HETATM    7  C15 UNL     1      26.730   2.592  50.450  1.00  0.00     0.138 C 
HETATM    8  C16 UNL     1      25.574   3.313  49.876  1.00  0.00     0.136 C 
HETATM    9  N4  UNL     1      24.517   3.795  50.451  1.00  0.00    -0.256 NA
ENDROOT
BRANCH   3  10
HETATM   10  N1  UNL     1      24.536   0.647  52.911  1.00  0.00    -0.352 N 
HETATM   11  H7  UNL     1      25.167   0.064  52.282  1.00  0.00     0.163 HD
BRANCH  10  12
HETATM   12  C8  UNL     1      23.346   0.029  53.323  1.00  0.00     0.031 A 
HETATM   13  C9  UNL     1      23.239  -0.867  54.365  1.00  0.00     0.029 A 
HETATM   14  C10 UNL     1      22.087  -1.487  54.792  1.00  0.00     0.004 A 
HETATM   15  C11 UNL     1      20.932  -1.178  54.105  1.00  0.00     0.019 A 
HETATM   16  C12 UNL     1      20.950  -0.300  53.060  1.00  0.00     0.013 A 
HETATM   17 BR1  UNL     1      19.365   0.131  52.110  1.00  0.00    -0.051 Br
HETATM   18  C13 UNL     1      22.145   0.279  52.694  1.00  0.00     0.048 A 
ENDBRANCH  10  12
ENDBRANCH   3  10
BRANCH   1  19
HETATM   19  C4  UNL     1      22.959   4.989  51.850  1.00  0.00     0.200 C 
HETATM   20  O1  UNL     1      23.380   6.143  51.656  1.00  0.00    -0.286 OA
BRANCH  19  21
HETATM   21  C3  UNL     1      21.545   4.929  52.161  1.00  0.00     0.053 C 
HETATM   22  C2  UNL     1      20.672   4.208  51.491  1.00  0.00    -0.027 C 
HETATM   23  C1  UNL     1      20.623   3.280  50.339  1.00  0.00     0.036 C 
ENDBRANCH  19  21
ENDBRANCH   1  19
TORSDOF 4
ENDMDL
MODEL 6
REMARK VINA RESULT:      -7.1      1.577      2.005
REMARK  4 active torsions:
REMARK  status: ('A' for Active; 'I' for Inactive)
REMARK    1  A    between atoms: C3_3  and  C4_4 
REMARK    2  A    between atoms: C4_4  and  C5_6 
REMARK    3  A    between atoms: C7_8  and  N1_9 
REMARK    4  A    between atoms: N1_9  and  C8_10 
ROOT
HETATM    1  C5  UNL     1      23.943   1.207  52.412  1.00  0.00     0.107 C 
HETATM    2  C6  UNL     1      24.287   2.466  52.310  1.00  0.00     0.072 C 
HETATM    3  C7  UNL     1      23.850   3.829  51.826  1.00  0.00     0.211 A 
HETATM    4  N2  UNL     1      23.578   4.731  52.838  1.00  0.00    -0.226 NA
HETATM    5  C14 UNL     1      22.497   4.134  52.358  1.00  0.00     0.179 A 
HETATM    6  N3  UNL     1      21.211   3.602  51.980  1.00  0.00    -0.240 NA
HETATM    7  C15 UNL     1      20.868   2.365  51.717  1.00  0.00     0.138 C 
HETATM    8  C16 UNL     1      21.502   1.030  51.663  1.00  0.00     0.136 C 
HETATM    9  N4  UNL     1      22.712   0.664  51.953  1.00  0.00    -0.256 NA
ENDROOT
BRANCH   3  10
HETATM   10  N1  UNL     1      24.019   4.122  50.437  1.00  0.00    -0.352 N 
HETATM   11  H7  UNL     1      23.181   3.908  49.816  1.00  0.00     0.163 HD
BRANCH  10  12
HETATM   12  C8  UNL     1      25.141   4.655  49.786  1.00  0.00     0.031 A 
HETATM   13  C9  UNL     1      26.307   3.966  49.528  1.00  0.00     0.029 A 
HETATM   14  C10 UNL     1      27.422   4.462  48.890  1.00  0.00     0.004 A 
HETATM   15  C11 UNL     1      27.359   5.774  48.472  1.00  0.00     0.019 A 
HETATM   16  C12 UNL     1      26.241   6.527  48.688  1.00  0.00     0.013 A 
HETATM   17 BR1  UNL     1      26.146   8.334  48.115  1.00  0.00    -0.051 Br
HETATM   18  C13 UNL     1      25.166   5.957  49.334  1.00  0.00     0.048 A 
ENDBRANCH  10  12
ENDBRANCH   3  10
BRANCH   1  19
HETATM   19  C4  UNL     1      24.828   0.234  53.024  1.00  0.00     0.200 C 
HETATM   20  O1  UNL     1      24.507  -0.190  54.149  1.00  0.00    -0.286 OA
BRANCH  19  21
HETATM   21  C3  UNL     1      26.059  -0.336  52.516  1.00  0.00     0.053 C 
HETATM   22  C2  UNL     1      27.227   0.269  52.561  1.00  0.00    -0.027 C 
HETATM   23  C1  UNL     1      27.819   1.541  53.029  1.00  0.00     0.036 C 
ENDBRANCH  19  21
ENDBRANCH   1  19
TORSDOF 4
ENDMDL
MODEL 7
REMARK VINA RESULT:      -7.1      3.256      6.061
REMARK  4 active torsions:
REMARK  status: ('A' for Active; 'I' for Inactive)
REMARK    1  A    between atoms: C3_3  and  C4_4 
REMARK    2  A    between atoms: C4_4  and  C5_6 
REMARK    3  A    between atoms: C7_8  and  N1_9 
REMARK    4  A    between atoms: N1_9  and  C8_10 
ROOT
HETATM    1  C5  UNL     1      24.814   4.333  50.333  1.00  0.00     0.107 C 
HETATM    2  C6  UNL     1      24.571   3.055  50.486  1.00  0.00     0.072 C 
HETATM    3  C7  UNL     1      23.799   2.033  51.287  1.00  0.00     0.211 A 
HETATM    4  N2  UNL     1      22.789   1.405  50.583  1.00  0.00    -0.226 NA
HETATM    5  C14 UNL     1      22.364   2.416  51.326  1.00  0.00     0.179 A 
HETATM    6  N3  UNL     1      21.706   3.468  52.059  1.00  0.00    -0.240 NA
HETATM    7  C15 UNL     1      22.080   4.710  52.247  1.00  0.00     0.138 C 
HETATM    8  C16 UNL     1      23.206   5.593  51.875  1.00  0.00     0.136 C 
HETATM    9  N4  UNL     1      24.235   5.366  51.120  1.00  0.00    -0.256 NA
ENDROOT
BRANCH   3  10
HETATM   10  N1  UNL     1      24.340   1.636  52.549  1.00  0.00    -0.352 N 
HETATM   11  H7  UNL     1      23.769   1.914  53.404  1.00  0.00     0.163 HD
BRANCH  10  12
HETATM   12  C8  UNL     1      25.523   0.929  52.810  1.00  0.00     0.031 A 
HETATM   13  C9  UNL     1      25.706  -0.418  52.580  1.00  0.00     0.029 A 
HETATM   14  C10 UNL     1      26.853  -1.138  52.825  1.00  0.00     0.004 A 
HETATM   15  C11 UNL     1      27.919  -0.438  53.351  1.00  0.00     0.019 A 
HETATM   16  C12 UNL     1      27.821   0.900  53.607  1.00  0.00     0.013 A 
HETATM   17 BR1  UNL     1      29.282   1.871  54.330  1.00  0.00    -0.051 Br
HETATM   18  C13 UNL     1      26.637   1.548  53.335  1.00  0.00     0.048 A 
ENDBRANCH  10  12
ENDBRANCH   3  10
BRANCH   1  19
HETATM   19  C4  UNL     1      25.726   4.806  49.309  1.00  0.00     0.200 C 
HETATM   20  O1  UNL     1      25.336   5.752  48.602  1.00  0.00    -0.286 OA
BRANCH  19  21
HETATM   21  C3  UNL     1      27.056   4.338  48.975  1.00  0.00     0.053 C 
HETATM   22  C2  UNL     1      28.015   5.111  48.513  1.00  0.00    -0.027 C 
HETATM   23  C1  UNL     1      28.248   6.528  48.157  1.00  0.00     0.036 C 
ENDBRANCH  19  21
ENDBRANCH   1  19
TORSDOF 4
ENDMDL
MODEL 8
REMARK VINA RESULT:      -7.0      3.675      5.847
REMARK  4 active torsions:
REMARK  status: ('A' for Active; 'I' for Inactive)
REMARK    1  A    between atoms: C3_3  and  C4_4 
REMARK    2  A    between atoms: C4_4  and  C5_6 
REMARK    3  A    between atoms: C7_8  and  N1_9 
REMARK    4  A    between atoms: N1_9  and  C8_10 
ROOT
HETATM    1  C5  UNL     1      22.067   1.850  51.471  1.00  0.00     0.107 C 
HETATM    2  C6  UNL     1      22.767   2.608  52.277  1.00  0.00     0.072 C 
HETATM    3  C7  UNL     1      23.912   3.590  52.362  1.00  0.00     0.211 A 
HETATM    4  N2  UNL     1      23.528   4.888  52.641  1.00  0.00    -0.226 NA
HETATM    5  C14 UNL     1      23.722   4.661  51.350  1.00  0.00     0.179 A 
HETATM    6  N3  UNL     1      23.880   4.622  49.918  1.00  0.00    -0.240 NA
HETATM    7  C15 UNL     1      23.504   3.701  49.065  1.00  0.00     0.138 C 
HETATM    8  C16 UNL     1      22.817   2.392  49.085  1.00  0.00     0.136 C 
HETATM    9  N4  UNL     1      22.284   1.739  50.070  1.00  0.00    -0.256 NA
ENDROOT
BRANCH   3  10
HETATM   10  N1  UNL     1      25.238   3.057  52.416  1.00  0.00    -0.352 N 
HETATM   11  H7  UNL     1      26.024   3.759  52.262  1.00  0.00     0.163 HD
BRANCH  10  12
HETATM   12  C8  UNL     1      25.639   1.732  52.648  1.00  0.00     0.031 A 
HETATM   13  C9  UNL     1      26.394   0.972  51.780  1.00  0.00     0.029 A 
HETATM   14  C10 UNL     1      26.803  -0.327  51.981  1.00  0.00     0.004 A 
HETATM   15  C11 UNL     1      26.417  -0.918  53.165  1.00  0.00     0.019 A 
HETATM   16  C12 UNL     1      25.668  -0.234  54.079  1.00  0.00     0.013 A 
HETATM   17 BR1  UNL     1      25.132  -1.040  55.711  1.00  0.00    -0.051 Br
HETATM   18  C13 UNL     1      25.298   1.063  53.803  1.00  0.00     0.048 A 
ENDBRANCH  10  12
ENDBRANCH   3  10
BRANCH   1  19
HETATM   19  C4  UNL     1      20.974   1.035  51.968  1.00  0.00     0.200 C 
HETATM   20  O1  UNL     1      20.438   0.259  51.158  1.00  0.00    -0.286 OA
BRANCH  19  21
HETATM   21  C3  UNL     1      20.397   0.982  53.296  1.00  0.00     0.053 C 
HETATM   22  C2  UNL     1      20.724   0.091  54.207  1.00  0.00    -0.027 C 
HETATM   23  C1  UNL     1      21.626  -1.069  54.377  1.00  0.00     0.036 C 
ENDBRANCH  19  21
ENDBRANCH   1  19
TORSDOF 4
ENDMDL
MODEL 9
REMARK VINA RESULT:      -6.8      3.593      7.161
REMARK  4 active torsions:
REMARK  status: ('A' for Active; 'I' for Inactive)
REMARK    1  A    between atoms: C3_3  and  C4_4 
REMARK    2  A    between atoms: C4_4  and  C5_6 
REMARK    3  A    between atoms: C7_8  and  N1_9 
REMARK    4  A    between atoms: N1_9  and  C8_10 
ROOT
HETATM    1  C5  UNL     1      23.985   4.635  51.204  1.00  0.00     0.107 C 
HETATM    2  C6  UNL     1      24.004   3.748  52.167  1.00  0.00     0.072 C 
HETATM    3  C7  UNL     1      24.551   2.406  52.597  1.00  0.00     0.211 A 
HETATM    4  N2  UNL     1      25.482   2.473  53.616  1.00  0.00    -0.226 NA
HETATM    5  C14 UNL     1      26.025   2.389  52.410  1.00  0.00     0.179 A 
HETATM    6  N3  UNL     1      26.804   2.304  51.201  1.00  0.00    -0.240 NA
HETATM    7  C15 UNL     1      26.631   2.916  50.055  1.00  0.00     0.138 C 
HETATM    8  C16 UNL     1      25.688   3.881  49.450  1.00  0.00     0.136 C 
HETATM    9  N4  UNL     1      24.680   4.507  49.971  1.00  0.00    -0.256 NA
ENDROOT
BRANCH   3  10
HETATM   10  N1  UNL     1      23.881   1.236  52.122  1.00  0.00    -0.352 N 
HETATM   11  H7  UNL     1      24.156   0.913  51.144  1.00  0.00     0.163 HD
BRANCH  10  12
HETATM   12  C8  UNL     1      22.912   0.458  52.772  1.00  0.00     0.031 A 
HETATM   13  C9  UNL     1      23.156  -0.381  53.838  1.00  0.00     0.029 A 
HETATM   14  C10 UNL     1      22.226  -1.154  54.496  1.00  0.00     0.004 A 
HETATM   15  C11 UNL     1      20.928  -1.077  54.038  1.00  0.00     0.019 A 
HETATM   16  C12 UNL     1      20.601  -0.271  52.987  1.00  0.00     0.013 A 
HETATM   17 BR1  UNL     1      18.816  -0.159  52.351  1.00  0.00    -0.051 Br
HETATM   18  C13 UNL     1      21.590   0.472  52.382  1.00  0.00     0.048 A 
ENDBRANCH  10  12
ENDBRANCH   3  10
BRANCH   1  19
HETATM   19  C4  UNL     1      23.223   5.863  51.331  1.00  0.00     0.200 C 
HETATM   20  O1  UNL     1      22.018   5.750  51.619  1.00  0.00    -0.286 OA
BRANCH  19  21
HETATM   21  C3  UNL     1      23.658   7.236  51.173  1.00  0.00     0.053 C 
HETATM   22  C2  UNL     1      23.400   7.974  50.114  1.00  0.00    -0.027 C 
HETATM   23  C1  UNL     1      22.704   7.874  48.813  1.00  0.00     0.036 C 
ENDBRANCH  19  21
ENDBRANCH   1  19
TORSDOF 4
ENDMDL
