MODEL 1
REMARK VINA RESULT:      -9.5      0.000      0.000
REMARK  0 active torsions:
REMARK  status: ('A' for Active; 'I' for Inactive)
ROOT
HETATM    1  C1  UNL     1      28.357   0.980  52.770  1.00  0.00     0.046 C 
HETATM    2  C2  UNL     1      27.477   0.913  53.983  1.00  0.00     0.169 C 
HETATM    3  O1  UNL     1      26.839   2.206  54.111  1.00  0.00    -0.340 OA
HETATM    4  C3  UNL     1      25.639   2.435  53.457  1.00  0.00     0.080 C 
HETATM    5  C4  UNL     1      24.687   1.629  53.988  1.00  0.00     0.050 C 
HETATM    6  C5  UNL     1      25.125   0.221  54.096  1.00  0.00    -0.013 C 
HETATM    7  C6  UNL     1      26.367  -0.067  53.675  1.00  0.00     0.061 C 
HETATM    8  C7  UNL     1      26.603  -1.307  52.950  1.00  0.00     0.098 C 
HETATM    9  N1  UNL     1      26.792  -2.302  52.391  1.00  0.00    -0.192 NA
HETATM   10  C8  UNL     1      24.329  -0.893  54.595  1.00  0.00     0.030 C 
HETATM   11  C9  UNL     1      23.072  -0.941  54.170  1.00  0.00     0.089 C 
HETATM   12  N2  UNL     1      21.829  -1.155  53.458  1.00  0.00    -0.366 N 
HETATM   13  C10 UNL     1      21.556  -0.064  52.589  1.00  0.00     0.032 A 
HETATM   14  C11 UNL     1      21.754  -0.143  51.227  1.00  0.00     0.032 A 
HETATM   15  C12 UNL     1      21.506   0.929  50.402  1.00  0.00     0.039 A 
HETATM   16  C13 UNL     1      21.048   2.142  50.866  1.00  0.00     0.069 A 
HETATM   17  C14 UNL     1      20.848   2.218  52.229  1.00  0.00     0.039 A 
HETATM   18  C15 UNL     1      21.095   1.149  53.062  1.00  0.00     0.032 A 
HETATM   19  O2  UNL     1      20.800   3.251  50.019  1.00  0.00    -0.341 OA
HETATM   20  C16 UNL     1      21.876   4.218  49.917  1.00  0.00     0.162 C 
HETATM   21  C17 UNL     1      21.486   5.547  50.498  1.00  0.00     0.042 C 
HETATM   22  C18 UNL     1      21.917   5.516  51.947  1.00  0.00     0.042 C 
HETATM   23  C19 UNL     1      22.937   4.470  51.972  1.00  0.00    -0.048 A 
HETATM   24  C20 UNL     1      23.856   4.037  52.898  1.00  0.00     0.022 A 
HETATM   25  C21 UNL     1      24.685   3.007  52.522  1.00  0.00    -0.002 A 
HETATM   26  C22 UNL     1      24.666   2.384  51.295  1.00  0.00     0.015 A 
HETATM   27  C23 UNL     1      23.772   2.766  50.322  1.00  0.00     0.011 A 
HETATM   28  C24 UNL     1      22.994   3.786  50.791  1.00  0.00    -0.023 A 
HETATM   29  H8  UNL     1      21.357  -2.064  53.703  1.00  0.00     0.165 HD
ENDROOT
TORSDOF 0
ENDMDL
MODEL 2
REMARK VINA RESULT:      -9.0      2.708      6.701
REMARK  0 active torsions:
REMARK  status: ('A' for Active; 'I' for Inactive)
ROOT
HETATM    1  C1  UNL     1      18.117   3.656  48.918  1.00  0.00     0.046 C 
HETATM    2  C2  UNL     1      18.556   4.597  50.000  1.00  0.00     0.169 C 
HETATM    3  O1  UNL     1      18.431   3.883  51.254  1.00  0.00    -0.340 OA
HETATM    4  C3  UNL     1      19.498   3.125  51.709  1.00  0.00     0.080 C 
HETATM    5  C4  UNL     1      20.538   3.949  51.988  1.00  0.00     0.050 C 
HETATM    6  C5  UNL     1      20.821   4.902  50.895  1.00  0.00    -0.013 C 
HETATM    7  C6  UNL     1      20.037   4.837  49.807  1.00  0.00     0.061 C 
HETATM    8  C7  UNL     1      20.633   5.006  48.489  1.00  0.00     0.098 C 
HETATM    9  N1  UNL     1      21.104   5.160  47.445  1.00  0.00    -0.192 NA
HETATM   10  C8  UNL     1      21.887   5.896  50.873  1.00  0.00     0.030 C 
HETATM   11  C9  UNL     1      23.073   5.480  51.302  1.00  0.00     0.089 C 
HETATM   12  N2  UNL     1      24.405   4.932  51.462  1.00  0.00    -0.366 N 
HETATM   13  C10 UNL     1      24.341   3.568  51.856  1.00  0.00     0.032 A 
HETATM   14  C11 UNL     1      24.580   2.537  50.972  1.00  0.00     0.032 A 
HETATM   15  C12 UNL     1      24.493   1.222  51.362  1.00  0.00     0.039 A 
HETATM   16  C13 UNL     1      24.165   0.841  52.645  1.00  0.00     0.069 A 
HETATM   17  C14 UNL     1      23.929   1.874  53.528  1.00  0.00     0.039 A 
HETATM   18  C15 UNL     1      24.014   3.194  53.144  1.00  0.00     0.032 A 
HETATM   19  O2  UNL     1      24.066  -0.514  53.047  1.00  0.00    -0.341 OA
HETATM   20  C16 UNL     1      22.730  -1.079  53.033  1.00  0.00     0.162 C 
HETATM   21  C17 UNL     1      22.259  -1.429  54.415  1.00  0.00     0.042 C 
HETATM   22  C18 UNL     1      21.525  -0.212  54.931  1.00  0.00     0.042 C 
HETATM   23  C19 UNL     1      21.172   0.509  53.711  1.00  0.00    -0.048 A 
HETATM   24  C20 UNL     1      20.364   1.584  53.422  1.00  0.00     0.022 A 
HETATM   25  C21 UNL     1      20.270   1.958  52.102  1.00  0.00    -0.002 A 
HETATM   26  C22 UNL     1      20.916   1.339  51.056  1.00  0.00     0.015 A 
HETATM   27  C23 UNL     1      21.739   0.259  51.274  1.00  0.00     0.011 A 
HETATM   28  C24 UNL     1      21.771  -0.030  52.608  1.00  0.00    -0.023 A 
HETATM   29  H8  UNL     1      25.171   5.627  51.261  1.00  0.00     0.165 HD
ENDROOT
TORSDOF 0
ENDMDL
MODEL 3
REMARK VINA RESULT:      -8.9      3.157      5.808
REMARK  0 active torsions:
REMARK  status: ('A' for Active; 'I' for Inactive)
ROOT
HETATM    1  C1  UNL     1      24.655   6.945  50.759  1.00  0.00     0.046 C 
HETATM    2  C2  UNL     1      24.898   5.988  49.631  1.00  0.00     0.169 C 
HETATM    3  O1  UNL     1      25.412   4.769  50.218  1.00  0.00    -0.340 OA
HETATM    4  C3  UNL     1      24.522   3.792  50.637  1.00  0.00     0.080 C 
HETATM    5  C4  UNL     1      23.870   3.297  49.555  1.00  0.00     0.050 C 
HETATM    6  C5  UNL     1      23.328   4.358  48.680  1.00  0.00    -0.013 C 
HETATM    7  C6  UNL     1      23.547   5.630  49.052  1.00  0.00     0.061 C 
HETATM    8  C7  UNL     1      22.489   6.614  48.877  1.00  0.00     0.098 C 
HETATM    9  N1  UNL     1      21.655   7.400  48.720  1.00  0.00    -0.192 NA
HETATM   10  C8  UNL     1      22.556   4.157  47.461  1.00  0.00     0.030 C 
HETATM   11  C9  UNL     1      21.611   3.225  47.522  1.00  0.00     0.089 C 
HETATM   12  N2  UNL     1      20.399   2.453  47.701  1.00  0.00    -0.366 N 
HETATM   13  C10 UNL     1      20.374   1.853  48.990  1.00  0.00     0.032 A 
HETATM   14  C11 UNL     1      19.598   2.351  50.016  1.00  0.00     0.032 A 
HETATM   15  C12 UNL     1      19.601   1.773  51.263  1.00  0.00     0.039 A 
HETATM   16  C13 UNL     1      20.368   0.673  51.578  1.00  0.00     0.069 A 
HETATM   17  C14 UNL     1      21.142   0.176  50.550  1.00  0.00     0.039 A 
HETATM   18  C15 UNL     1      21.144   0.749  49.298  1.00  0.00     0.032 A 
HETATM   19  O2  UNL     1      20.379   0.081  52.866  1.00  0.00    -0.341 OA
HETATM   20  C16 UNL     1      21.454   0.506  53.744  1.00  0.00     0.162 C 
HETATM   21  C17 UNL     1      22.396  -0.622  54.054  1.00  0.00     0.042 C 
HETATM   22  C18 UNL     1      23.489  -0.557  53.010  1.00  0.00     0.042 C 
HETATM   23  C19 UNL     1      23.414   0.820  52.531  1.00  0.00    -0.048 A 
HETATM   24  C20 UNL     1      24.203   1.609  51.727  1.00  0.00     0.022 A 
HETATM   25  C21 UNL     1      23.792   2.906  51.527  1.00  0.00    -0.002 A 
HETATM   26  C22 UNL     1      22.661   3.471  52.071  1.00  0.00     0.015 A 
HETATM   27  C23 UNL     1      21.827   2.739  52.884  1.00  0.00     0.011 A 
HETATM   28  C24 UNL     1      22.315   1.470  53.016  1.00  0.00    -0.023 A 
HETATM   29  H8  UNL     1      19.762   2.471  46.863  1.00  0.00     0.165 HD
ENDROOT
TORSDOF 0
ENDMDL
MODEL 4
REMARK VINA RESULT:      -8.8      3.002      5.432
REMARK  0 active torsions:
REMARK  status: ('A' for Active; 'I' for Inactive)
ROOT
HETATM    1  C1  UNL     1      23.019   1.012  53.295  1.00  0.00     0.046 C 
HETATM    2  C2  UNL     1      23.670   0.857  51.953  1.00  0.00     0.169 C 
HETATM    3  O1  UNL     1      22.681   1.223  50.962  1.00  0.00    -0.340 OA
HETATM    4  C3  UNL     1      22.573   2.548  50.572  1.00  0.00     0.080 C 
HETATM    5  C4  UNL     1      23.715   2.916  49.939  1.00  0.00     0.050 C 
HETATM    6  C5  UNL     1      24.931   2.543  50.692  1.00  0.00    -0.013 C 
HETATM    7  C6  UNL     1      24.756   1.906  51.861  1.00  0.00     0.061 C 
HETATM    8  C7  UNL     1      25.616   2.237  52.988  1.00  0.00     0.098 C 
HETATM    9  N1  UNL     1      26.312   2.487  53.876  1.00  0.00    -0.192 NA
HETATM   10  C8  UNL     1      26.306   2.821  50.299  1.00  0.00     0.030 C 
HETATM   11  C9  UNL     1      26.537   4.041  49.827  1.00  0.00     0.089 C 
HETATM   12  N2  UNL     1      26.830   5.445  49.626  1.00  0.00    -0.366 N 
HETATM   13  C10 UNL     1      25.631   6.210  49.616  1.00  0.00     0.032 A 
HETATM   14  C11 UNL     1      25.240   6.974  50.695  1.00  0.00     0.032 A 
HETATM   15  C12 UNL     1      24.067   7.691  50.679  1.00  0.00     0.039 A 
HETATM   16  C13 UNL     1      23.208   7.699  49.602  1.00  0.00     0.069 A 
HETATM   17  C14 UNL     1      23.603   6.936  48.523  1.00  0.00     0.039 A 
HETATM   18  C15 UNL     1      24.776   6.215  48.531  1.00  0.00     0.032 A 
HETATM   19  O2  UNL     1      21.994   8.431  49.587  1.00  0.00    -0.341 OA
HETATM   20  C16 UNL     1      20.804   7.681  49.942  1.00  0.00     0.162 C 
HETATM   21  C17 UNL     1      19.857   7.559  48.783  1.00  0.00     0.042 C 
HETATM   22  C18 UNL     1      20.218   6.270  48.077  1.00  0.00     0.042 C 
HETATM   23  C19 UNL     1      20.931   5.515  49.104  1.00  0.00    -0.048 A 
HETATM   24  C20 UNL     1      21.379   4.220  49.215  1.00  0.00     0.022 A 
HETATM   25  C21 UNL     1      22.003   3.873  50.390  1.00  0.00    -0.002 A 
HETATM   26  C22 UNL     1      22.207   4.718  51.457  1.00  0.00     0.015 A 
HETATM   27  C23 UNL     1      21.785   6.026  51.413  1.00  0.00     0.011 A 
HETATM   28  C24 UNL     1      21.186   6.273  50.211  1.00  0.00    -0.023 A 
HETATM   29  H8  UNL     1      27.858   5.649  49.525  1.00  0.00     0.165 HD
ENDROOT
TORSDOF 0
ENDMDL
MODEL 5
REMARK VINA RESULT:      -8.4     10.120     12.740
REMARK  0 active torsions:
REMARK  status: ('A' for Active; 'I' for Inactive)
ROOT
HETATM    1  C1  UNL     1      32.428  11.860  45.755  1.00  0.00     0.046 C 
HETATM    2  C2  UNL     1      31.180  11.117  45.382  1.00  0.00     0.169 C 
HETATM    3  O1  UNL     1      31.581  10.035  44.507  1.00  0.00    -0.340 OA
HETATM    4  C3  UNL     1      31.943   8.817  45.061  1.00  0.00     0.080 C 
HETATM    5  C4  UNL     1      30.859   8.268  45.664  1.00  0.00     0.050 C 
HETATM    6  C5  UNL     1      30.157   9.218  46.553  1.00  0.00    -0.013 C 
HETATM    7  C6  UNL     1      30.660  10.460  46.641  1.00  0.00     0.061 C 
HETATM    8  C7  UNL     1      30.679  11.130  47.933  1.00  0.00     0.098 C 
HETATM    9  N1  UNL     1      30.676  11.668  48.956  1.00  0.00    -0.192 NA
HETATM   10  C8  UNL     1      28.980   8.930  47.363  1.00  0.00     0.030 C 
HETATM   11  C9  UNL     1      28.998   7.774  48.017  1.00  0.00     0.089 C 
HETATM   12  N2  UNL     1      29.170   6.686  48.958  1.00  0.00    -0.366 N 
HETATM   13  C10 UNL     1      30.377   5.983  48.694  1.00  0.00     0.032 A 
HETATM   14  C11 UNL     1      31.507   6.150  49.467  1.00  0.00     0.032 A 
HETATM   15  C12 UNL     1      32.674   5.479  49.186  1.00  0.00     0.039 A 
HETATM   16  C13 UNL     1      32.801   4.606  48.128  1.00  0.00     0.069 A 
HETATM   17  C14 UNL     1      31.669   4.440  47.358  1.00  0.00     0.039 A 
HETATM   18  C15 UNL     1      30.496   5.107  47.633  1.00  0.00     0.032 A 
HETATM   19  O2  UNL     1      34.005   3.920  47.832  1.00  0.00    -0.341 OA
HETATM   20  C16 UNL     1      34.848   4.537  46.825  1.00  0.00     0.162 C 
HETATM   21  C17 UNL     1      34.955   3.686  45.593  1.00  0.00     0.042 C 
HETATM   22  C18 UNL     1      33.852   4.146  44.666  1.00  0.00     0.042 C 
HETATM   23  C19 UNL     1      33.545   5.489  45.149  1.00  0.00    -0.048 A 
HETATM   24  C20 UNL     1      32.786   6.536  44.682  1.00  0.00     0.022 A 
HETATM   25  C21 UNL     1      32.771   7.684  45.438  1.00  0.00    -0.002 A 
HETATM   26  C22 UNL     1      33.458   7.864  46.617  1.00  0.00     0.015 A 
HETATM   27  C23 UNL     1      34.235   6.859  47.142  1.00  0.00     0.011 A 
HETATM   28  C24 UNL     1      34.181   5.765  46.327  1.00  0.00    -0.023 A 
HETATM   29  H8  UNL     1      28.387   6.610  49.658  1.00  0.00     0.165 HD
ENDROOT
TORSDOF 0
ENDMDL
MODEL 6
REMARK VINA RESULT:      -7.8      3.826      7.194
REMARK  0 active torsions:
REMARK  status: ('A' for Active; 'I' for Inactive)
ROOT
HETATM    1  C1  UNL     1      23.041   6.988  45.157  1.00  0.00     0.046 C 
HETATM    2  C2  UNL     1      22.416   7.724  46.304  1.00  0.00     0.169 C 
HETATM    3  O1  UNL     1      21.239   6.975  46.692  1.00  0.00    -0.340 OA
HETATM    4  C3  UNL     1      21.361   5.960  47.626  1.00  0.00     0.080 C 
HETATM    5  C4  UNL     1      21.724   6.498  48.817  1.00  0.00     0.050 C 
HETATM    6  C5  UNL     1      22.864   7.432  48.699  1.00  0.00    -0.013 C 
HETATM    7  C6  UNL     1      23.372   7.625  47.471  1.00  0.00     0.061 C 
HETATM    8  C7  UNL     1      24.814   7.741  47.308  1.00  0.00     0.098 C 
HETATM    9  N1  UNL     1      25.958   7.853  47.182  1.00  0.00    -0.192 NA
HETATM   10  C8  UNL     1      23.506   8.149  49.793  1.00  0.00     0.030 C 
HETATM   11  C9  UNL     1      23.737   7.439  50.892  1.00  0.00     0.089 C 
HETATM   12  N2  UNL     1      24.264   6.587  51.938  1.00  0.00    -0.366 N 
HETATM   13  C10 UNL     1      23.806   5.252  51.773  1.00  0.00     0.032 A 
HETATM   14  C11 UNL     1      24.614   4.256  51.264  1.00  0.00     0.032 A 
HETATM   15  C12 UNL     1      24.150   2.974  51.090  1.00  0.00     0.039 A 
HETATM   16  C13 UNL     1      22.864   2.593  51.405  1.00  0.00     0.069 A 
HETATM   17  C14 UNL     1      22.058   3.589  51.916  1.00  0.00     0.039 A 
HETATM   18  C15 UNL     1      22.516   4.876  52.094  1.00  0.00     0.032 A 
HETATM   19  O2  UNL     1      22.381   1.274  51.219  1.00  0.00    -0.341 OA
HETATM   20  C16 UNL     1      21.655   1.038  49.984  1.00  0.00     0.162 C 
HETATM   21  C17 UNL     1      20.212   0.714  50.241  1.00  0.00     0.042 C 
HETATM   22  C18 UNL     1      19.469   2.030  50.195  1.00  0.00     0.042 C 
HETATM   23  C19 UNL     1      20.367   2.895  49.435  1.00  0.00    -0.048 A 
HETATM   24  C20 UNL     1      20.260   4.146  48.873  1.00  0.00     0.022 A 
HETATM   25  C21 UNL     1      21.356   4.622  48.192  1.00  0.00    -0.002 A 
HETATM   26  C22 UNL     1      22.542   3.942  48.028  1.00  0.00     0.015 A 
HETATM   27  C23 UNL     1      22.717   2.688  48.564  1.00  0.00     0.011 A 
HETATM   28  C24 UNL     1      21.582   2.308  49.221  1.00  0.00    -0.023 A 
HETATM   29  H8  UNL     1      24.882   7.096  52.622  1.00  0.00     0.165 HD
ENDROOT
TORSDOF 0
ENDMDL
MODEL 7
REMARK VINA RESULT:      -7.7      9.805     12.584
REMARK  0 active torsions:
REMARK  status: ('A' for Active; 'I' for Inactive)
ROOT
HETATM    1  C1  UNL     1      25.751  11.000  44.117  1.00  0.00     0.046 C 
HETATM    2  C2  UNL     1      25.492  11.147  45.587  1.00  0.00     0.169 C 
HETATM    3  O1  UNL     1      25.564   9.820  46.161  1.00  0.00    -0.340 OA
HETATM    4  C3  UNL     1      26.788   9.335  46.593  1.00  0.00     0.080 C 
HETATM    5  C4  UNL     1      27.215  10.087  47.638  1.00  0.00     0.050 C 
HETATM    6  C5  UNL     1      27.134  11.538  47.369  1.00  0.00    -0.013 C 
HETATM    7  C6  UNL     1      26.659  11.913  46.170  1.00  0.00     0.061 C 
HETATM    8  C7  UNL     1      27.272  13.040  45.483  1.00  0.00     0.098 C 
HETATM    9  N1  UNL     1      27.747  13.948  44.947  1.00  0.00    -0.192 NA
HETATM   10  C8  UNL     1      27.542  12.605  48.273  1.00  0.00     0.030 C 
HETATM   11  C9  UNL     1      28.699  12.422  48.899  1.00  0.00     0.089 C 
HETATM   12  N2  UNL     1      30.085  12.356  49.315  1.00  0.00    -0.366 N 
HETATM   13  C10 UNL     1      30.663  11.113  48.939  1.00  0.00     0.032 A 
HETATM   14  C11 UNL     1      31.515  10.997  47.861  1.00  0.00     0.032 A 
HETATM   15  C12 UNL     1      32.049   9.783  47.495  1.00  0.00     0.039 A 
HETATM   16  C13 UNL     1      31.776   8.612  48.166  1.00  0.00     0.069 A 
HETATM   17  C14 UNL     1      30.924   8.731  49.245  1.00  0.00     0.039 A 
HETATM   18  C15 UNL     1      30.386   9.943  49.618  1.00  0.00     0.032 A 
HETATM   19  O2  UNL     1      32.317   7.359  47.786  1.00  0.00    -0.341 OA
HETATM   20  C16 UNL     1      31.468   6.535  46.947  1.00  0.00     0.162 C 
HETATM   21  C17 UNL     1      31.043   5.278  47.650  1.00  0.00     0.042 C 
HETATM   22  C18 UNL     1      29.728   5.597  48.326  1.00  0.00     0.042 C 
HETATM   23  C19 UNL     1      29.241   6.756  47.582  1.00  0.00    -0.048 A 
HETATM   24  C20 UNL     1      28.054   7.447  47.538  1.00  0.00     0.022 A 
HETATM   25  C21 UNL     1      27.977   8.502  46.659  1.00  0.00    -0.002 A 
HETATM   26  C22 UNL     1      28.991   8.912  45.824  1.00  0.00     0.015 A 
HETATM   27  C23 UNL     1      30.205   8.266  45.818  1.00  0.00     0.011 A 
HETATM   28  C24 UNL     1      30.184   7.243  46.722  1.00  0.00    -0.023 A 
HETATM   29  H8  UNL     1      30.415  13.224  49.813  1.00  0.00     0.165 HD
ENDROOT
TORSDOF 0
ENDMDL
MODEL 8
REMARK VINA RESULT:      -7.7     10.772     12.452
REMARK  0 active torsions:
REMARK  status: ('A' for Active; 'I' for Inactive)
ROOT
HETATM    1  C1  UNL     1      33.689   8.470  42.765  1.00  0.00     0.046 C 
HETATM    2  C2  UNL     1      34.567   8.339  43.974  1.00  0.00     0.169 C 
HETATM    3  O1  UNL     1      34.461   9.583  44.706  1.00  0.00    -0.340 OA
HETATM    4  C3  UNL     1      33.460   9.728  45.653  1.00  0.00     0.080 C 
HETATM    5  C4  UNL     1      33.682   8.854  46.667  1.00  0.00     0.050 C 
HETATM    6  C5  UNL     1      33.951   7.481  46.189  1.00  0.00    -0.013 C 
HETATM    7  C6  UNL     1      33.947   7.283  44.861  1.00  0.00     0.061 C 
HETATM    8  C7  UNL     1      33.358   6.064  44.326  1.00  0.00     0.098 C 
HETATM    9  N1  UNL     1      32.907   5.087  43.903  1.00  0.00    -0.192 NA
HETATM   10  C8  UNL     1      34.199   6.313  47.024  1.00  0.00     0.030 C 
HETATM   11  C9  UNL     1      33.402   6.176  48.078  1.00  0.00     0.089 C 
HETATM   12  N2  UNL     1      32.341   5.874  49.016  1.00  0.00    -0.366 N 
HETATM   13  C10 UNL     1      31.408   6.945  49.077  1.00  0.00     0.032 A 
HETATM   14  C11 UNL     1      30.178   6.883  48.456  1.00  0.00     0.032 A 
HETATM   15  C12 UNL     1      29.295   7.936  48.505  1.00  0.00     0.039 A 
HETATM   16  C13 UNL     1      29.568   9.113  49.167  1.00  0.00     0.069 A 
HETATM   17  C14 UNL     1      30.797   9.172  49.790  1.00  0.00     0.039 A 
HETATM   18  C15 UNL     1      31.687   8.122  49.745  1.00  0.00     0.032 A 
HETATM   19  O2  UNL     1      28.662  10.202  49.212  1.00  0.00    -0.341 OA
HETATM   20  C16 UNL     1      28.883  11.244  48.226  1.00  0.00     0.162 C 
HETATM   21  C17 UNL     1      29.285  12.540  48.869  1.00  0.00     0.042 C 
HETATM   22  C18 UNL     1      30.797  12.538  48.914  1.00  0.00     0.042 C 
HETATM   23  C19 UNL     1      31.161  11.567  47.885  1.00  0.00    -0.048 A 
HETATM   24  C20 UNL     1      32.337  11.199  47.276  1.00  0.00     0.022 A 
HETATM   25  C21 UNL     1      32.261  10.231  46.302  1.00  0.00    -0.002 A 
HETATM   26  C22 UNL     1      31.103   9.611  45.892  1.00  0.00     0.015 A 
HETATM   27  C23 UNL     1      29.892   9.930  46.460  1.00  0.00     0.011 A 
HETATM   28  C24 UNL     1      30.072  10.891  47.413  1.00  0.00    -0.023 A 
HETATM   29  H8  UNL     1      32.444   4.934  49.478  1.00  0.00     0.165 HD
ENDROOT
TORSDOF 0
ENDMDL
MODEL 9
REMARK VINA RESULT:      -7.5      3.320      7.118
REMARK  0 active torsions:
REMARK  status: ('A' for Active; 'I' for Inactive)
ROOT
HETATM    1  C1  UNL     1      19.064   6.082  47.259  1.00  0.00     0.046 C 
HETATM    2  C2  UNL     1      19.389   6.838  48.513  1.00  0.00     0.169 C 
HETATM    3  O1  UNL     1      18.900   6.044  49.620  1.00  0.00    -0.340 OA
HETATM    4  C3  UNL     1      19.728   5.085  50.182  1.00  0.00     0.080 C 
HETATM    5  C4  UNL     1      20.789   5.702  50.760  1.00  0.00     0.050 C 
HETATM    6  C5  UNL     1      21.429   6.691  49.868  1.00  0.00    -0.013 C 
HETATM    7  C6  UNL     1      20.895   6.851  48.647  1.00  0.00     0.061 C 
HETATM    8  C7  UNL     1      21.776   7.041  47.504  1.00  0.00     0.098 C 
HETATM    9  N1  UNL     1      22.477   7.210  46.600  1.00  0.00    -0.192 NA
HETATM   10  C8  UNL     1      22.603   7.497  50.179  1.00  0.00     0.030 C 
HETATM   11  C9  UNL     1      23.600   6.858  50.780  1.00  0.00     0.089 C 
HETATM   12  N2  UNL     1      24.777   6.090  51.132  1.00  0.00    -0.366 N 
HETATM   13  C10 UNL     1      24.441   4.724  51.336  1.00  0.00     0.032 A 
HETATM   14  C11 UNL     1      24.717   3.752  50.398  1.00  0.00     0.032 A 
HETATM   15  C12 UNL     1      24.366   2.439  50.600  1.00  0.00     0.039 A 
HETATM   16  C13 UNL     1      23.722   2.002  51.737  1.00  0.00     0.069 A 
HETATM   17  C14 UNL     1      23.449   2.975  52.675  1.00  0.00     0.039 A 
HETATM   18  C15 UNL     1      23.797   4.293  52.479  1.00  0.00     0.032 A 
HETATM   19  O2  UNL     1      23.351   0.650  51.944  1.00  0.00    -0.341 OA
HETATM   20  C16 UNL     1      21.983   0.312  51.596  1.00  0.00     0.162 C 
HETATM   21  C17 UNL     1      21.184  -0.081  52.805  1.00  0.00     0.042 C 
HETATM   22  C18 UNL     1      20.533   1.188  53.310  1.00  0.00     0.042 C 
HETATM   23  C19 UNL     1      20.553   2.063  52.141  1.00  0.00    -0.048 A 
HETATM   24  C20 UNL     1      19.984   3.276  51.831  1.00  0.00     0.022 A 
HETATM   25  C21 UNL     1      20.228   3.778  50.575  1.00  0.00    -0.002 A 
HETATM   26  C22 UNL     1      20.990   3.160  49.610  1.00  0.00     0.015 A 
HETATM   27  C23 UNL     1      21.589   1.946  49.853  1.00  0.00     0.011 A 
HETATM   28  C24 UNL     1      21.293   1.536  51.122  1.00  0.00    -0.023 A 
HETATM   29  H8  UNL     1      25.658   6.667  51.172  1.00  0.00     0.165 HD
ENDROOT
TORSDOF 0
ENDMDL
