MODEL 1
REMARK VINA RESULT:      -7.7      0.000      0.000
REMARK  9 active torsions:
REMARK  status: ('A' for Active; 'I' for Inactive)
REMARK    1  A    between atoms: O1_2  and  C2_3 
REMARK    2  A    between atoms: C2_3  and  C3_4 
REMARK    3  A    between atoms: C3_4  and  N1_5 
REMARK    4  A    between atoms: N1_5  and  C4_6 
REMARK    5  A    between atoms: C4_6  and  C5_7 
REMARK    6  A    between atoms: C5_7  and  O2_8 
REMARK    7  A    between atoms: O2_8  and  C6_9 
REMARK    8  A    between atoms: C9_12  and  N2_13 
REMARK    9  A    between atoms: C18_26  and  O3_27 
ROOT
HETATM    1  C6  UNL     1      23.534   1.439  51.624  1.00  0.00     0.103 A 
HETATM    2  C7  UNL     1      24.485   0.744  52.338  1.00  0.00     0.057 A 
HETATM    3  C8  UNL     1      24.053   0.030  53.435  1.00  0.00     0.042 A 
HETATM    4  C9  UNL     1      25.075  -0.626  54.088  1.00  0.00     0.144 A 
HETATM    5  N3  UNL     1      24.774  -1.359  55.194  1.00  0.00    -0.223 NA
HETATM    6  C15 UNL     1      23.485  -1.440  55.638  1.00  0.00     0.236 A 
HETATM    7  N4  UNL     1      22.493  -0.795  54.990  1.00  0.00    -0.241 NA
HETATM    8  C16 UNL     1      22.762  -0.066  53.903  1.00  0.00     0.075 A 
HETATM    9  C17 UNL     1      21.809   0.646  53.163  1.00  0.00     0.072 A 
HETATM   10  C18 UNL     1      22.203   1.383  52.044  1.00  0.00     0.103 A 
ENDROOT
BRANCH   1  11
HETATM   11  O2  UNL     1      23.838   2.197  50.500  1.00  0.00    -0.347 OA
BRANCH  11  12
HETATM   12  C5  UNL     1      24.665   3.345  50.695  1.00  0.00     0.205 C 
BRANCH  12  13
HETATM   13  C4  UNL     1      25.959   3.237  49.953  1.00  0.00     0.296 C 
BRANCH  13  14
HETATM   14  N1  UNL     1      26.798   4.392  50.016  1.00  0.00     0.087 N 
HETATM   15  H8  UNL     1      27.793   4.153  49.849  1.00  0.00     0.316 HD
BRANCH  14  16
HETATM   16  C3  UNL     1      26.371   5.491  49.173  1.00  0.00     0.295 C 
BRANCH  16  17
HETATM   17  C2  UNL     1      27.595   5.891  48.365  1.00  0.00     0.197 C 
BRANCH  17  18
HETATM   18  O1  UNL     1      28.670   5.056  48.524  1.00  0.00    -0.394 OA
HETATM   19  C1  UNL     1      29.877   5.580  48.101  1.00  0.00     0.201 C 
ENDBRANCH  17  18
ENDBRANCH  16  17
ENDBRANCH  14  16
ENDBRANCH  13  14
ENDBRANCH  12  13
ENDBRANCH  11  12
ENDBRANCH   1  11
BRANCH  10  20
HETATM   20  O3  UNL     1      21.229   2.073  51.342  1.00  0.00    -0.353 OA
HETATM   21  C19 UNL     1      20.443   3.010  52.090  1.00  0.00     0.210 C 
ENDBRANCH  10  20
BRANCH   4  22
HETATM   22  N2  UNL     1      26.467  -0.725  53.810  1.00  0.00    -0.336 N 
HETATM   23  C10 UNL     1      27.134   0.407  54.408  1.00  0.00     0.120 A 
HETATM   24  C11 UNL     1      28.456   0.602  54.301  1.00  0.00     0.087 A 
HETATM   25 CL1  UNL     1      29.335   1.923  54.982  1.00  0.00    -0.080 Cl
HETATM   26  C12 UNL     1      29.251  -0.367  53.559  1.00  0.00     0.137 A 
HETATM   27  F1  UNL     1      30.603  -0.319  53.354  1.00  0.00    -0.205 F 
HETATM   28  C13 UNL     1      28.598  -1.389  53.033  1.00  0.00     0.037 A 
HETATM   29  C14 UNL     1      27.157  -1.753  53.057  1.00  0.00     0.160 A 
ENDBRANCH   4  22
TORSDOF 9
ENDMDL
MODEL 2
REMARK VINA RESULT:      -7.4      1.524      1.845
REMARK  9 active torsions:
REMARK  status: ('A' for Active; 'I' for Inactive)
REMARK    1  A    between atoms: O1_2  and  C2_3 
REMARK    2  A    between atoms: C2_3  and  C3_4 
REMARK    3  A    between atoms: C3_4  and  N1_5 
REMARK    4  A    between atoms: N1_5  and  C4_6 
REMARK    5  A    between atoms: C4_6  and  C5_7 
REMARK    6  A    between atoms: C5_7  and  O2_8 
REMARK    7  A    between atoms: O2_8  and  C6_9 
REMARK    8  A    between atoms: C9_12  and  N2_13 
REMARK    9  A    between atoms: C18_26  and  O3_27 
ROOT
HETATM    1  C6  UNL     1      22.997   2.784  51.690  1.00  0.00     0.103 A 
HETATM    2  C7  UNL     1      23.985   2.059  52.319  1.00  0.00     0.057 A 
HETATM    3  C8  UNL     1      23.588   0.995  53.099  1.00  0.00     0.042 A 
HETATM    4  C9  UNL     1      24.644   0.335  53.691  1.00  0.00     0.144 A 
HETATM    5  N3  UNL     1      24.377  -0.731  54.494  1.00  0.00    -0.223 NA
HETATM    6  C15 UNL     1      23.088  -1.132  54.701  1.00  0.00     0.236 A 
HETATM    7  N4  UNL     1      22.063  -0.480  54.116  1.00  0.00    -0.241 NA
HETATM    8  C16 UNL     1      22.297   0.571  53.324  1.00  0.00     0.075 A 
HETATM    9  C17 UNL     1      21.306   1.319  52.676  1.00  0.00     0.072 A 
HETATM   10  C18 UNL     1      21.665   2.406  51.875  1.00  0.00     0.103 A 
ENDROOT
BRANCH   1  11
HETATM   11  O2  UNL     1      23.263   3.879  50.878  1.00  0.00    -0.347 OA
BRANCH  11  12
HETATM   12  C5  UNL     1      23.704   5.074  51.523  1.00  0.00     0.205 C 
BRANCH  12  13
HETATM   13  C4  UNL     1      24.389   6.005  50.572  1.00  0.00     0.296 C 
BRANCH  13  14
HETATM   14  N1  UNL     1      25.786   5.768  50.386  1.00  0.00     0.087 N 
HETATM   15  H8  UNL     1      26.117   4.960  50.946  1.00  0.00     0.316 HD
BRANCH  14  16
HETATM   16  C3  UNL     1      26.196   5.652  49.001  1.00  0.00     0.295 C 
BRANCH  16  17
HETATM   17  C2  UNL     1      27.147   4.467  48.950  1.00  0.00     0.197 C 
BRANCH  17  18
HETATM   18  O1  UNL     1      28.417   4.783  48.545  1.00  0.00    -0.394 OA
HETATM   19  C1  UNL     1      28.585   6.093  48.137  1.00  0.00     0.201 C 
ENDBRANCH  17  18
ENDBRANCH  16  17
ENDBRANCH  14  16
ENDBRANCH  13  14
ENDBRANCH  12  13
ENDBRANCH  11  12
ENDBRANCH   1  11
BRANCH  10  20
HETATM   20  O3  UNL     1      20.653   3.119  51.254  1.00  0.00    -0.353 OA
HETATM   21  C19 UNL     1      19.323   2.905  51.746  1.00  0.00     0.210 C 
ENDBRANCH  10  20
BRANCH   4  22
HETATM   22  N2  UNL     1      26.050   0.534  53.607  1.00  0.00    -0.336 N 
HETATM   23  C10 UNL     1      26.680  -0.746  53.379  1.00  0.00     0.120 A 
HETATM   24  C11 UNL     1      28.008  -0.885  53.273  1.00  0.00     0.087 A 
HETATM   25 CL1  UNL     1      28.843  -2.372  53.001  1.00  0.00    -0.080 Cl
HETATM   26  C12 UNL     1      28.851   0.298  53.385  1.00  0.00     0.137 A 
HETATM   27  F1  UNL     1      30.215   0.332  53.302  1.00  0.00    -0.205 F 
HETATM   28  C13 UNL     1      28.230   1.448  53.589  1.00  0.00     0.037 A 
HETATM   29  C14 UNL     1      26.787   1.775  53.727  1.00  0.00     0.160 A 
ENDBRANCH   4  22
TORSDOF 9
ENDMDL
MODEL 3
REMARK VINA RESULT:      -7.3      3.465      6.079
REMARK  9 active torsions:
REMARK  status: ('A' for Active; 'I' for Inactive)
REMARK    1  A    between atoms: O1_2  and  C2_3 
REMARK    2  A    between atoms: C2_3  and  C3_4 
REMARK    3  A    between atoms: C3_4  and  N1_5 
REMARK    4  A    between atoms: N1_5  and  C4_6 
REMARK    5  A    between atoms: C4_6  and  C5_7 
REMARK    6  A    between atoms: C5_7  and  O2_8 
REMARK    7  A    between atoms: O2_8  and  C6_9 
REMARK    8  A    between atoms: C9_12  and  N2_13 
REMARK    9  A    between atoms: C18_26  and  O3_27 
ROOT
HETATM    1  C6  UNL     1      23.465   0.449  52.904  1.00  0.00     0.103 A 
HETATM    2  C7  UNL     1      23.549   1.608  52.164  1.00  0.00     0.057 A 
HETATM    3  C8  UNL     1      22.413   2.380  52.070  1.00  0.00     0.042 A 
HETATM    4  C9  UNL     1      22.592   3.514  51.307  1.00  0.00     0.144 A 
HETATM    5  N3  UNL     1      21.536   4.355  51.133  1.00  0.00    -0.223 NA
HETATM    6  C15 UNL     1      20.330   4.074  51.708  1.00  0.00     0.236 A 
HETATM    7  N4  UNL     1      20.166   2.963  52.454  1.00  0.00    -0.241 NA
HETATM    8  C16 UNL     1      21.186   2.120  52.639  1.00  0.00     0.075 A 
HETATM    9  C17 UNL     1      21.120   0.937  53.387  1.00  0.00     0.072 A 
HETATM   10  C18 UNL     1      22.249   0.124  53.509  1.00  0.00     0.103 A 
ENDROOT
BRANCH   1  11
HETATM   11  O2  UNL     1      24.537  -0.418  53.076  1.00  0.00    -0.347 OA
BRANCH  11  12
HETATM   12  C5  UNL     1      25.826   0.057  52.683  1.00  0.00     0.205 C 
BRANCH  12  13
HETATM   13  C4  UNL     1      26.845  -1.038  52.661  1.00  0.00     0.296 C 
BRANCH  13  14
HETATM   14  N1  UNL     1      27.610  -1.184  53.859  1.00  0.00     0.087 N 
HETATM   15  H8  UNL     1      28.580  -1.494  53.659  1.00  0.00     0.316 HD
BRANCH  14  16
HETATM   16  C3  UNL     1      27.595  -0.024  54.727  1.00  0.00     0.295 C 
BRANCH  16  17
HETATM   17  C2  UNL     1      28.994   0.565  54.653  1.00  0.00     0.197 C 
BRANCH  17  18
HETATM   18  O1  UNL     1      29.030   1.934  54.699  1.00  0.00    -0.394 OA
HETATM   19  C1  UNL     1      28.664   2.563  53.524  1.00  0.00     0.201 C 
ENDBRANCH  17  18
ENDBRANCH  16  17
ENDBRANCH  14  16
ENDBRANCH  13  14
ENDBRANCH  12  13
ENDBRANCH  11  12
ENDBRANCH   1  11
BRANCH  10  20
HETATM   20  O3  UNL     1      22.139  -1.035  54.258  1.00  0.00    -0.353 OA
HETATM   21  C19 UNL     1      20.845  -1.652  54.297  1.00  0.00     0.210 C 
ENDBRANCH  10  20
BRANCH   4  22
HETATM   22  N2  UNL     1      23.737   4.037  50.643  1.00  0.00    -0.336 N 
HETATM   23  C10 UNL     1      23.772   5.466  50.850  1.00  0.00     0.120 A 
HETATM   24  C11 UNL     1      24.730   6.245  50.328  1.00  0.00     0.087 A 
HETATM   25 CL1  UNL     1      24.850   7.956  50.523  1.00  0.00    -0.080 Cl
HETATM   26  C12 UNL     1      25.779   5.628  49.527  1.00  0.00     0.137 A 
HETATM   27  F1  UNL     1      26.823   6.273  48.923  1.00  0.00    -0.205 F 
HETATM   28  C13 UNL     1      25.708   4.317  49.369  1.00  0.00     0.037 A 
HETATM   29  C14 UNL     1      24.730   3.317  49.872  1.00  0.00     0.160 A 
ENDBRANCH   4  22
TORSDOF 9
ENDMDL
MODEL 4
REMARK VINA RESULT:      -7.3      2.679      6.534
REMARK  9 active torsions:
REMARK  status: ('A' for Active; 'I' for Inactive)
REMARK    1  A    between atoms: O1_2  and  C2_3 
REMARK    2  A    between atoms: C2_3  and  C3_4 
REMARK    3  A    between atoms: C3_4  and  N1_5 
REMARK    4  A    between atoms: N1_5  and  C4_6 
REMARK    5  A    between atoms: C4_6  and  C5_7 
REMARK    6  A    between atoms: C5_7  and  O2_8 
REMARK    7  A    between atoms: O2_8  and  C6_9 
REMARK    8  A    between atoms: C9_12  and  N2_13 
REMARK    9  A    between atoms: C18_26  and  O3_27 
ROOT
HETATM    1  C6  UNL     1      22.635   1.563  52.827  1.00  0.00     0.103 A 
HETATM    2  C7  UNL     1      23.984   1.379  52.617  1.00  0.00     0.057 A 
HETATM    3  C8  UNL     1      24.580   2.142  51.637  1.00  0.00     0.042 A 
HETATM    4  C9  UNL     1      25.927   1.883  51.496  1.00  0.00     0.144 A 
HETATM    5  N3  UNL     1      26.626   2.571  50.552  1.00  0.00    -0.223 NA
HETATM    6  C15 UNL     1      25.999   3.497  49.769  1.00  0.00     0.236 A 
HETATM    7  N4  UNL     1      24.681   3.743  49.916  1.00  0.00    -0.241 NA
HETATM    8  C16 UNL     1      23.971   3.080  50.835  1.00  0.00     0.075 A 
HETATM    9  C17 UNL     1      22.600   3.255  51.063  1.00  0.00     0.072 A 
HETATM   10  C18 UNL     1      21.956   2.502  52.047  1.00  0.00     0.103 A 
ENDROOT
BRANCH   1  11
HETATM   11  O2  UNL     1      21.915   0.857  53.782  1.00  0.00    -0.347 OA
BRANCH  11  12
HETATM   12  C5  UNL     1      22.414  -0.429  54.151  1.00  0.00     0.205 C 
BRANCH  12  13
HETATM   13  C4  UNL     1      21.424  -1.516  53.872  1.00  0.00     0.296 C 
BRANCH  13  14
HETATM   14  N1  UNL     1      20.080  -1.234  54.268  1.00  0.00     0.087 N 
HETATM   15  H8  UNL     1      20.047  -0.610  55.095  1.00  0.00     0.316 HD
BRANCH  14  16
HETATM   16  C3  UNL     1      19.230  -0.744  53.202  1.00  0.00     0.295 C 
BRANCH  16  17
HETATM   17  C2  UNL     1      17.911  -1.484  53.353  1.00  0.00     0.197 C 
BRANCH  17  18
HETATM   18  O1  UNL     1      18.009  -2.677  54.021  1.00  0.00    -0.394 OA
HETATM   19  C1  UNL     1      17.182  -3.677  53.545  1.00  0.00     0.201 C 
ENDBRANCH  17  18
ENDBRANCH  16  17
ENDBRANCH  14  16
ENDBRANCH  13  14
ENDBRANCH  12  13
ENDBRANCH  11  12
ENDBRANCH   1  11
BRANCH  10  20
HETATM   20  O3  UNL     1      20.599   2.706  52.240  1.00  0.00    -0.353 OA
HETATM   21  C19 UNL     1      19.999   3.771  51.490  1.00  0.00     0.210 C 
ENDBRANCH  10  20
BRANCH   4  22
HETATM   22  N2  UNL     1      26.802   1.009  52.199  1.00  0.00    -0.336 N 
HETATM   23  C10 UNL     1      27.700   1.807  53.000  1.00  0.00     0.120 A 
HETATM   24  C11 UNL     1      28.657   1.264  53.764  1.00  0.00     0.087 A 
HETATM   25 CL1  UNL     1      29.772   2.140  54.750  1.00  0.00    -0.080 Cl
HETATM   26  C12 UNL     1      28.794  -0.186  53.796  1.00  0.00     0.137 A 
HETATM   27  F1  UNL     1      29.713  -0.898  54.516  1.00  0.00    -0.205 F 
HETATM   28  C13 UNL     1      27.947  -0.876  53.051  1.00  0.00     0.037 A 
HETATM   29  C14 UNL     1      26.841  -0.439  52.159  1.00  0.00     0.160 A 
ENDBRANCH   4  22
TORSDOF 9
ENDMDL
MODEL 5
REMARK VINA RESULT:      -7.3      2.162      2.856
REMARK  9 active torsions:
REMARK  status: ('A' for Active; 'I' for Inactive)
REMARK    1  A    between atoms: O1_2  and  C2_3 
REMARK    2  A    between atoms: C2_3  and  C3_4 
REMARK    3  A    between atoms: C3_4  and  N1_5 
REMARK    4  A    between atoms: N1_5  and  C4_6 
REMARK    5  A    between atoms: C4_6  and  C5_7 
REMARK    6  A    between atoms: C5_7  and  O2_8 
REMARK    7  A    between atoms: O2_8  and  C6_9 
REMARK    8  A    between atoms: C9_12  and  N2_13 
REMARK    9  A    between atoms: C18_26  and  O3_27 
ROOT
HETATM    1  C6  UNL     1      24.268   2.727  50.313  1.00  0.00     0.103 A 
HETATM    2  C7  UNL     1      24.817   1.958  51.315  1.00  0.00     0.057 A 
HETATM    3  C8  UNL     1      23.972   1.109  51.995  1.00  0.00     0.042 A 
HETATM    4  C9  UNL     1      24.610   0.387  52.980  1.00  0.00     0.144 A 
HETATM    5  N3  UNL     1      23.876  -0.482  53.728  1.00  0.00    -0.223 NA
HETATM    6  C15 UNL     1      22.538  -0.629  53.499  1.00  0.00     0.236 A 
HETATM    7  N4  UNL     1      21.924   0.082  52.531  1.00  0.00    -0.241 NA
HETATM    8  C16 UNL     1      22.621   0.943  51.783  1.00  0.00     0.075 A 
HETATM    9  C17 UNL     1      22.080   1.733  50.761  1.00  0.00     0.072 A 
HETATM   10  C18 UNL     1      22.902   2.607  50.045  1.00  0.00     0.103 A 
ENDROOT
BRANCH   1  11
HETATM   11  O2  UNL     1      25.010   3.622  49.553  1.00  0.00    -0.347 OA
BRANCH  11  12
HETATM   12  C5  UNL     1      26.351   3.875  49.974  1.00  0.00     0.205 C 
BRANCH  12  13
HETATM   13  C4  UNL     1      27.143   4.591  48.926  1.00  0.00     0.296 C 
BRANCH  13  14
HETATM   14  N1  UNL     1      27.382   5.977  49.182  1.00  0.00     0.087 N 
HETATM   15  H8  UNL     1      28.272   6.298  48.757  1.00  0.00     0.316 HD
BRANCH  14  16
HETATM   16  C3  UNL     1      26.282   6.851  48.829  1.00  0.00     0.295 C 
BRANCH  16  17
HETATM   17  C2  UNL     1      26.173   7.856  49.965  1.00  0.00     0.197 C 
BRANCH  17  18
HETATM   18  O1  UNL     1      24.902   8.017  50.452  1.00  0.00    -0.394 OA
HETATM   19  C1  UNL     1      24.339   6.874  50.989  1.00  0.00     0.201 C 
ENDBRANCH  17  18
ENDBRANCH  16  17
ENDBRANCH  14  16
ENDBRANCH  13  14
ENDBRANCH  12  13
ENDBRANCH  11  12
ENDBRANCH   1  11
BRANCH  10  20
HETATM   20  O3  UNL     1      22.326   3.369  49.043  1.00  0.00    -0.353 OA
HETATM   21  C19 UNL     1      22.035   2.694  47.812  1.00  0.00     0.210 C 
ENDBRANCH  10  20
BRANCH   4  22
HETATM   22  N2  UNL     1      25.973   0.336  53.384  1.00  0.00    -0.336 N 
HETATM   23  C10 UNL     1      26.517  -0.945  53.000  1.00  0.00     0.120 A 
HETATM   24  C11 UNL     1      27.782  -1.298  53.263  1.00  0.00     0.087 A 
HETATM   25 CL1  UNL     1      28.514  -2.804  52.841  1.00  0.00    -0.080 Cl
HETATM   26  C12 UNL     1      28.645  -0.352  53.959  1.00  0.00     0.137 A 
HETATM   27  F1  UNL     1      29.953  -0.552  54.305  1.00  0.00    -0.205 F 
HETATM   28  C13 UNL     1      28.106   0.809  54.287  1.00  0.00     0.037 A 
HETATM   29  C14 UNL     1      26.740   1.355  54.072  1.00  0.00     0.160 A 
ENDBRANCH   4  22
TORSDOF 9
ENDMDL
MODEL 6
REMARK VINA RESULT:      -7.3      1.716      2.044
REMARK  9 active torsions:
REMARK  status: ('A' for Active; 'I' for Inactive)
REMARK    1  A    between atoms: O1_2  and  C2_3 
REMARK    2  A    between atoms: C2_3  and  C3_4 
REMARK    3  A    between atoms: C3_4  and  N1_5 
REMARK    4  A    between atoms: N1_5  and  C4_6 
REMARK    5  A    between atoms: C4_6  and  C5_7 
REMARK    6  A    between atoms: C5_7  and  O2_8 
REMARK    7  A    between atoms: O2_8  and  C6_9 
REMARK    8  A    between atoms: C9_12  and  N2_13 
REMARK    9  A    between atoms: C18_26  and  O3_27 
ROOT
HETATM    1  C6  UNL     1      24.651   3.114  51.362  1.00  0.00     0.103 A 
HETATM    2  C7  UNL     1      25.205   2.031  52.008  1.00  0.00     0.057 A 
HETATM    3  C8  UNL     1      24.350   1.209  52.710  1.00  0.00     0.042 A 
HETATM    4  C9  UNL     1      24.995   0.159  53.327  1.00  0.00     0.144 A 
HETATM    5  N3  UNL     1      24.256  -0.719  54.058  1.00  0.00    -0.223 NA
HETATM    6  C15 UNL     1      22.905  -0.556  54.171  1.00  0.00     0.236 A 
HETATM    7  N4  UNL     1      22.284   0.474  53.562  1.00  0.00    -0.241 NA
HETATM    8  C16 UNL     1      22.987   1.352  52.839  1.00  0.00     0.075 A 
HETATM    9  C17 UNL     1      22.441   2.458  52.175  1.00  0.00     0.072 A 
HETATM   10  C18 UNL     1      23.272   3.317  51.451  1.00  0.00     0.103 A 
ENDROOT
BRANCH   1  11
HETATM   11  O2  UNL     1      25.402   4.018  50.622  1.00  0.00    -0.347 OA
BRANCH  11  12
HETATM   12  C5  UNL     1      26.045   3.521  49.447  1.00  0.00     0.205 C 
BRANCH  12  13
HETATM   13  C4  UNL     1      27.167   4.405  49.005  1.00  0.00     0.296 C 
BRANCH  13  14
HETATM   14  N1  UNL     1      27.083   5.763  49.441  1.00  0.00     0.087 N 
HETATM   15  H8  UNL     1      27.980   6.094  49.843  1.00  0.00     0.316 HD
BRANCH  14  16
HETATM   16  C3  UNL     1      26.580   6.685  48.443  1.00  0.00     0.295 C 
BRANCH  16  17
HETATM   17  C2  UNL     1      25.880   7.790  49.217  1.00  0.00     0.197 C 
BRANCH  17  18
HETATM   18  O1  UNL     1      26.554   8.206  50.335  1.00  0.00    -0.394 OA
HETATM   19  C1  UNL     1      27.397   9.283  50.136  1.00  0.00     0.201 C 
ENDBRANCH  17  18
ENDBRANCH  16  17
ENDBRANCH  14  16
ENDBRANCH  13  14
ENDBRANCH  12  13
ENDBRANCH  11  12
ENDBRANCH   1  11
BRANCH  10  20
HETATM   20  O3  UNL     1      22.691   4.398  50.810  1.00  0.00    -0.353 OA
HETATM   21  C19 UNL     1      22.295   5.498  51.640  1.00  0.00     0.210 C 
ENDBRANCH  10  20
BRANCH   4  22
HETATM   22  N2  UNL     1      26.361  -0.240  53.333  1.00  0.00    -0.336 N 
HETATM   23  C10 UNL     1      27.143   0.816  53.931  1.00  0.00     0.120 A 
HETATM   24  C11 UNL     1      28.475   0.740  54.062  1.00  0.00     0.087 A 
HETATM   25 CL1  UNL     1      29.487   1.951  54.761  1.00  0.00    -0.080 Cl
HETATM   26  C12 UNL     1      29.160  -0.456  53.589  1.00  0.00     0.137 A 
HETATM   27  F1  UNL     1      30.506  -0.694  53.644  1.00  0.00    -0.205 F 
HETATM   28  C13 UNL     1      28.403  -1.398  53.053  1.00  0.00     0.037 A 
HETATM   29  C14 UNL     1      26.934  -1.474  52.836  1.00  0.00     0.160 A 
ENDBRANCH   4  22
TORSDOF 9
ENDMDL
MODEL 7
REMARK VINA RESULT:      -7.2      3.572      5.550
REMARK  9 active torsions:
REMARK  status: ('A' for Active; 'I' for Inactive)
REMARK    1  A    between atoms: O1_2  and  C2_3 
REMARK    2  A    between atoms: C2_3  and  C3_4 
REMARK    3  A    between atoms: C3_4  and  N1_5 
REMARK    4  A    between atoms: N1_5  and  C4_6 
REMARK    5  A    between atoms: C4_6  and  C5_7 
REMARK    6  A    between atoms: C5_7  and  O2_8 
REMARK    7  A    between atoms: O2_8  and  C6_9 
REMARK    8  A    between atoms: C9_12  and  N2_13 
REMARK    9  A    between atoms: C18_26  and  O3_27 
ROOT
HETATM    1  C6  UNL     1      26.631   1.474  52.502  1.00  0.00     0.103 A 
HETATM    2  C7  UNL     1      25.306   1.096  52.508  1.00  0.00     0.057 A 
HETATM    3  C8  UNL     1      24.893   0.259  53.522  1.00  0.00     0.042 A 
HETATM    4  C9  UNL     1      23.556  -0.068  53.441  1.00  0.00     0.144 A 
HETATM    5  N3  UNL     1      23.032  -0.897  54.384  1.00  0.00    -0.223 NA
HETATM    6  C15 UNL     1      23.820  -1.388  55.386  1.00  0.00     0.236 A 
HETATM    7  N4  UNL     1      25.126  -1.060  55.456  1.00  0.00    -0.241 NA
HETATM    8  C16 UNL     1      25.667  -0.249  54.541  1.00  0.00     0.075 A 
HETATM    9  C17 UNL     1      27.010   0.146  54.519  1.00  0.00     0.072 A 
HETATM   10  C18 UNL     1      27.471   0.994  53.509  1.00  0.00     0.103 A 
ENDROOT
BRANCH   1  11
HETATM   11  O2  UNL     1      27.173   2.312  51.536  1.00  0.00    -0.347 OA
BRANCH  11  12
HETATM   12  C5  UNL     1      26.359   2.607  50.401  1.00  0.00     0.205 C 
BRANCH  12  13
HETATM   13  C4  UNL     1      26.400   4.059  50.043  1.00  0.00     0.296 C 
BRANCH  13  14
HETATM   14  N1  UNL     1      27.317   4.406  49.003  1.00  0.00     0.087 N 
HETATM   15  H8  UNL     1      27.233   3.769  48.189  1.00  0.00     0.316 HD
BRANCH  14  16
HETATM   16  C3  UNL     1      27.265   5.795  48.594  1.00  0.00     0.295 C 
BRANCH  16  17
HETATM   17  C2  UNL     1      28.666   6.137  48.113  1.00  0.00     0.197 C 
BRANCH  17  18
HETATM   18  O1  UNL     1      29.557   5.099  48.197  1.00  0.00    -0.394 OA
HETATM   19  C1  UNL     1      30.861   5.429  47.880  1.00  0.00     0.201 C 
ENDBRANCH  17  18
ENDBRANCH  16  17
ENDBRANCH  14  16
ENDBRANCH  13  14
ENDBRANCH  12  13
ENDBRANCH  11  12
ENDBRANCH   1  11
BRANCH  10  20
HETATM   20  O3  UNL     1      28.807   1.360  53.525  1.00  0.00    -0.353 OA
HETATM   21  C19 UNL     1      29.760   0.298  53.663  1.00  0.00     0.210 C 
ENDBRANCH  10  20
BRANCH   4  22
HETATM   22  N2  UNL     1      22.537   0.332  52.533  1.00  0.00    -0.336 N 
HETATM   23  C10 UNL     1      21.281  -0.219  52.983  1.00  0.00     0.120 A 
HETATM   24  C11 UNL     1      20.133  -0.030  52.318  1.00  0.00     0.087 A 
HETATM   25 CL1  UNL     1      18.590  -0.651  52.782  1.00  0.00    -0.080 Cl
HETATM   26  C12 UNL     1      20.149   0.767  51.099  1.00  0.00     0.137 A 
HETATM   27  F1  UNL     1      19.074   1.055  50.304  1.00  0.00    -0.205 F 
HETATM   28  C13 UNL     1      21.321   1.256  50.728  1.00  0.00     0.037 A 
HETATM   29  C14 UNL     1      22.670   1.145  51.340  1.00  0.00     0.160 A 
ENDBRANCH   4  22
TORSDOF 9
ENDMDL
MODEL 8
REMARK VINA RESULT:      -7.1      3.678      5.955
REMARK  9 active torsions:
REMARK  status: ('A' for Active; 'I' for Inactive)
REMARK    1  A    between atoms: O1_2  and  C2_3 
REMARK    2  A    between atoms: C2_3  and  C3_4 
REMARK    3  A    between atoms: C3_4  and  N1_5 
REMARK    4  A    between atoms: N1_5  and  C4_6 
REMARK    5  A    between atoms: C4_6  and  C5_7 
REMARK    6  A    between atoms: C5_7  and  O2_8 
REMARK    7  A    between atoms: O2_8  and  C6_9 
REMARK    8  A    between atoms: C9_12  and  N2_13 
REMARK    9  A    between atoms: C18_26  and  O3_27 
ROOT
HETATM    1  C6  UNL     1      26.660   1.939  52.326  1.00  0.00     0.103 A 
HETATM    2  C7  UNL     1      25.391   1.411  52.415  1.00  0.00     0.057 A 
HETATM    3  C8  UNL     1      25.149   0.518  53.435  1.00  0.00     0.042 A 
HETATM    4  C9  UNL     1      23.856   0.040  53.440  1.00  0.00     0.144 A 
HETATM    5  N3  UNL     1      23.498  -0.857  54.398  1.00  0.00    -0.223 NA
HETATM    6  C15 UNL     1      24.405  -1.268  55.331  1.00  0.00     0.236 A 
HETATM    7  N4  UNL     1      25.667  -0.793  55.319  1.00  0.00    -0.241 NA
HETATM    8  C16 UNL     1      26.046   0.088  54.388  1.00  0.00     0.075 A 
HETATM    9  C17 UNL     1      27.331   0.635  54.282  1.00  0.00     0.072 A 
HETATM   10  C18 UNL     1      27.619   1.545  53.262  1.00  0.00     0.103 A 
ENDROOT
BRANCH   1  11
HETATM   11  O2  UNL     1      27.034   2.848  51.344  1.00  0.00    -0.347 OA
BRANCH  11  12
HETATM   12  C5  UNL     1      26.417   2.710  50.063  1.00  0.00     0.205 C 
BRANCH  12  13
HETATM   13  C4  UNL     1      25.411   3.788  49.806  1.00  0.00     0.296 C 
BRANCH  13  14
HETATM   14  N1  UNL     1      25.671   5.033  50.456  1.00  0.00     0.087 N 
HETATM   15  H8  UNL     1      26.301   5.636  49.894  1.00  0.00     0.316 HD
BRANCH  14  16
HETATM   16  C3  UNL     1      24.484   5.753  50.872  1.00  0.00     0.295 C 
BRANCH  16  17
HETATM   17  C2  UNL     1      23.524   4.696  51.396  1.00  0.00     0.197 C 
BRANCH  17  18
HETATM   18  O1  UNL     1      22.220   4.888  51.021  1.00  0.00    -0.394 OA
HETATM   19  C1  UNL     1      21.754   6.179  51.188  1.00  0.00     0.201 C 
ENDBRANCH  17  18
ENDBRANCH  16  17
ENDBRANCH  14  16
ENDBRANCH  13  14
ENDBRANCH  12  13
ENDBRANCH  11  12
ENDBRANCH   1  11
BRANCH  10  20
HETATM   20  O3  UNL     1      28.902   2.062  53.194  1.00  0.00    -0.353 OA
HETATM   21  C19 UNL     1      29.641   2.107  54.422  1.00  0.00     0.210 C 
ENDBRANCH  10  20
BRANCH   4  22
HETATM   22  N2  UNL     1      22.736   0.333  52.612  1.00  0.00    -0.336 N 
HETATM   23  C10 UNL     1      21.560  -0.252  53.211  1.00  0.00     0.120 A 
HETATM   24  C11 UNL     1      20.346  -0.161  52.650  1.00  0.00     0.087 A 
HETATM   25 CL1  UNL     1      18.890  -0.829  53.294  1.00  0.00    -0.080 Cl
HETATM   26  C12 UNL     1      20.205   0.561  51.393  1.00  0.00     0.137 A 
HETATM   27  F1  UNL     1      19.046   0.746  50.690  1.00  0.00    -0.205 F 
HETATM   28  C13 UNL     1      21.308   1.084  50.885  1.00  0.00     0.037 A 
HETATM   29  C14 UNL     1      22.713   1.078  51.370  1.00  0.00     0.160 A 
ENDBRANCH   4  22
TORSDOF 9
ENDMDL
MODEL 9
REMARK VINA RESULT:      -6.9      1.994      3.072
REMARK  9 active torsions:
REMARK  status: ('A' for Active; 'I' for Inactive)
REMARK    1  A    between atoms: O1_2  and  C2_3 
REMARK    2  A    between atoms: C2_3  and  C3_4 
REMARK    3  A    between atoms: C3_4  and  N1_5 
REMARK    4  A    between atoms: N1_5  and  C4_6 
REMARK    5  A    between atoms: C4_6  and  C5_7 
REMARK    6  A    between atoms: C5_7  and  O2_8 
REMARK    7  A    between atoms: O2_8  and  C6_9 
REMARK    8  A    between atoms: C9_12  and  N2_13 
REMARK    9  A    between atoms: C18_26  and  O3_27 
ROOT
HETATM    1  C6  UNL     1      25.738   3.251  49.804  1.00  0.00     0.103 A 
HETATM    2  C7  UNL     1      25.972   2.319  50.790  1.00  0.00     0.057 A 
HETATM    3  C8  UNL     1      24.895   1.917  51.548  1.00  0.00     0.042 A 
HETATM    4  C9  UNL     1      25.228   0.989  52.512  1.00  0.00     0.144 A 
HETATM    5  N3  UNL     1      24.247   0.521  53.331  1.00  0.00    -0.223 NA
HETATM    6  C15 UNL     1      22.963   0.965  53.192  1.00  0.00     0.236 A 
HETATM    7  N4  UNL     1      22.648   1.872  52.246  1.00  0.00    -0.241 NA
HETATM    8  C16 UNL     1      23.593   2.349  51.429  1.00  0.00     0.075 A 
HETATM    9  C17 UNL     1      23.373   3.296  50.421  1.00  0.00     0.072 A 
HETATM   10  C18 UNL     1      24.438   3.731  49.628  1.00  0.00     0.103 A 
ENDROOT
BRANCH   1  11
HETATM   11  O2  UNL     1      26.737   3.739  48.971  1.00  0.00    -0.347 OA
BRANCH  11  12
HETATM   12  C5  UNL     1      27.160   5.086  49.186  1.00  0.00     0.205 C 
BRANCH  12  13
HETATM   13  C4  UNL     1      28.349   5.441  48.349  1.00  0.00     0.296 C 
BRANCH  13  14
HETATM   14  N1  UNL     1      29.252   6.379  48.937  1.00  0.00     0.087 N 
HETATM   15  H8  UNL     1      29.437   6.160  49.934  1.00  0.00     0.316 HD
BRANCH  14  16
HETATM   16  C3  UNL     1      30.485   6.569  48.200  1.00  0.00     0.295 C 
BRANCH  16  17
HETATM   17  C2  UNL     1      31.574   5.930  49.047  1.00  0.00     0.197 C 
BRANCH  17  18
HETATM   18  O1  UNL     1      31.868   4.637  48.701  1.00  0.00    -0.394 OA
HETATM   19  C1  UNL     1      31.889   4.392  47.340  1.00  0.00     0.201 C 
ENDBRANCH  17  18
ENDBRANCH  16  17
ENDBRANCH  14  16
ENDBRANCH  13  14
ENDBRANCH  12  13
ENDBRANCH  11  12
ENDBRANCH   1  11
BRANCH  10  20
HETATM   20  O3  UNL     1      24.176   4.668  48.643  1.00  0.00    -0.353 OA
HETATM   21  C19 UNL     1      22.796   4.962  48.388  1.00  0.00     0.210 C 
ENDBRANCH  10  20
BRANCH   4  22
HETATM   22  N2  UNL     1      26.462   0.355  52.829  1.00  0.00    -0.336 N 
HETATM   23  C10 UNL     1      27.316   1.319  53.482  1.00  0.00     0.120 A 
HETATM   24  C11 UNL     1      28.558   1.022  53.886  1.00  0.00     0.087 A 
HETATM   25 CL1  UNL     1      29.646   2.108  54.672  1.00  0.00    -0.080 Cl
HETATM   26  C12 UNL     1      29.066  -0.326  53.664  1.00  0.00     0.137 A 
HETATM   27  F1  UNL     1      30.304  -0.793  54.011  1.00  0.00    -0.205 F 
HETATM   28  C13 UNL     1      28.248  -1.175  53.067  1.00  0.00     0.037 A 
HETATM   29  C14 UNL     1      26.859  -1.013  52.564  1.00  0.00     0.160 A 
ENDBRANCH   4  22
TORSDOF 9
ENDMDL
