MODEL 1
REMARK VINA RESULT:      -8.9      0.000      0.000
REMARK  3 active torsions:
REMARK  status: ('A' for Active; 'I' for Inactive)
REMARK    1  A    between atoms: N1_1  and  C1_2 
REMARK    2  A    between atoms: C5_8  and  C6_9 
REMARK    3  A    between atoms: C12_17  and  C13_18 
ROOT
HETATM    1  C6  UNL     1      22.113   1.577  51.657  1.00  0.00    -0.017 C 
HETATM    2  C7  UNL     1      21.806   1.038  50.500  1.00  0.00     0.057 C 
HETATM    3  C8  UNL     1      21.614   0.914  49.039  1.00  0.00     0.001 C 
HETATM    4  C9  UNL     1      21.777   1.732  47.969  1.00  0.00     0.088 C 
HETATM    5  N4  UNL     1      22.204   3.061  47.812  1.00  0.00    -0.331 N 
HETATM    6  C10 UNL     1      22.603   3.918  48.915  1.00  0.00     0.247 C 
HETATM    7  N5  UNL     1      23.905   3.733  49.038  1.00  0.00    -0.210 NA
HETATM    8  C11 UNL     1      24.431   4.668  49.990  1.00  0.00     0.075 C 
HETATM    9  C12 UNL     1      25.731   5.011  50.074  1.00  0.00     0.031 C 
HETATM   10  C15 UNL     1      23.222   5.049  50.763  1.00  0.00     0.245 C 
HETATM   11  O1  UNL     1      22.181   4.820  49.852  1.00  0.00    -0.302 OA
HETATM   12  C16 UNL     1      23.014   4.121  51.923  1.00  0.00     0.130 C 
HETATM   13  F1  UNL     1      23.401   4.901  53.001  1.00  0.00    -0.208 F 
HETATM   14  C17 UNL     1      22.612   2.923  52.030  1.00  0.00     0.051 C 
HETATM   15  H7  UNL     1      22.246   3.472  46.873  1.00  0.00     0.168 HD
ENDROOT
BRANCH   1  16
HETATM   16  C5  UNL     1      21.921   0.709  52.836  1.00  0.00     0.074 A 
HETATM   17  C4  UNL     1      22.700  -0.041  53.772  1.00  0.00     0.059 A 
HETATM   18  C1  UNL     1      24.055  -0.109  53.779  1.00  0.00     0.116 A 
HETATM   19  C3  UNL     1      22.085  -0.792  54.693  1.00  0.00     0.071 A 
HETATM   20  N2  UNL     1      24.834  -0.834  54.602  1.00  0.00    -0.229 NA
HETATM   21  C2  UNL     1      24.104  -1.572  55.519  1.00  0.00     0.235 A 
HETATM   22  N3  UNL     1      22.780  -1.543  55.551  1.00  0.00    -0.244 NA
HETATM   23  C18 UNL     1      20.680  -0.510  54.330  1.00  0.00     0.209 A 
HETATM   24  N6  UNL     1      20.745   0.364  53.238  1.00  0.00    -0.282 NA
BRANCH  18  25
HETATM   25  N1  UNL     1      24.889   0.513  52.852  1.00  0.00    -0.286 NA
HETATM   26  H1  UNL     1      25.067   1.532  52.664  1.00  0.00     0.125 HD
HETATM   27  H2  UNL     1      25.285   1.377  52.449  1.00  0.00     0.125 HD
ENDBRANCH  18  25
ENDBRANCH   1  16
BRANCH   9  28
HETATM   28  C13 UNL     1      26.613   4.353  49.109  1.00  0.00     0.014 C 
HETATM   29  C14 UNL     1      27.693   4.942  48.558  1.00  0.00     0.084 C 
HETATM   30 CL1  UNL     1      28.837   6.209  48.261  1.00  0.00    -0.097 Cl
ENDBRANCH   9  28
TORSDOF 3
ENDMDL
MODEL 2
REMARK VINA RESULT:      -8.7      2.191      2.963
REMARK  3 active torsions:
REMARK  status: ('A' for Active; 'I' for Inactive)
REMARK    1  A    between atoms: N1_1  and  C1_2 
REMARK    2  A    between atoms: C5_8  and  C6_9 
REMARK    3  A    between atoms: C12_17  and  C13_18 
ROOT
HETATM    1  C6  UNL     1      23.805   1.959  52.234  1.00  0.00    -0.017 C 
HETATM    2  C7  UNL     1      23.182   1.383  51.233  1.00  0.00     0.057 C 
HETATM    3  C8  UNL     1      22.293   1.228  50.062  1.00  0.00     0.001 C 
HETATM    4  C9  UNL     1      21.465   2.043  49.361  1.00  0.00     0.088 C 
HETATM    5  N4  UNL     1      21.107   3.397  49.469  1.00  0.00    -0.331 N 
HETATM    6  C10 UNL     1      21.629   4.294  50.486  1.00  0.00     0.247 C 
HETATM    7  N5  UNL     1      22.705   4.835  49.945  1.00  0.00    -0.210 NA
HETATM    8  C11 UNL     1      23.200   5.870  50.804  1.00  0.00     0.075 C 
HETATM    9  C12 UNL     1      24.026   6.857  50.402  1.00  0.00     0.031 C 
HETATM   10  C15 UNL     1      22.600   5.512  52.114  1.00  0.00     0.245 C 
HETATM   11  O1  UNL     1      21.454   4.791  51.747  1.00  0.00    -0.302 OA
HETATM   12  C16 UNL     1      23.493   4.577  52.874  1.00  0.00     0.130 C 
HETATM   13  F1  UNL     1      24.026   5.402  53.851  1.00  0.00    -0.208 F 
HETATM   14  C17 UNL     1      23.784   3.348  52.757  1.00  0.00     0.051 C 
HETATM   15  H7  UNL     1      20.441   3.800  48.800  1.00  0.00     0.168 HD
ENDROOT
BRANCH   1  16
HETATM   16  C5  UNL     1      24.695   1.083  53.021  1.00  0.00     0.074 A 
HETATM   17  C4  UNL     1      26.090   0.887  53.266  1.00  0.00     0.059 A 
HETATM   18  C1  UNL     1      27.086   1.631  52.725  1.00  0.00     0.116 A 
HETATM   19  C3  UNL     1      26.490  -0.131  54.037  1.00  0.00     0.071 A 
HETATM   20  N2  UNL     1      28.413   1.461  52.880  1.00  0.00    -0.229 NA
HETATM   21  C2  UNL     1      28.722   0.386  53.696  1.00  0.00     0.235 A 
HETATM   22  N3  UNL     1      27.787  -0.373  54.246  1.00  0.00    -0.244 NA
HETATM   23  C18 UNL     1      25.171  -0.712  54.366  1.00  0.00     0.209 A 
HETATM   24  N6  UNL     1      24.234   0.090  53.704  1.00  0.00    -0.282 NA
BRANCH  18  25
HETATM   25  N1  UNL     1      26.901   2.675  51.820  1.00  0.00    -0.286 NA
HETATM   26  H1  UNL     1      26.143   2.844  51.112  1.00  0.00     0.125 HD
HETATM   27  H2  UNL     1      26.336   3.126  51.084  1.00  0.00     0.125 HD
ENDBRANCH  18  25
ENDBRANCH   1  16
BRANCH   9  28
HETATM   28  C13 UNL     1      24.407   6.814  48.990  1.00  0.00     0.014 C 
HETATM   29  C14 UNL     1      25.577   6.314  48.545  1.00  0.00     0.084 C 
HETATM   30 CL1  UNL     1      27.142   5.579  48.662  1.00  0.00    -0.097 Cl
ENDBRANCH   9  28
TORSDOF 3
ENDMDL
MODEL 3
REMARK VINA RESULT:      -8.6      3.385      4.985
REMARK  3 active torsions:
REMARK  status: ('A' for Active; 'I' for Inactive)
REMARK    1  A    between atoms: N1_1  and  C1_2 
REMARK    2  A    between atoms: C5_8  and  C6_9 
REMARK    3  A    between atoms: C12_17  and  C13_18 
ROOT
HETATM    1  C6  UNL     1      24.584   0.657  52.679  1.00  0.00    -0.017 C 
HETATM    2  C7  UNL     1      23.524   0.148  53.262  1.00  0.00     0.057 C 
HETATM    3  C8  UNL     1      22.117   0.004  53.691  1.00  0.00     0.001 C 
HETATM    4  C9  UNL     1      20.974   0.716  53.518  1.00  0.00     0.088 C 
HETATM    5  N4  UNL     1      20.660   1.908  52.845  1.00  0.00    -0.331 N 
HETATM    6  C10 UNL     1      21.629   2.704  52.112  1.00  0.00     0.247 C 
HETATM    7  N5  UNL     1      21.589   2.239  50.876  1.00  0.00    -0.210 NA
HETATM    8  C11 UNL     1      22.386   3.075  50.027  1.00  0.00     0.075 C 
HETATM    9  C12 UNL     1      22.267   3.123  48.686  1.00  0.00     0.031 C 
HETATM   10  C15 UNL     1      23.284   3.751  50.998  1.00  0.00     0.245 C 
HETATM   11  O1  UNL     1      22.542   3.719  52.187  1.00  0.00    -0.302 OA
HETATM   12  C16 UNL     1      24.529   2.946  51.224  1.00  0.00     0.130 C 
HETATM   13  F1  UNL     1      25.482   3.668  50.523  1.00  0.00    -0.208 F 
HETATM   14  C17 UNL     1      24.782   1.874  51.853  1.00  0.00     0.051 C 
HETATM   15  H7  UNL     1      19.694   2.256  52.856  1.00  0.00     0.168 HD
ENDROOT
BRANCH   1  16
HETATM   16  C5  UNL     1      25.841  -0.092  52.874  1.00  0.00     0.074 A 
HETATM   17  C4  UNL     1      27.162   0.114  53.380  1.00  0.00     0.059 A 
HETATM   18  C1  UNL     1      27.620   1.276  53.908  1.00  0.00     0.116 A 
HETATM   19  C3  UNL     1      28.065  -0.870  53.294  1.00  0.00     0.071 A 
HETATM   20  N2  UNL     1      28.863   1.541  54.352  1.00  0.00    -0.229 NA
HETATM   21  C2  UNL     1      29.719   0.459  54.223  1.00  0.00     0.235 A 
HETATM   22  N3  UNL     1      29.322  -0.696  53.711  1.00  0.00    -0.244 NA
HETATM   23  C18 UNL     1      27.233  -1.898  52.634  1.00  0.00     0.209 A 
HETATM   24  N6  UNL     1      25.980  -1.303  52.448  1.00  0.00    -0.282 NA
BRANCH  18  25
HETATM   25  N1  UNL     1      26.882   2.455  54.003  1.00  0.00    -0.286 NA
HETATM   26  H1  UNL     1      25.887   2.620  54.300  1.00  0.00     0.125 HD
HETATM   27  H2  UNL     1      26.003   2.938  54.246  1.00  0.00     0.125 HD
ENDBRANCH  18  25
ENDBRANCH   1  16
BRANCH   9  28
HETATM   28  C13 UNL     1      21.245   2.242  48.118  1.00  0.00     0.014 C 
HETATM   29  C14 UNL     1      20.033   2.667  47.709  1.00  0.00     0.084 C 
HETATM   30 CL1  UNL     1      18.763   3.807  47.409  1.00  0.00    -0.097 Cl
ENDBRANCH   9  28
TORSDOF 3
ENDMDL
MODEL 4
REMARK VINA RESULT:      -8.2      1.377      2.239
REMARK  3 active torsions:
REMARK  status: ('A' for Active; 'I' for Inactive)
REMARK    1  A    between atoms: N1_1  and  C1_2 
REMARK    2  A    between atoms: C5_8  and  C6_9 
REMARK    3  A    between atoms: C12_17  and  C13_18 
ROOT
HETATM    1  C6  UNL     1      23.257   1.917  51.695  1.00  0.00    -0.017 C 
HETATM    2  C7  UNL     1      22.672   1.414  50.634  1.00  0.00     0.057 C 
HETATM    3  C8  UNL     1      21.873   1.357  49.391  1.00  0.00     0.001 C 
HETATM    4  C9  UNL     1      21.179   2.254  48.645  1.00  0.00     0.088 C 
HETATM    5  N4  UNL     1      20.931   3.632  48.756  1.00  0.00    -0.331 N 
HETATM    6  C10 UNL     1      21.442   4.462  49.833  1.00  0.00     0.247 C 
HETATM    7  N5  UNL     1      22.602   4.916  49.394  1.00  0.00    -0.210 NA
HETATM    8  C11 UNL     1      23.111   5.890  50.315  1.00  0.00     0.075 C 
HETATM    9  C12 UNL     1      24.048   6.807  50.005  1.00  0.00     0.031 C 
HETATM   10  C15 UNL     1      22.375   5.563  51.563  1.00  0.00     0.245 C 
HETATM   11  O1  UNL     1      21.206   4.952  51.087  1.00  0.00    -0.302 OA
HETATM   12  C16 UNL     1      23.119   4.540  52.370  1.00  0.00     0.130 C 
HETATM   13  F1  UNL     1      23.638   5.300  53.407  1.00  0.00    -0.208 F 
HETATM   14  C17 UNL     1      23.312   3.293  52.248  1.00  0.00     0.051 C 
HETATM   15  H7  UNL     1      20.360   4.102  48.044  1.00  0.00     0.168 HD
ENDROOT
BRANCH   1  16
HETATM   16  C5  UNL     1      24.000   0.953  52.531  1.00  0.00     0.074 A 
HETATM   17  C4  UNL     1      23.765   0.036  53.603  1.00  0.00     0.059 A 
HETATM   18  C1  UNL     1      22.559  -0.193  54.180  1.00  0.00     0.116 A 
HETATM   19  C3  UNL     1      24.794  -0.624  54.147  1.00  0.00     0.071 A 
HETATM   20  N2  UNL     1      22.289  -1.004  55.220  1.00  0.00    -0.229 NA
HETATM   21  C2  UNL     1      23.417  -1.642  55.707  1.00  0.00     0.235 A 
HETATM   22  N3  UNL     1      24.617  -1.450  55.182  1.00  0.00    -0.244 NA
HETATM   23  C18 UNL     1      25.890  -0.076  53.321  1.00  0.00     0.209 A 
HETATM   24  N6  UNL     1      25.280   0.824  52.439  1.00  0.00    -0.282 NA
BRANCH  18  25
HETATM   25  N1  UNL     1      21.374   0.456  53.837  1.00  0.00    -0.286 NA
HETATM   26  H1  UNL     1      20.789   1.146  54.373  1.00  0.00     0.125 HD
HETATM   27  H2  UNL     1      20.627   1.128  54.072  1.00  0.00     0.125 HD
ENDBRANCH  18  25
ENDBRANCH   1  16
BRANCH   9  28
HETATM   28  C13 UNL     1      24.541   6.754  48.629  1.00  0.00     0.014 C 
HETATM   29  C14 UNL     1      25.835   6.567  48.302  1.00  0.00     0.084 C 
HETATM   30 CL1  UNL     1      27.526   6.314  48.580  1.00  0.00    -0.097 Cl
ENDBRANCH   9  28
TORSDOF 3
ENDMDL
MODEL 5
REMARK VINA RESULT:      -8.2      1.415      2.272
REMARK  3 active torsions:
REMARK  status: ('A' for Active; 'I' for Inactive)
REMARK    1  A    between atoms: N1_1  and  C1_2 
REMARK    2  A    between atoms: C5_8  and  C6_9 
REMARK    3  A    between atoms: C12_17  and  C13_18 
ROOT
HETATM    1  C6  UNL     1      23.281   2.427  51.219  1.00  0.00    -0.017 C 
HETATM    2  C7  UNL     1      22.897   2.109  50.005  1.00  0.00     0.057 C 
HETATM    3  C8  UNL     1      22.439   2.279  48.610  1.00  0.00     0.001 C 
HETATM    4  C9  UNL     1      22.135   3.335  47.813  1.00  0.00     0.088 C 
HETATM    5  N4  UNL     1      22.131   4.727  47.998  1.00  0.00    -0.331 N 
HETATM    6  C10 UNL     1      22.502   5.380  49.241  1.00  0.00     0.247 C 
HETATM    7  N5  UNL     1      23.799   5.607  49.135  1.00  0.00    -0.210 NA
HETATM    8  C11 UNL     1      24.235   6.407  50.241  1.00  0.00     0.075 C 
HETATM    9  C12 UNL     1      25.375   7.125  50.253  1.00  0.00     0.031 C 
HETATM   10  C15 UNL     1      23.162   6.178  51.242  1.00  0.00     0.245 C 
HETATM   11  O1  UNL     1      22.056   5.846  50.447  1.00  0.00    -0.302 OA
HETATM   12  C16 UNL     1      23.474   4.986  52.097  1.00  0.00     0.130 C 
HETATM   13  F1  UNL     1      23.850   5.570  53.297  1.00  0.00    -0.208 F 
HETATM   14  C17 UNL     1      23.454   3.733  51.902  1.00  0.00     0.051 C 
HETATM   15  H7  UNL     1      21.855   5.340  47.222  1.00  0.00     0.168 HD
ENDROOT
BRANCH   1  16
HETATM   16  C5  UNL     1      23.596   1.290  52.107  1.00  0.00     0.074 A 
HETATM   17  C4  UNL     1      22.954   0.458  53.077  1.00  0.00     0.059 A 
HETATM   18  C1  UNL     1      21.651   0.551  53.441  1.00  0.00     0.116 A 
HETATM   19  C3  UNL     1      23.669  -0.459  53.739  1.00  0.00     0.071 A 
HETATM   20  N2  UNL     1      21.008  -0.170  54.379  1.00  0.00    -0.229 NA
HETATM   21  C2  UNL     1      21.833  -1.091  55.003  1.00  0.00     0.235 A 
HETATM   22  N3  UNL     1      23.112  -1.220  54.686  1.00  0.00    -0.244 NA
HETATM   23  C18 UNL     1      24.992  -0.214  53.128  1.00  0.00     0.209 A 
HETATM   24  N6  UNL     1      24.795   0.826  52.212  1.00  0.00    -0.282 NA
BRANCH  18  25
HETATM   25  N1  UNL     1      20.751   1.497  52.952  1.00  0.00    -0.286 NA
HETATM   26  H1  UNL     1      20.090   1.458  52.136  1.00  0.00     0.125 HD
HETATM   27  H2  UNL     1      20.020   1.763  52.275  1.00  0.00     0.125 HD
ENDBRANCH  18  25
ENDBRANCH   1  16
BRANCH   9  28
HETATM   28  C13 UNL     1      26.178   7.040  49.032  1.00  0.00     0.014 C 
HETATM   29  C14 UNL     1      26.886   5.950  48.675  1.00  0.00     0.084 C 
HETATM   30 CL1  UNL     1      27.512   4.341  48.820  1.00  0.00    -0.097 Cl
ENDBRANCH   9  28
TORSDOF 3
ENDMDL
MODEL 6
REMARK VINA RESULT:      -7.8      3.899      5.504
REMARK  3 active torsions:
REMARK  status: ('A' for Active; 'I' for Inactive)
REMARK    1  A    between atoms: N1_1  and  C1_2 
REMARK    2  A    between atoms: C5_8  and  C6_9 
REMARK    3  A    between atoms: C12_17  and  C13_18 
ROOT
HETATM    1  C6  UNL     1      23.809   2.246  52.143  1.00  0.00    -0.017 C 
HETATM    2  C7  UNL     1      23.996   3.518  52.408  1.00  0.00     0.057 C 
HETATM    3  C8  UNL     1      23.831   4.985  52.335  1.00  0.00     0.001 C 
HETATM    4  C9  UNL     1      23.066   5.838  51.607  1.00  0.00     0.088 C 
HETATM    5  N4  UNL     1      22.099   5.666  50.604  1.00  0.00    -0.331 N 
HETATM    6  C10 UNL     1      21.683   4.371  50.093  1.00  0.00     0.247 C 
HETATM    7  N5  UNL     1      20.660   4.018  50.850  1.00  0.00    -0.210 NA
HETATM    8  C11 UNL     1      20.063   2.829  50.317  1.00  0.00     0.075 C 
HETATM    9  C12 UNL     1      18.811   2.419  50.600  1.00  0.00     0.031 C 
HETATM   10  C15 UNL     1      21.158   2.266  49.486  1.00  0.00     0.245 C 
HETATM   11  O1  UNL     1      21.919   3.398  49.162  1.00  0.00    -0.302 OA
HETATM   12  C16 UNL     1      22.031   1.356  50.298  1.00  0.00     0.130 C 
HETATM   13  F1  UNL     1      21.652   0.101  49.848  1.00  0.00    -0.208 F 
HETATM   14  C17 UNL     1      22.910   1.546  51.192  1.00  0.00     0.051 C 
HETATM   15  H7  UNL     1      21.644   6.490  50.194  1.00  0.00     0.168 HD
ENDROOT
BRANCH   1  16
HETATM   16  C5  UNL     1      24.648   1.304  52.910  1.00  0.00     0.074 A 
HETATM   17  C4  UNL     1      26.029   1.034  53.161  1.00  0.00     0.059 A 
HETATM   18  C1  UNL     1      27.065   1.746  52.652  1.00  0.00     0.116 A 
HETATM   19  C3  UNL     1      26.373  -0.026  53.902  1.00  0.00     0.071 A 
HETATM   20  N2  UNL     1      28.381   1.509  52.814  1.00  0.00    -0.229 NA
HETATM   21  C2  UNL     1      28.631   0.395  53.597  1.00  0.00     0.235 A 
HETATM   22  N3  UNL     1      27.655  -0.336  54.114  1.00  0.00    -0.244 NA
HETATM   23  C18 UNL     1      25.025  -0.554  54.200  1.00  0.00     0.209 A 
HETATM   24  N6  UNL     1      24.133   0.312  53.556  1.00  0.00    -0.282 NA
BRANCH  18  25
HETATM   25  N1  UNL     1      26.939   2.826  51.780  1.00  0.00    -0.286 NA
HETATM   26  H1  UNL     1      27.610   3.221  51.073  1.00  0.00     0.125 HD
HETATM   27  H2  UNL     1      27.331   3.414  51.028  1.00  0.00     0.125 HD
ENDBRANCH  18  25
ENDBRANCH   1  16
BRANCH   9  28
HETATM   28  C13 UNL     1      18.065   3.281  51.517  1.00  0.00     0.014 C 
HETATM   29  C14 UNL     1      16.891   3.868  51.207  1.00  0.00     0.084 C 
HETATM   30 CL1  UNL     1      15.528   4.276  50.219  1.00  0.00    -0.097 Cl
ENDBRANCH   9  28
TORSDOF 3
ENDMDL
MODEL 7
REMARK VINA RESULT:      -7.7      4.139      8.228
REMARK  3 active torsions:
REMARK  status: ('A' for Active; 'I' for Inactive)
REMARK    1  A    between atoms: N1_1  and  C1_2 
REMARK    2  A    between atoms: C5_8  and  C6_9 
REMARK    3  A    between atoms: C12_17  and  C13_18 
ROOT
HETATM    1  C6  UNL     1      24.811   5.801  49.588  1.00  0.00    -0.017 C 
HETATM    2  C7  UNL     1      25.767   4.908  49.490  1.00  0.00     0.057 C 
HETATM    3  C8  UNL     1      26.558   3.692  49.775  1.00  0.00     0.001 C 
HETATM    4  C9  UNL     1      26.470   2.664  50.657  1.00  0.00     0.088 C 
HETATM    5  N4  UNL     1      25.569   2.333  51.682  1.00  0.00    -0.331 N 
HETATM    6  C10 UNL     1      24.410   3.137  52.033  1.00  0.00     0.247 C 
HETATM    7  N5  UNL     1      23.425   2.657  51.296  1.00  0.00    -0.210 NA
HETATM    8  C11 UNL     1      22.191   3.269  51.693  1.00  0.00     0.075 C 
HETATM    9  C12 UNL     1      20.973   2.756  51.430  1.00  0.00     0.031 C 
HETATM   10  C15 UNL     1      22.654   4.506  52.373  1.00  0.00     0.245 C 
HETATM   11  O1  UNL     1      23.943   4.164  52.805  1.00  0.00    -0.302 OA
HETATM   12  C16 UNL     1      22.794   5.633  51.393  1.00  0.00     0.130 C 
HETATM   13  F1  UNL     1      21.691   6.421  51.687  1.00  0.00    -0.208 F 
HETATM   14  C17 UNL     1      23.633   5.910  50.484  1.00  0.00     0.051 C 
HETATM   15  H7  UNL     1      25.716   1.476  52.228  1.00  0.00     0.168 HD
ENDROOT
BRANCH   1  16
HETATM   16  C5  UNL     1      24.902   6.938  48.650  1.00  0.00     0.074 A 
HETATM   17  C4  UNL     1      25.480   8.244  48.578  1.00  0.00     0.059 A 
HETATM   18  C1  UNL     1      26.233   8.817  49.550  1.00  0.00     0.116 A 
HETATM   19  C3  UNL     1      25.240   9.016  47.511  1.00  0.00     0.071 A 
HETATM   20  N2  UNL     1      26.759  10.055  49.556  1.00  0.00    -0.229 NA
HETATM   21  C2  UNL     1      26.457  10.771  48.410  1.00  0.00     0.235 A 
HETATM   22  N3  UNL     1      25.724  10.259  47.433  1.00  0.00    -0.244 NA
HETATM   23  C18 UNL     1      24.371   8.098  46.745  1.00  0.00     0.209 A 
HETATM   24  N6  UNL     1      24.261   6.944  47.531  1.00  0.00    -0.282 NA
BRANCH  18  25
HETATM   25  N1  UNL     1      26.524   8.232  50.781  1.00  0.00    -0.286 NA
HETATM   26  H1  UNL     1      27.446   7.998  51.230  1.00  0.00     0.125 HD
HETATM   27  H2  UNL     1      27.220   7.912  51.473  1.00  0.00     0.125 HD
ENDBRANCH  18  25
ENDBRANCH   1  16
BRANCH   9  28
HETATM   28  C13 UNL     1      20.975   1.496  50.686  1.00  0.00     0.014 C 
HETATM   29  C14 UNL     1      20.020   0.552  50.809  1.00  0.00     0.084 C 
HETATM   30 CL1  UNL     1      18.570  -0.175  51.416  1.00  0.00    -0.097 Cl
ENDBRANCH   9  28
TORSDOF 3
ENDMDL
MODEL 8
REMARK VINA RESULT:      -7.7      3.339      4.106
REMARK  3 active torsions:
REMARK  status: ('A' for Active; 'I' for Inactive)
REMARK    1  A    between atoms: N1_1  and  C1_2 
REMARK    2  A    between atoms: C5_8  and  C6_9 
REMARK    3  A    between atoms: C12_17  and  C13_18 
ROOT
HETATM    1  C6  UNL     1      20.867   0.715  52.980  1.00  0.00    -0.017 C 
HETATM    2  C7  UNL     1      19.867  -0.084  52.692  1.00  0.00     0.057 C 
HETATM    3  C8  UNL     1      18.565  -0.530  52.153  1.00  0.00     0.001 C 
HETATM    4  C9  UNL     1      17.539   0.059  51.486  1.00  0.00     0.088 C 
HETATM    5  N4  UNL     1      17.295   1.364  51.029  1.00  0.00    -0.331 N 
HETATM    6  C10 UNL     1      18.218   2.471  51.209  1.00  0.00     0.247 C 
HETATM    7  N5  UNL     1      18.981   2.459  50.130  1.00  0.00    -0.210 NA
HETATM    8  C11 UNL     1      19.817   3.623  50.126  1.00  0.00     0.075 C 
HETATM    9  C12 UNL     1      20.422   4.116  49.027  1.00  0.00     0.031 C 
HETATM   10  C15 UNL     1      19.813   4.024  51.556  1.00  0.00     0.245 C 
HETATM   11  O1  UNL     1      18.602   3.497  52.026  1.00  0.00    -0.302 OA
HETATM   12  C16 UNL     1      20.919   3.342  52.305  1.00  0.00     0.130 C 
HETATM   13  F1  UNL     1      21.834   4.367  52.484  1.00  0.00    -0.208 F 
HETATM   14  C17 UNL     1      21.103   2.156  52.717  1.00  0.00     0.051 C 
HETATM   15  H7  UNL     1      16.420   1.571  50.535  1.00  0.00     0.168 HD
ENDROOT
BRANCH   1  16
HETATM   16  C5  UNL     1      21.983   0.097  53.724  1.00  0.00     0.074 A 
HETATM   17  C4  UNL     1      23.403  -0.048  53.633  1.00  0.00     0.059 A 
HETATM   18  C1  UNL     1      24.176   0.474  52.648  1.00  0.00     0.116 A 
HETATM   19  C3  UNL     1      24.051  -0.794  54.535  1.00  0.00     0.071 A 
HETATM   20  N2  UNL     1      25.504   0.329  52.486  1.00  0.00    -0.229 NA
HETATM   21  C2  UNL     1      26.081  -0.457  53.471  1.00  0.00     0.235 A 
HETATM   22  N3  UNL     1      25.369  -0.992  54.451  1.00  0.00    -0.244 NA
HETATM   23  C18 UNL     1      22.902  -1.218  55.362  1.00  0.00     0.209 A 
HETATM   24  N6  UNL     1      21.777  -0.632  54.769  1.00  0.00    -0.282 NA
BRANCH  18  25
HETATM   25  N1  UNL     1      23.698   1.200  51.559  1.00  0.00    -0.286 NA
HETATM   26  H1  UNL     1      24.209   1.743  50.818  1.00  0.00     0.125 HD
HETATM   27  H2  UNL     1      23.882   1.769  50.718  1.00  0.00     0.125 HD
ENDBRANCH  18  25
ENDBRANCH   1  16
BRANCH   9  28
HETATM   28  C13 UNL     1      20.174   3.371  47.792  1.00  0.00     0.014 C 
HETATM   29  C14 UNL     1      20.843   3.583  46.641  1.00  0.00     0.084 C 
HETATM   30 CL1  UNL     1      21.999   4.327  45.586  1.00  0.00    -0.097 Cl
ENDBRANCH   9  28
TORSDOF 3
ENDMDL
MODEL 9
REMARK VINA RESULT:      -7.6      6.844     10.680
REMARK  3 active torsions:
REMARK  status: ('A' for Active; 'I' for Inactive)
REMARK    1  A    between atoms: N1_1  and  C1_2 
REMARK    2  A    between atoms: C5_8  and  C6_9 
REMARK    3  A    between atoms: C12_17  and  C13_18 
ROOT
HETATM    1  C6  UNL     1      30.236   7.841  47.001  1.00  0.00    -0.017 C 
HETATM    2  C7  UNL     1      30.476   7.907  45.712  1.00  0.00     0.057 C 
HETATM    3  C8  UNL     1      31.241   7.986  44.450  1.00  0.00     0.001 C 
HETATM    4  C9  UNL     1      32.556   8.055  44.118  1.00  0.00     0.088 C 
HETATM    5  N4  UNL     1      33.749   8.080  44.858  1.00  0.00    -0.331 N 
HETATM    6  C10 UNL     1      33.803   8.028  46.309  1.00  0.00     0.247 C 
HETATM    7  N5  UNL     1      33.891   6.744  46.602  1.00  0.00    -0.210 NA
HETATM    8  C11 UNL     1      34.126   6.592  48.008  1.00  0.00     0.075 C 
HETATM    9  C12 UNL     1      34.634   5.480  48.575  1.00  0.00     0.031 C 
HETATM   10  C15 UNL     1      33.654   7.890  48.552  1.00  0.00     0.245 C 
HETATM   11  O1  UNL     1      33.804   8.760  47.463  1.00  0.00    -0.302 OA
HETATM   12  C16 UNL     1      32.192   7.832  48.881  1.00  0.00     0.130 C 
HETATM   13  F1  UNL     1      32.200   7.766  50.266  1.00  0.00    -0.208 F 
HETATM   14  C17 UNL     1      31.132   7.825  48.184  1.00  0.00     0.051 C 
HETATM   15  H7  UNL     1      34.648   8.135  44.366  1.00  0.00     0.168 HD
ENDROOT
BRANCH   1  16
HETATM   16  C5  UNL     1      28.811   7.788  47.383  1.00  0.00     0.074 A 
HETATM   17  C4  UNL     1      27.873   6.875  47.959  1.00  0.00     0.059 A 
HETATM   18  C1  UNL     1      28.166   5.616  48.371  1.00  0.00     0.116 A 
HETATM   19  C3  UNL     1      26.587   7.227  48.066  1.00  0.00     0.071 A 
HETATM   20  N2  UNL     1      27.317   4.700  48.873  1.00  0.00    -0.229 NA
HETATM   21  C2  UNL     1      26.013   5.162  48.946  1.00  0.00     0.235 A 
HETATM   22  N3  UNL     1      25.675   6.381  48.553  1.00  0.00    -0.244 NA
HETATM   23  C18 UNL     1      26.662   8.581  47.476  1.00  0.00     0.209 A 
HETATM   24  N6  UNL     1      28.005   8.761  47.124  1.00  0.00    -0.282 NA
BRANCH  18  25
HETATM   25  N1  UNL     1      29.417   5.012  48.263  1.00  0.00    -0.286 NA
HETATM   26  H1  UNL     1      29.715   4.133  47.768  1.00  0.00     0.125 HD
HETATM   27  H2  UNL     1      30.012   4.256  47.888  1.00  0.00     0.125 HD
ENDBRANCH  18  25
ENDBRANCH   1  16
BRANCH   9  28
HETATM   28  C13 UNL     1      34.941   4.392  47.646  1.00  0.00     0.014 C 
HETATM   29  C14 UNL     1      34.305   3.203  47.646  1.00  0.00     0.084 C 
HETATM   30 CL1  UNL     1      33.165   2.008  48.170  1.00  0.00    -0.097 Cl
ENDBRANCH   9  28
TORSDOF 3
ENDMDL
