MODEL 1
REMARK VINA RESULT:      -8.1      0.000      0.000
REMARK  3 active torsions:
REMARK  status: ('A' for Active; 'I' for Inactive)
REMARK    1  A    between atoms: C4_5  and  C5_6 
REMARK    2  A    between atoms: C5_6  and  N1_7 
REMARK    3  A    between atoms: C11_15  and  N4_16 
ROOT
HETATM    1  N1  UNL     1      25.035   2.543  51.263  1.00  0.00    -0.337 N 
HETATM    2  C6  UNL     1      25.946   2.719  50.263  1.00  0.00     0.094 A 
HETATM    3  C7  UNL     1      25.890   4.009  49.780  1.00  0.00     0.036 A 
HETATM    4  C8  UNL     1      24.903   4.619  50.528  1.00  0.00     0.055 A 
HETATM    5  C9  UNL     1      24.379   3.726  51.435  1.00  0.00     0.140 A 
HETATM    6  N2  UNL     1      23.446   3.928  52.297  1.00  0.00    -0.252 NA
HETATM    7  C10 UNL     1      22.814   5.206  52.407  1.00  0.00     0.274 A 
HETATM    8  N3  UNL     1      23.357   6.157  51.456  1.00  0.00    -0.357 N 
HETATM    9  C11 UNL     1      24.395   5.842  50.533  1.00  0.00     0.122 A 
HETATM   10  H9  UNL     1      22.961   7.117  51.457  1.00  0.00     0.162 HD
ENDROOT
BRANCH   1  11
HETATM   11  C5  UNL     1      24.879   1.268  51.954  1.00  0.00     0.168 C 
BRANCH  11  12
HETATM   12  C4  UNL     1      26.207   0.831  52.453  1.00  0.00    -0.038 A 
HETATM   13  C3  UNL     1      27.162   1.701  52.953  1.00  0.00     0.010 A 
HETATM   14  C2  UNL     1      28.378   1.167  53.393  1.00  0.00     0.026 A 
HETATM   15  C1  UNL     1      28.641  -0.200  53.338  1.00  0.00     0.055 A 
HETATM   16 CL1  UNL     1      30.200  -0.742  53.919  1.00  0.00    -0.083 Cl
HETATM   17  C18 UNL     1      27.670  -1.037  52.836  1.00  0.00     0.056 A 
HETATM   18  C17 UNL     1      26.462  -0.539  52.395  1.00  0.00     0.034 A 
HETATM   19 CL2  UNL     1      28.019  -2.764  52.775  1.00  0.00    -0.083 Cl
ENDBRANCH  11  12
ENDBRANCH   1  11
BRANCH   9  20
HETATM   20  N4  UNL     1      24.930   6.772  49.600  1.00  0.00    -0.316 N 
HETATM   21  C12 UNL     1      24.381   6.938  48.293  1.00  0.00     0.110 C 
HETATM   22  C13 UNL     1      25.106   7.582  47.417  1.00  0.00    -0.007 C 
HETATM   23  C14 UNL     1      25.934   8.494  47.890  1.00  0.00     0.034 C 
HETATM   24  C15 UNL     1      26.574   8.407  49.199  1.00  0.00     0.027 C 
HETATM   25 BR1  UNL     1      28.060   9.453  49.711  1.00  0.00    -0.050 Br
HETATM   26  C16 UNL     1      26.054   7.523  50.067  1.00  0.00     0.117 C 
ENDBRANCH   9  20
TORSDOF 3
ENDMDL
MODEL 2
REMARK VINA RESULT:      -8.0      3.958      7.289
REMARK  3 active torsions:
REMARK  status: ('A' for Active; 'I' for Inactive)
REMARK    1  A    between atoms: C4_5  and  C5_6 
REMARK    2  A    between atoms: C5_6  and  N1_7 
REMARK    3  A    between atoms: C11_15  and  N4_16 
ROOT
HETATM    1  N1  UNL     1      25.354   4.867  49.550  1.00  0.00    -0.337 N 
HETATM    2  C6  UNL     1      26.248   3.869  49.290  1.00  0.00     0.094 A 
HETATM    3  C7  UNL     1      26.209   2.913  50.281  1.00  0.00     0.036 A 
HETATM    4  C8  UNL     1      25.250   3.367  51.166  1.00  0.00     0.055 A 
HETATM    5  C9  UNL     1      24.727   4.560  50.721  1.00  0.00     0.140 A 
HETATM    6  N2  UNL     1      23.817   5.282  51.276  1.00  0.00    -0.252 NA
HETATM    7  C10 UNL     1      23.212   4.879  52.508  1.00  0.00     0.274 A 
HETATM    8  N3  UNL     1      23.756   3.623  52.987  1.00  0.00    -0.357 N 
HETATM    9  C11 UNL     1      24.767   2.891  52.303  1.00  0.00     0.122 A 
HETATM   10  H9  UNL     1      23.380   3.246  53.879  1.00  0.00     0.162 HD
ENDROOT
BRANCH   1  11
HETATM   11  C5  UNL     1      25.187   6.010  48.660  1.00  0.00     0.168 C 
BRANCH  11  12
HETATM   12  C4  UNL     1      26.292   6.970  48.906  1.00  0.00    -0.038 A 
HETATM   13  C3  UNL     1      26.246   7.962  49.872  1.00  0.00     0.010 A 
HETATM   14  C2  UNL     1      27.354   8.806  50.007  1.00  0.00     0.026 A 
HETATM   15  C1  UNL     1      28.482   8.670  49.202  1.00  0.00     0.055 A 
HETATM   16 CL1  UNL     1      29.801   9.788  49.470  1.00  0.00    -0.083 Cl
HETATM   17  C18 UNL     1      28.496   7.673  48.252  1.00  0.00     0.056 A 
HETATM   18  C17 UNL     1      27.419   6.826  48.096  1.00  0.00     0.034 A 
HETATM   19 CL2  UNL     1      29.932   7.514  47.243  1.00  0.00    -0.083 Cl
ENDBRANCH  11  12
ENDBRANCH   1  11
BRANCH   9  20
HETATM   20  N4  UNL     1      25.302   1.659  52.770  1.00  0.00    -0.316 N 
HETATM   21  C12 UNL     1      24.594   0.425  52.641  1.00  0.00     0.110 C 
HETATM   22  C13 UNL     1      25.020  -0.585  53.351  1.00  0.00    -0.007 C 
HETATM   23  C14 UNL     1      26.308  -0.607  53.638  1.00  0.00     0.034 C 
HETATM   24  C15 UNL     1      27.117   0.593  53.821  1.00  0.00     0.027 C 
HETATM   25 BR1  UNL     1      28.821   0.594  54.637  1.00  0.00    -0.050 Br
HETATM   26  C16 UNL     1      26.595   1.747  53.374  1.00  0.00     0.117 C 
ENDBRANCH   9  20
TORSDOF 3
ENDMDL
MODEL 3
REMARK VINA RESULT:      -7.9      4.195      7.325
REMARK  3 active torsions:
REMARK  status: ('A' for Active; 'I' for Inactive)
REMARK    1  A    between atoms: C4_5  and  C5_6 
REMARK    2  A    between atoms: C5_6  and  N1_7 
REMARK    3  A    between atoms: C11_15  and  N4_16 
ROOT
HETATM    1  N1  UNL     1      25.737   4.711  49.540  1.00  0.00    -0.337 N 
HETATM    2  C6  UNL     1      26.501   3.594  49.358  1.00  0.00     0.094 A 
HETATM    3  C7  UNL     1      26.301   2.699  50.386  1.00  0.00     0.036 A 
HETATM    4  C8  UNL     1      25.380   3.315  51.211  1.00  0.00     0.055 A 
HETATM    5  C9  UNL     1      25.034   4.544  50.695  1.00  0.00     0.140 A 
HETATM    6  N2  UNL     1      24.209   5.404  51.182  1.00  0.00    -0.252 NA
HETATM    7  C10 UNL     1      23.513   5.141  52.404  1.00  0.00     0.274 A 
HETATM    8  N3  UNL     1      23.869   3.849  52.956  1.00  0.00    -0.357 N 
HETATM    9  C11 UNL     1      24.798   2.959  52.346  1.00  0.00     0.122 A 
HETATM   10  H9  UNL     1      23.415   3.566  53.847  1.00  0.00     0.162 HD
ENDROOT
BRANCH   1  11
HETATM   11  C5  UNL     1      25.755   5.824  48.597  1.00  0.00     0.168 C 
BRANCH  11  12
HETATM   12  C4  UNL     1      27.120   6.404  48.570  1.00  0.00    -0.038 A 
HETATM   13  C3  UNL     1      28.255   5.680  48.238  1.00  0.00     0.010 A 
HETATM   14  C2  UNL     1      29.488   6.341  48.249  1.00  0.00     0.026 A 
HETATM   15  C1  UNL     1      29.595   7.689  48.582  1.00  0.00     0.055 A 
HETATM   16 CL1  UNL     1      31.194   8.399  48.559  1.00  0.00    -0.083 Cl
HETATM   17  C18 UNL     1      28.448   8.379  48.907  1.00  0.00     0.056 A 
HETATM   18  C17 UNL     1      27.218   7.755  48.905  1.00  0.00     0.034 A 
HETATM   19 CL2  UNL     1      28.601  10.085  49.325  1.00  0.00    -0.083 Cl
ENDBRANCH  11  12
ENDBRANCH   1  11
BRANCH   9  20
HETATM   20  N4  UNL     1      25.149   1.691  52.885  1.00  0.00    -0.316 N 
HETATM   21  C12 UNL     1      24.267   0.570  52.825  1.00  0.00     0.110 C 
HETATM   22  C13 UNL     1      24.543  -0.450  53.594  1.00  0.00    -0.007 C 
HETATM   23  C14 UNL     1      25.815  -0.644  53.887  1.00  0.00     0.034 C 
HETATM   24  C15 UNL     1      26.793   0.433  54.002  1.00  0.00     0.027 C 
HETATM   25 BR1  UNL     1      28.483   0.230  54.822  1.00  0.00    -0.050 Br
HETATM   26  C16 UNL     1      26.444   1.624  53.487  1.00  0.00     0.117 C 
ENDBRANCH   9  20
TORSDOF 3
ENDMDL
MODEL 4
REMARK VINA RESULT:      -7.8      1.824      2.622
REMARK  3 active torsions:
REMARK  status: ('A' for Active; 'I' for Inactive)
REMARK    1  A    between atoms: C4_5  and  C5_6 
REMARK    2  A    between atoms: C5_6  and  N1_7 
REMARK    3  A    between atoms: C11_15  and  N4_16 
ROOT
HETATM    1  N1  UNL     1      25.499   3.336  50.549  1.00  0.00    -0.337 N 
HETATM    2  C6  UNL     1      26.481   3.097  49.632  1.00  0.00     0.094 A 
HETATM    3  C7  UNL     1      26.856   4.268  49.009  1.00  0.00     0.036 A 
HETATM    4  C8  UNL     1      26.060   5.239  49.584  1.00  0.00     0.055 A 
HETATM    5  C9  UNL     1      25.230   4.672  50.524  1.00  0.00     0.140 A 
HETATM    6  N2  UNL     1      24.353   5.257  51.262  1.00  0.00    -0.252 NA
HETATM    7  C10 UNL     1      24.140   6.669  51.168  1.00  0.00     0.274 A 
HETATM    8  N3  UNL     1      25.009   7.277  50.180  1.00  0.00    -0.357 N 
HETATM    9  C11 UNL     1      25.954   6.547  49.406  1.00  0.00     0.122 A 
HETATM   10  H9  UNL     1      24.929   8.303  50.037  1.00  0.00     0.162 HD
ENDROOT
BRANCH   1  11
HETATM   11  C5  UNL     1      24.914   2.270  51.355  1.00  0.00     0.168 C 
BRANCH  11  12
HETATM   12  C4  UNL     1      26.011   1.479  51.966  1.00  0.00    -0.038 A 
HETATM   13  C3  UNL     1      26.090   0.097  51.899  1.00  0.00     0.010 A 
HETATM   14  C2  UNL     1      27.175  -0.534  52.516  1.00  0.00     0.026 A 
HETATM   15  C1  UNL     1      28.161   0.188  53.185  1.00  0.00     0.055 A 
HETATM   16 CL1  UNL     1      29.467  -0.719  53.915  1.00  0.00    -0.083 Cl
HETATM   17  C18 UNL     1      28.053   1.560  53.232  1.00  0.00     0.056 A 
HETATM   18  C17 UNL     1      26.995   2.210  52.633  1.00  0.00     0.034 A 
HETATM   19 CL2  UNL     1      29.310   2.458  54.081  1.00  0.00    -0.083 Cl
ENDBRANCH  11  12
ENDBRANCH   1  11
BRANCH   9  20
HETATM   20  N4  UNL     1      26.808   7.141  48.436  1.00  0.00    -0.316 N 
HETATM   21  C12 UNL     1      28.227   7.175  48.591  1.00  0.00     0.110 C 
HETATM   22  C13 UNL     1      28.894   7.987  47.816  1.00  0.00    -0.007 C 
HETATM   23  C14 UNL     1      28.368   8.243  46.633  1.00  0.00     0.034 C 
HETATM   24  C15 UNL     1      26.933   8.265  46.372  1.00  0.00     0.027 C 
HETATM   25 BR1  UNL     1      26.159   9.032  44.829  1.00  0.00    -0.050 Br
HETATM   26  C16 UNL     1      26.142   7.699  47.300  1.00  0.00     0.117 C 
ENDBRANCH   9  20
TORSDOF 3
ENDMDL
MODEL 5
REMARK VINA RESULT:      -7.7      1.342      2.110
REMARK  3 active torsions:
REMARK  status: ('A' for Active; 'I' for Inactive)
REMARK    1  A    between atoms: C4_5  and  C5_6 
REMARK    2  A    between atoms: C5_6  and  N1_7 
REMARK    3  A    between atoms: C11_15  and  N4_16 
ROOT
HETATM    1  N1  UNL     1      24.852   2.441  51.390  1.00  0.00    -0.337 N 
HETATM    2  C6  UNL     1      25.810   2.618  50.434  1.00  0.00     0.094 A 
HETATM    3  C7  UNL     1      25.790   3.913  49.964  1.00  0.00     0.036 A 
HETATM    4  C8  UNL     1      24.776   4.526  50.673  1.00  0.00     0.055 A 
HETATM    5  C9  UNL     1      24.201   3.628  51.544  1.00  0.00     0.140 A 
HETATM    6  N2  UNL     1      23.231   3.831  52.365  1.00  0.00    -0.252 NA
HETATM    7  C10 UNL     1      22.608   5.115  52.460  1.00  0.00     0.274 A 
HETATM    8  N3  UNL     1      23.205   6.070  51.546  1.00  0.00    -0.357 N 
HETATM    9  C11 UNL     1      24.280   5.754  50.669  1.00  0.00     0.122 A 
HETATM   10  H9  UNL     1      22.819   7.034  51.540  1.00  0.00     0.162 HD
ENDROOT
BRANCH   1  11
HETATM   11  C5  UNL     1      24.651   1.160  52.058  1.00  0.00     0.168 C 
BRANCH  11  12
HETATM   12  C4  UNL     1      25.971   0.634  52.485  1.00  0.00    -0.038 A 
HETATM   13  C3  UNL     1      26.352  -0.691  52.344  1.00  0.00     0.010 A 
HETATM   14  C2  UNL     1      27.625  -1.065  52.786  1.00  0.00     0.026 A 
HETATM   15  C1  UNL     1      28.503  -0.146  53.356  1.00  0.00     0.055 A 
HETATM   16 CL1  UNL     1      30.067  -0.739  53.869  1.00  0.00    -0.083 Cl
HETATM   17  C18 UNL     1      28.094   1.163  53.482  1.00  0.00     0.056 A 
HETATM   18  C17 UNL     1      26.844   1.561  53.055  1.00  0.00     0.034 A 
HETATM   19 CL2  UNL     1      29.217   2.313  54.205  1.00  0.00    -0.083 Cl
ENDBRANCH  11  12
ENDBRANCH   1  11
BRANCH   9  20
HETATM   20  N4  UNL     1      24.868   6.688  49.771  1.00  0.00    -0.316 N 
HETATM   21  C12 UNL     1      26.017   7.459  50.123  1.00  0.00     0.110 C 
HETATM   22  C13 UNL     1      26.302   8.486  49.367  1.00  0.00    -0.007 C 
HETATM   23  C14 UNL     1      25.939   8.408  48.100  1.00  0.00     0.034 C 
HETATM   24  C15 UNL     1      24.767   7.673  47.637  1.00  0.00     0.027 C 
HETATM   25 BR1  UNL     1      23.999   7.895  45.926  1.00  0.00    -0.050 Br
HETATM   26  C16 UNL     1      24.225   6.795  48.499  1.00  0.00     0.117 C 
ENDBRANCH   9  20
TORSDOF 3
ENDMDL
MODEL 6
REMARK VINA RESULT:      -7.7      4.957      7.206
REMARK  3 active torsions:
REMARK  status: ('A' for Active; 'I' for Inactive)
REMARK    1  A    between atoms: C4_5  and  C5_6 
REMARK    2  A    between atoms: C5_6  and  N1_7 
REMARK    3  A    between atoms: C11_15  and  N4_16 
ROOT
HETATM    1  N1  UNL     1      23.960   1.866  51.968  1.00  0.00    -0.337 N 
HETATM    2  C6  UNL     1      23.557   1.414  53.192  1.00  0.00     0.094 A 
HETATM    3  C7  UNL     1      22.290   0.880  53.116  1.00  0.00     0.036 A 
HETATM    4  C8  UNL     1      21.929   1.022  51.791  1.00  0.00     0.055 A 
HETATM    5  C9  UNL     1      22.948   1.624  51.088  1.00  0.00     0.140 A 
HETATM    6  N2  UNL     1      22.979   1.921  49.836  1.00  0.00    -0.252 NA
HETATM    7  C10 UNL     1      21.867   1.628  48.986  1.00  0.00     0.274 A 
HETATM    8  N3  UNL     1      20.787   0.993  49.715  1.00  0.00    -0.357 N 
HETATM    9  C11 UNL     1      20.841   0.702  51.107  1.00  0.00     0.122 A 
HETATM   10  H9  UNL     1      19.931   0.740  49.183  1.00  0.00     0.162 HD
ENDROOT
BRANCH   1  11
HETATM   11  C5  UNL     1      25.266   2.482  51.760  1.00  0.00     0.168 C 
BRANCH  11  12
HETATM   12  C4  UNL     1      26.313   1.559  52.264  1.00  0.00    -0.038 A 
HETATM   13  C3  UNL     1      26.350   0.205  51.969  1.00  0.00     0.010 A 
HETATM   14  C2  UNL     1      27.390  -0.561  52.505  1.00  0.00     0.026 A 
HETATM   15  C1  UNL     1      28.373   0.002  53.316  1.00  0.00     0.055 A 
HETATM   16 CL1  UNL     1      29.620  -1.064  53.925  1.00  0.00    -0.083 Cl
HETATM   17  C18 UNL     1      28.307   1.350  53.590  1.00  0.00     0.056 A 
HETATM   18  C17 UNL     1      27.294   2.131  53.075  1.00  0.00     0.034 A 
HETATM   19 CL2  UNL     1      29.560   2.046  54.617  1.00  0.00    -0.083 Cl
ENDBRANCH  11  12
ENDBRANCH   1  11
BRANCH   9  20
HETATM   20  N4  UNL     1      19.783   0.079  51.826  1.00  0.00    -0.316 N 
HETATM   21  C12 UNL     1      19.963  -0.442  53.143  1.00  0.00     0.110 C 
HETATM   22  C13 UNL     1      19.041  -1.247  53.599  1.00  0.00    -0.007 C 
HETATM   23  C14 UNL     1      17.817  -1.068  53.137  1.00  0.00     0.034 C 
HETATM   24  C15 UNL     1      17.522  -0.571  51.797  1.00  0.00     0.027 C 
HETATM   25 BR1  UNL     1      15.826  -0.710  50.978  1.00  0.00    -0.050 Br
HETATM   26  C16 UNL     1      18.534   0.015  51.134  1.00  0.00     0.117 C 
ENDBRANCH   9  20
TORSDOF 3
ENDMDL
MODEL 7
REMARK VINA RESULT:      -7.6      5.512      8.072
REMARK  3 active torsions:
REMARK  status: ('A' for Active; 'I' for Inactive)
REMARK    1  A    between atoms: C4_5  and  C5_6 
REMARK    2  A    between atoms: C5_6  and  N1_7 
REMARK    3  A    between atoms: C11_15  and  N4_16 
ROOT
HETATM    1  N1  UNL     1      22.858   0.856  52.479  1.00  0.00    -0.337 N 
HETATM    2  C6  UNL     1      23.848   1.356  51.684  1.00  0.00     0.094 A 
HETATM    3  C7  UNL     1      25.082   0.922  52.118  1.00  0.00     0.036 A 
HETATM    4  C8  UNL     1      24.807   0.131  53.217  1.00  0.00     0.055 A 
HETATM    5  C9  UNL     1      23.449   0.090  53.439  1.00  0.00     0.140 A 
HETATM    6  N2  UNL     1      22.817  -0.540  54.366  1.00  0.00    -0.252 NA
HETATM    7  C10 UNL     1      23.523  -1.323  55.333  1.00  0.00     0.274 A 
HETATM    8  N3  UNL     1      24.955  -1.287  55.109  1.00  0.00    -0.357 N 
HETATM    9  C11 UNL     1      25.569  -0.559  54.052  1.00  0.00     0.122 A 
HETATM   10  H9  UNL     1      25.557  -1.827  55.762  1.00  0.00     0.162 HD
ENDROOT
BRANCH   1  11
HETATM   11  C5  UNL     1      21.450   1.158  52.246  1.00  0.00     0.168 C 
BRANCH  11  12
HETATM   12  C4  UNL     1      21.295   1.664  50.860  1.00  0.00    -0.038 A 
HETATM   13  C3  UNL     1      21.454   0.873  49.732  1.00  0.00     0.010 A 
HETATM   14  C2  UNL     1      21.281   1.468  48.478  1.00  0.00     0.026 A 
HETATM   15  C1  UNL     1      20.958   2.816  48.343  1.00  0.00     0.055 A 
HETATM   16 CL1  UNL     1      20.769   3.439  46.719  1.00  0.00    -0.083 Cl
HETATM   17  C18 UNL     1      20.806   3.573  49.483  1.00  0.00     0.056 A 
HETATM   18  C17 UNL     1      20.970   3.015  50.734  1.00  0.00     0.034 A 
HETATM   19 CL2  UNL     1      20.396   5.277  49.294  1.00  0.00    -0.083 Cl
ENDBRANCH  11  12
ENDBRANCH   1  11
BRANCH   9  20
HETATM   20  N4  UNL     1      26.973  -0.521  53.829  1.00  0.00    -0.316 N 
HETATM   21  C12 UNL     1      27.659  -1.560  53.129  1.00  0.00     0.110 C 
HETATM   22  C13 UNL     1      28.962  -1.590  53.231  1.00  0.00    -0.007 C 
HETATM   23  C14 UNL     1      29.568  -0.435  53.428  1.00  0.00     0.034 C 
HETATM   24  C15 UNL     1      28.970   0.680  54.155  1.00  0.00     0.027 C 
HETATM   25 BR1  UNL     1      29.954   2.154  54.808  1.00  0.00    -0.050 Br
HETATM   26  C16 UNL     1      27.642   0.627  54.356  1.00  0.00     0.117 C 
ENDBRANCH   9  20
TORSDOF 3
ENDMDL
MODEL 8
REMARK VINA RESULT:      -7.4      1.984      2.669
REMARK  3 active torsions:
REMARK  status: ('A' for Active; 'I' for Inactive)
REMARK    1  A    between atoms: C4_5  and  C5_6 
REMARK    2  A    between atoms: C5_6  and  N1_7 
REMARK    3  A    between atoms: C11_15  and  N4_16 
ROOT
HETATM    1  N1  UNL     1      23.811   1.989  52.649  1.00  0.00    -0.337 N 
HETATM    2  C6  UNL     1      24.166   3.171  53.232  1.00  0.00     0.094 A 
HETATM    3  C7  UNL     1      23.820   4.232  52.424  1.00  0.00     0.036 A 
HETATM    4  C8  UNL     1      23.236   3.650  51.315  1.00  0.00     0.055 A 
HETATM    5  C9  UNL     1      23.230   2.280  51.451  1.00  0.00     0.140 A 
HETATM    6  N2  UNL     1      22.773   1.404  50.626  1.00  0.00    -0.252 NA
HETATM    7  C10 UNL     1      22.177   1.805  49.389  1.00  0.00     0.274 A 
HETATM    8  N3  UNL     1      22.178   3.246  49.234  1.00  0.00    -0.357 N 
HETATM    9  C11 UNL     1      22.709   4.142  50.204  1.00  0.00     0.122 A 
HETATM   10  H9  UNL     1      21.765   3.636  48.364  1.00  0.00     0.162 HD
ENDROOT
BRANCH   1  11
HETATM   11  C5  UNL     1      24.061   0.703  53.290  1.00  0.00     0.168 C 
BRANCH  11  12
HETATM   12  C4  UNL     1      25.527   0.481  53.355  1.00  0.00    -0.038 A 
HETATM   13  C3  UNL     1      26.437   1.465  53.706  1.00  0.00     0.010 A 
HETATM   14  C2  UNL     1      27.796   1.132  53.732  1.00  0.00     0.026 A 
HETATM   15  C1  UNL     1      28.243  -0.149  53.415  1.00  0.00     0.055 A 
HETATM   16 CL1  UNL     1      29.967  -0.439  53.484  1.00  0.00    -0.083 Cl
HETATM   17  C18 UNL     1      27.312  -1.104  53.070  1.00  0.00     0.056 A 
HETATM   18  C17 UNL     1      25.966  -0.805  53.037  1.00  0.00     0.034 A 
HETATM   19 CL2  UNL     1      27.895  -2.720  52.674  1.00  0.00    -0.083 Cl
ENDBRANCH  11  12
ENDBRANCH   1  11
BRANCH   9  20
HETATM   20  N4  UNL     1      22.712   5.556  50.056  1.00  0.00    -0.316 N 
HETATM   21  C12 UNL     1      21.756   6.391  50.711  1.00  0.00     0.110 C 
HETATM   22  C13 UNL     1      21.649   7.622  50.289  1.00  0.00    -0.007 C 
HETATM   23  C14 UNL     1      22.733   8.167  49.770  1.00  0.00     0.034 C 
HETATM   24  C15 UNL     1      23.756   7.412  49.054  1.00  0.00     0.027 C 
HETATM   25 BR1  UNL     1      25.069   8.207  47.954  1.00  0.00    -0.050 Br
HETATM   26  C16 UNL     1      23.737   6.077  49.207  1.00  0.00     0.117 C 
ENDBRANCH   9  20
TORSDOF 3
ENDMDL
MODEL 9
REMARK VINA RESULT:      -7.4      2.861      3.565
REMARK  3 active torsions:
REMARK  status: ('A' for Active; 'I' for Inactive)
REMARK    1  A    between atoms: C4_5  and  C5_6 
REMARK    2  A    between atoms: C5_6  and  N1_7 
REMARK    3  A    between atoms: C11_15  and  N4_16 
ROOT
HETATM    1  N1  UNL     1      24.032   3.362  51.891  1.00  0.00    -0.337 N 
HETATM    2  C6  UNL     1      24.889   3.439  50.831  1.00  0.00     0.094 A 
HETATM    3  C7  UNL     1      24.202   3.740  49.676  1.00  0.00     0.036 A 
HETATM    4  C8  UNL     1      22.883   3.846  50.071  1.00  0.00     0.055 A 
HETATM    5  C9  UNL     1      22.777   3.615  51.424  1.00  0.00     0.140 A 
HETATM    6  N2  UNL     1      21.713   3.625  52.148  1.00  0.00    -0.252 NA
HETATM    7  C10 UNL     1      20.435   3.902  51.569  1.00  0.00     0.274 A 
HETATM    8  N3  UNL     1      20.534   4.147  50.144  1.00  0.00    -0.357 N 
HETATM    9  C11 UNL     1      21.760   4.114  49.422  1.00  0.00     0.122 A 
HETATM   10  H9  UNL     1      19.655   4.358  49.631  1.00  0.00     0.162 HD
ENDROOT
BRANCH   1  11
HETATM   11  C5  UNL     1      24.494   3.055  53.241  1.00  0.00     0.168 C 
BRANCH  11  12
HETATM   12  C4  UNL     1      25.405   1.886  53.178  1.00  0.00    -0.038 A 
HETATM   13  C3  UNL     1      25.027   0.644  52.693  1.00  0.00     0.010 A 
HETATM   14  C2  UNL     1      25.979  -0.381  52.685  1.00  0.00     0.026 A 
HETATM   15  C1  UNL     1      27.278  -0.180  53.148  1.00  0.00     0.055 A 
HETATM   16 CL1  UNL     1      28.374  -1.542  53.085  1.00  0.00    -0.083 Cl
HETATM   17  C18 UNL     1      27.621   1.067  53.622  1.00  0.00     0.056 A 
HETATM   18  C17 UNL     1      26.704   2.097  53.642  1.00  0.00     0.034 A 
HETATM   19 CL2  UNL     1      29.268   1.305  54.202  1.00  0.00    -0.083 Cl
ENDBRANCH  11  12
ENDBRANCH   1  11
BRANCH   9  20
HETATM   20  N4  UNL     1      21.860   4.354  48.024  1.00  0.00    -0.316 N 
HETATM   21  C12 UNL     1      21.601   3.335  47.057  1.00  0.00     0.110 C 
HETATM   22  C13 UNL     1      22.001   3.556  45.833  1.00  0.00    -0.007 C 
HETATM   23  C14 UNL     1      22.051   4.817  45.445  1.00  0.00     0.034 C 
HETATM   24  C15 UNL     1      22.339   5.930  46.343  1.00  0.00     0.027 C 
HETATM   25 BR1  UNL     1      22.831   7.654  45.751  1.00  0.00    -0.050 Br
HETATM   26  C16 UNL     1      22.238   5.684  47.661  1.00  0.00     0.117 C 
ENDBRANCH   9  20
TORSDOF 3
ENDMDL
