MODEL 1
REMARK VINA RESULT:      -8.0      0.000      0.000
REMARK  3 active torsions:
REMARK  status: ('A' for Active; 'I' for Inactive)
REMARK    1  A    between atoms: C3_5  and  C4_6 
REMARK    2  A    between atoms: C4_6  and  N2_7 
REMARK    3  A    between atoms: C9_12  and  O1_13 
ROOT
HETATM    1  C1  UNL     1      23.224   2.873  49.186  1.00  0.00     0.157 C 
HETATM    2  N1  UNL     1      23.971   2.551  50.421  1.00  0.00    -0.345 N 
HETATM    3  C2  UNL     1      25.224   2.943  51.049  1.00  0.00     0.090 A 
HETATM    4  S1  UNL     1      25.973   4.032  50.046  1.00  0.00    -0.064 SA
HETATM    5  C3  UNL     1      25.356   2.259  52.329  1.00  0.00     0.111 A 
HETATM    6  C10 UNL     1      24.094   1.396  52.377  1.00  0.00    -0.017 A 
HETATM    7  C11 UNL     1      23.775   0.530  53.396  1.00  0.00     0.034 A 
HETATM    8  C12 UNL     1      22.613  -0.204  53.365  1.00  0.00     0.034 A 
HETATM    9 CL1  UNL     1      22.211  -1.312  54.666  1.00  0.00    -0.084 Cl
HETATM   10  C13 UNL     1      21.775  -0.033  52.257  1.00  0.00     0.026 A 
HETATM   11  C14 UNL     1      22.120   0.846  51.243  1.00  0.00     0.032 A 
HETATM   12  C15 UNL     1      23.292   1.594  51.261  1.00  0.00     0.042 A 
ENDROOT
BRANCH   5  13
HETATM   13  C4  UNL     1      26.468   1.355  52.607  1.00  0.00     0.292 C 
BRANCH  13  14
HETATM   14  N2  UNL     1      27.238   1.487  53.802  1.00  0.00     0.125 N 
HETATM   15  C5  UNL     1      27.159   0.192  54.562  1.00  0.00     0.304 C 
HETATM   16  C6  UNL     1      27.591  -0.932  53.698  1.00  0.00     0.015 C 
HETATM   17  C7  UNL     1      28.779  -0.679  53.209  1.00  0.00    -0.028 C 
HETATM   18  C8  UNL     1      29.385   0.299  53.868  1.00  0.00     0.048 C 
HETATM   19  C9  UNL     1      28.680   1.586  53.485  1.00  0.00     0.382 C 
BRANCH  19  20
HETATM   20  O1  UNL     1      29.306   2.572  54.233  1.00  0.00    -0.365 OA
HETATM   21  H12 UNL     1      29.560   3.322  53.656  1.00  0.00     0.212 HD
ENDBRANCH  19  20
ENDBRANCH  13  14
ENDBRANCH   5  13
TORSDOF 3
ENDMDL
MODEL 2
REMARK VINA RESULT:      -7.2      2.835      5.027
REMARK  3 active torsions:
REMARK  status: ('A' for Active; 'I' for Inactive)
REMARK    1  A    between atoms: C3_5  and  C4_6 
REMARK    2  A    between atoms: C4_6  and  N2_7 
REMARK    3  A    between atoms: C9_12  and  O1_13 
ROOT
HETATM    1  C1  UNL     1      25.312  -0.879  54.955  1.00  0.00     0.157 C 
HETATM    2  N1  UNL     1      24.626  -0.154  53.864  1.00  0.00    -0.345 N 
HETATM    3  C2  UNL     1      24.985   0.763  52.793  1.00  0.00     0.090 A 
HETATM    4  S1  UNL     1      26.618   1.042  52.895  1.00  0.00    -0.064 SA
HETATM    5  C3  UNL     1      23.797   1.085  52.014  1.00  0.00     0.111 A 
HETATM    6  C10 UNL     1      22.699   0.314  52.749  1.00  0.00    -0.017 A 
HETATM    7  C11 UNL     1      21.368   0.325  52.403  1.00  0.00     0.034 A 
HETATM    8  C12 UNL     1      20.446  -0.405  53.114  1.00  0.00     0.034 A 
HETATM    9 CL1  UNL     1      18.745  -0.384  52.673  1.00  0.00    -0.084 Cl
HETATM   10  C13 UNL     1      20.916  -1.156  54.196  1.00  0.00     0.026 A 
HETATM   11  C14 UNL     1      22.262  -1.150  54.524  1.00  0.00     0.032 A 
HETATM   12  C15 UNL     1      23.207  -0.416  53.815  1.00  0.00     0.042 A 
ENDROOT
BRANCH   5  13
HETATM   13  C4  UNL     1      23.307   2.455  51.890  1.00  0.00     0.292 C 
BRANCH  13  14
HETATM   14  N2  UNL     1      24.179   3.566  52.099  1.00  0.00     0.125 N 
HETATM   15  C5  UNL     1      24.845   3.898  50.793  1.00  0.00     0.304 C 
HETATM   16  C6  UNL     1      23.822   4.134  49.746  1.00  0.00     0.015 C 
HETATM   17  C7  UNL     1      22.978   5.048  50.155  1.00  0.00    -0.028 C 
HETATM   18  C8  UNL     1      23.450   5.727  51.191  1.00  0.00     0.048 C 
HETATM   19  C9  UNL     1      23.402   4.792  52.385  1.00  0.00     0.382 C 
BRANCH  19  20
HETATM   20  O1  UNL     1      23.952   5.519  53.430  1.00  0.00    -0.365 OA
HETATM   21  H12 UNL     1      24.553   4.951  53.955  1.00  0.00     0.212 HD
ENDBRANCH  19  20
ENDBRANCH  13  14
ENDBRANCH   5  13
TORSDOF 3
ENDMDL
MODEL 3
REMARK VINA RESULT:      -7.0      3.058      5.650
REMARK  3 active torsions:
REMARK  status: ('A' for Active; 'I' for Inactive)
REMARK    1  A    between atoms: C3_5  and  C4_6 
REMARK    2  A    between atoms: C4_6  and  N2_7 
REMARK    3  A    between atoms: C9_12  and  O1_13 
ROOT
HETATM    1  C1  UNL     1      22.565  -0.879  53.434  1.00  0.00     0.157 C 
HETATM    2  N1  UNL     1      23.249   0.381  53.069  1.00  0.00    -0.345 N 
HETATM    3  C2  UNL     1      22.907   1.638  52.419  1.00  0.00     0.090 A 
HETATM    4  S1  UNL     1      21.309   1.560  51.980  1.00  0.00    -0.064 SA
HETATM    5  C3  UNL     1      24.075   2.509  52.410  1.00  0.00     0.111 A 
HETATM    6  C10 UNL     1      25.146   1.637  53.067  1.00  0.00    -0.017 A 
HETATM    7  C11 UNL     1      26.453   2.015  53.261  1.00  0.00     0.034 A 
HETATM    8  C12 UNL     1      27.352   1.171  53.870  1.00  0.00     0.034 A 
HETATM    9 CL1  UNL     1      29.023   1.655  54.111  1.00  0.00    -0.084 Cl
HETATM   10  C13 UNL     1      26.880  -0.080  54.282  1.00  0.00     0.026 A 
HETATM   11  C14 UNL     1      25.558  -0.437  54.075  1.00  0.00     0.032 A 
HETATM   12  C15 UNL     1      24.638   0.406  53.459  1.00  0.00     0.042 A 
ENDROOT
BRANCH   5  13
HETATM   13  C4  UNL     1      24.664   2.991  51.163  1.00  0.00     0.292 C 
BRANCH  13  14
HETATM   14  N2  UNL     1      24.800   4.390  50.911  1.00  0.00     0.125 N 
HETATM   15  C5  UNL     1      24.597   4.628  49.440  1.00  0.00     0.304 C 
HETATM   16  C6  UNL     1      23.292   4.070  49.010  1.00  0.00     0.015 C 
HETATM   17  C7  UNL     1      22.337   4.559  49.761  1.00  0.00    -0.028 C 
HETATM   18  C8  UNL     1      22.736   5.630  50.432  1.00  0.00     0.048 C 
HETATM   19  C9  UNL     1      23.677   5.140  51.516  1.00  0.00     0.382 C 
BRANCH  19  20
HETATM   20  O1  UNL     1      24.112   6.290  52.158  1.00  0.00    -0.365 OA
HETATM   21  H12 UNL     1      23.951   7.074  51.592  1.00  0.00     0.212 HD
ENDBRANCH  19  20
ENDBRANCH  13  14
ENDBRANCH   5  13
TORSDOF 3
ENDMDL
MODEL 4
REMARK VINA RESULT:      -7.0      3.193      5.621
REMARK  3 active torsions:
REMARK  status: ('A' for Active; 'I' for Inactive)
REMARK    1  A    between atoms: C3_5  and  C4_6 
REMARK    2  A    between atoms: C4_6  and  N2_7 
REMARK    3  A    between atoms: C9_12  and  O1_13 
ROOT
HETATM    1  C1  UNL     1      20.841   0.275  53.139  1.00  0.00     0.157 C 
HETATM    2  N1  UNL     1      21.900   1.250  52.799  1.00  0.00    -0.345 N 
HETATM    3  C2  UNL     1      21.982   2.625  52.329  1.00  0.00     0.090 A 
HETATM    4  S1  UNL     1      20.432   3.180  52.123  1.00  0.00    -0.064 SA
HETATM    5  C3  UNL     1      23.381   3.018  52.231  1.00  0.00     0.111 A 
HETATM    6  C10 UNL     1      24.116   1.741  52.639  1.00  0.00    -0.017 A 
HETATM    7  C11 UNL     1      25.483   1.600  52.674  1.00  0.00     0.034 A 
HETATM    8  C12 UNL     1      26.064   0.416  53.062  1.00  0.00     0.034 A 
HETATM    9 CL1  UNL     1      27.811   0.239  53.101  1.00  0.00    -0.084 Cl
HETATM   10  C13 UNL     1      25.209  -0.632  53.418  1.00  0.00     0.026 A 
HETATM   11  C14 UNL     1      23.835  -0.465  53.374  1.00  0.00     0.032 A 
HETATM   12  C15 UNL     1      23.233   0.726  52.982  1.00  0.00     0.042 A 
ENDROOT
BRANCH   5  13
HETATM   13  C4  UNL     1      23.976   3.433  50.963  1.00  0.00     0.292 C 
BRANCH  13  14
HETATM   14  N2  UNL     1      24.505   4.749  50.798  1.00  0.00     0.125 N 
HETATM   15  C5  UNL     1      24.343   5.148  49.358  1.00  0.00     0.304 C 
HETATM   16  C6  UNL     1      22.922   5.022  48.952  1.00  0.00     0.015 C 
HETATM   17  C7  UNL     1      22.169   5.706  49.777  1.00  0.00    -0.028 C 
HETATM   18  C8  UNL     1      22.878   6.562  50.498  1.00  0.00     0.048 C 
HETATM   19  C9  UNL     1      23.664   5.741  51.503  1.00  0.00     0.382 C 
BRANCH  19  20
HETATM   20  O1  UNL     1      24.429   6.664  52.199  1.00  0.00    -0.365 OA
HETATM   21  H12 UNL     1      24.263   6.584  53.161  1.00  0.00     0.212 HD
ENDBRANCH  19  20
ENDBRANCH  13  14
ENDBRANCH   5  13
TORSDOF 3
ENDMDL
MODEL 5
REMARK VINA RESULT:      -6.8      2.652      5.500
REMARK  3 active torsions:
REMARK  status: ('A' for Active; 'I' for Inactive)
REMARK    1  A    between atoms: C3_5  and  C4_6 
REMARK    2  A    between atoms: C4_6  and  N2_7 
REMARK    3  A    between atoms: C9_12  and  O1_13 
ROOT
HETATM    1  C1  UNL     1      27.577   1.642  52.920  1.00  0.00     0.157 C 
HETATM    2  N1  UNL     1      26.197   1.586  52.393  1.00  0.00    -0.345 N 
HETATM    3  C2  UNL     1      25.440   2.183  51.302  1.00  0.00     0.090 A 
HETATM    4  S1  UNL     1      26.459   3.204  50.481  1.00  0.00    -0.064 SA
HETATM    5  C3  UNL     1      24.082   1.656  51.313  1.00  0.00     0.111 A 
HETATM    6  C10 UNL     1      24.092   0.734  52.533  1.00  0.00    -0.017 A 
HETATM    7  C11 UNL     1      23.008   0.019  52.983  1.00  0.00     0.034 A 
HETATM    8  C12 UNL     1      23.105  -0.796  54.086  1.00  0.00     0.034 A 
HETATM    9 CL1  UNL     1      21.717  -1.705  54.662  1.00  0.00    -0.084 Cl
HETATM   10  C13 UNL     1      24.347  -0.865  54.726  1.00  0.00     0.026 A 
HETATM   11  C14 UNL     1      25.425  -0.134  54.252  1.00  0.00     0.032 A 
HETATM   12  C15 UNL     1      25.341   0.695  53.139  1.00  0.00     0.042 A 
ENDROOT
BRANCH   5  13
HETATM   13  C4  UNL     1      22.921   2.527  51.481  1.00  0.00     0.292 C 
BRANCH  13  14
HETATM   14  N2  UNL     1      21.822   2.465  50.572  1.00  0.00     0.125 N 
HETATM   15  C5  UNL     1      21.443   3.869  50.190  1.00  0.00     0.304 C 
HETATM   16  C6  UNL     1      22.624   4.585  49.649  1.00  0.00     0.015 C 
HETATM   17  C7  UNL     1      23.144   3.893  48.666  1.00  0.00    -0.028 C 
HETATM   18  C8  UNL     1      22.308   2.967  48.218  1.00  0.00     0.048 C 
HETATM   19  C9  UNL     1      22.247   1.884  49.279  1.00  0.00     0.382 C 
BRANCH  19  20
HETATM   20  O1  UNL     1      21.326   0.966  48.799  1.00  0.00    -0.365 OA
HETATM   21  H12 UNL     1      20.632   1.423  48.280  1.00  0.00     0.212 HD
ENDBRANCH  19  20
ENDBRANCH  13  14
ENDBRANCH   5  13
TORSDOF 3
ENDMDL
MODEL 6
REMARK VINA RESULT:      -6.8      8.125      9.354
REMARK  3 active torsions:
REMARK  status: ('A' for Active; 'I' for Inactive)
REMARK    1  A    between atoms: C3_5  and  C4_6 
REMARK    2  A    between atoms: C4_6  and  N2_7 
REMARK    3  A    between atoms: C9_12  and  O1_13 
ROOT
HETATM    1  C1  UNL     1      30.233  10.136  47.004  1.00  0.00     0.157 C 
HETATM    2  N1  UNL     1      30.703   8.814  47.471  1.00  0.00    -0.345 N 
HETATM    3  C2  UNL     1      31.975   8.163  47.747  1.00  0.00     0.090 A 
HETATM    4  S1  UNL     1      33.182   9.252  47.407  1.00  0.00    -0.064 SA
HETATM    5  C3  UNL     1      31.731   6.814  48.237  1.00  0.00     0.111 A 
HETATM    6  C10 UNL     1      30.206   6.710  48.181  1.00  0.00    -0.017 A 
HETATM    7  C11 UNL     1      29.484   5.592  48.522  1.00  0.00     0.034 A 
HETATM    8  C12 UNL     1      28.111   5.586  48.451  1.00  0.00     0.034 A 
HETATM    9 CL1  UNL     1      27.191   4.153  48.883  1.00  0.00    -0.084 Cl
HETATM   10  C13 UNL     1      27.485   6.760  48.019  1.00  0.00     0.026 A 
HETATM   11  C14 UNL     1      28.236   7.874  47.680  1.00  0.00     0.032 A 
HETATM   12  C15 UNL     1      29.626   7.894  47.747  1.00  0.00     0.042 A 
ENDROOT
BRANCH   5  13
HETATM   13  C4  UNL     1      32.236   5.637  47.534  1.00  0.00     0.292 C 
BRANCH  13  14
HETATM   14  N2  UNL     1      32.990   4.640  48.225  1.00  0.00     0.125 N 
HETATM   15  C5  UNL     1      32.667   3.301  47.622  1.00  0.00     0.304 C 
HETATM   16  C6  UNL     1      32.916   3.328  46.160  1.00  0.00     0.015 C 
HETATM   17  C7  UNL     1      34.141   3.729  45.931  1.00  0.00    -0.028 C 
HETATM   18  C8  UNL     1      34.894   3.664  47.020  1.00  0.00     0.048 C 
HETATM   19  C9  UNL     1      34.434   4.784  47.935  1.00  0.00     0.382 C 
BRANCH  19  20
HETATM   20  O1  UNL     1      35.205   4.649  49.080  1.00  0.00    -0.365 OA
HETATM   21  H12 UNL     1      35.105   3.747  49.449  1.00  0.00     0.212 HD
ENDBRANCH  19  20
ENDBRANCH  13  14
ENDBRANCH   5  13
TORSDOF 3
ENDMDL
MODEL 7
REMARK VINA RESULT:      -6.6      3.782      5.091
REMARK  3 active torsions:
REMARK  status: ('A' for Active; 'I' for Inactive)
REMARK    1  A    between atoms: C3_5  and  C4_6 
REMARK    2  A    between atoms: C4_6  and  N2_7 
REMARK    3  A    between atoms: C9_12  and  O1_13 
ROOT
HETATM    1  C1  UNL     1      18.053   0.794  51.532  1.00  0.00     0.157 C 
HETATM    2  N1  UNL     1      19.396   1.281  51.915  1.00  0.00    -0.345 N 
HETATM    3  C2  UNL     1      20.236   2.438  51.641  1.00  0.00     0.090 A 
HETATM    4  S1  UNL     1      19.408   3.426  50.595  1.00  0.00    -0.064 SA
HETATM    5  C3  UNL     1      21.478   2.321  52.393  1.00  0.00     0.111 A 
HETATM    6  C10 UNL     1      21.316   0.973  53.096  1.00  0.00    -0.017 A 
HETATM    7  C11 UNL     1      22.259   0.397  53.914  1.00  0.00     0.034 A 
HETATM    8  C12 UNL     1      22.028  -0.817  54.516  1.00  0.00     0.034 A 
HETATM    9 CL1  UNL     1      23.238  -1.552  55.557  1.00  0.00    -0.084 Cl
HETATM   10  C13 UNL     1      20.800  -1.438  54.262  1.00  0.00     0.026 A 
HETATM   11  C14 UNL     1      19.867  -0.837  53.433  1.00  0.00     0.032 A 
HETATM   12  C15 UNL     1      20.086   0.391  52.817  1.00  0.00     0.042 A 
ENDROOT
BRANCH   5  13
HETATM   13  C4  UNL     1      22.777   2.269  51.727  1.00  0.00     0.292 C 
BRANCH  13  14
HETATM   14  N2  UNL     1      23.817   3.183  52.080  1.00  0.00     0.125 N 
HETATM   15  C5  UNL     1      24.782   3.269  50.930  1.00  0.00     0.304 C 
HETATM   16  C6  UNL     1      24.061   3.637  49.688  1.00  0.00     0.015 C 
HETATM   17  C7  UNL     1      23.379   4.737  49.886  1.00  0.00    -0.028 C 
HETATM   18  C8  UNL     1      23.778   5.376  50.977  1.00  0.00     0.048 C 
HETATM   19  C9  UNL     1      23.291   4.564  52.162  1.00  0.00     0.382 C 
BRANCH  19  20
HETATM   20  O1  UNL     1      23.773   5.233  53.276  1.00  0.00    -0.365 OA
HETATM   21  H12 UNL     1      23.030   5.614  53.789  1.00  0.00     0.212 HD
ENDBRANCH  19  20
ENDBRANCH  13  14
ENDBRANCH   5  13
TORSDOF 3
ENDMDL
MODEL 8
REMARK VINA RESULT:      -6.5      2.459      2.935
REMARK  3 active torsions:
REMARK  status: ('A' for Active; 'I' for Inactive)
REMARK    1  A    between atoms: C3_5  and  C4_6 
REMARK    2  A    between atoms: C4_6  and  N2_7 
REMARK    3  A    between atoms: C9_12  and  O1_13 
ROOT
HETATM    1  C1  UNL     1      20.715   5.277  50.147  1.00  0.00     0.157 C 
HETATM    2  N1  UNL     1      21.496   4.421  51.066  1.00  0.00    -0.345 N 
HETATM    3  C2  UNL     1      22.809   4.441  51.695  1.00  0.00     0.090 A 
HETATM    4  S1  UNL     1      23.592   5.812  51.186  1.00  0.00    -0.064 SA
HETATM    5  C3  UNL     1      22.949   3.272  52.554  1.00  0.00     0.111 A 
HETATM    6  C10 UNL     1      21.625   2.539  52.338  1.00  0.00    -0.017 A 
HETATM    7  C11 UNL     1      21.289   1.340  52.921  1.00  0.00     0.034 A 
HETATM    8  C12 UNL     1      20.070   0.752  52.680  1.00  0.00     0.034 A 
HETATM    9 CL1  UNL     1      19.646  -0.782  53.423  1.00  0.00    -0.084 Cl
HETATM   10  C13 UNL     1      19.192   1.422  51.820  1.00  0.00     0.026 A 
HETATM   11  C14 UNL     1      19.555   2.628  51.244  1.00  0.00     0.032 A 
HETATM   12  C15 UNL     1      20.785   3.235  51.479  1.00  0.00     0.042 A 
ENDROOT
BRANCH   5  13
HETATM   13  C4  UNL     1      23.996   2.278  52.333  1.00  0.00     0.292 C 
BRANCH  13  14
HETATM   14  N2  UNL     1      25.359   2.568  52.644  1.00  0.00     0.125 N 
HETATM   15  C5  UNL     1      25.802   1.642  53.743  1.00  0.00     0.304 C 
HETATM   16  C6  UNL     1      25.570   0.233  53.344  1.00  0.00     0.015 C 
HETATM   17  C7  UNL     1      26.150   0.001  52.193  1.00  0.00    -0.028 C 
HETATM   18  C8  UNL     1      27.035   0.940  51.889  1.00  0.00     0.048 C 
HETATM   19  C9  UNL     1      26.244   2.182  51.523  1.00  0.00     0.382 C 
BRANCH  19  20
HETATM   20  O1  UNL     1      27.201   3.152  51.265  1.00  0.00    -0.365 OA
HETATM   21  H12 UNL     1      27.730   3.327  52.071  1.00  0.00     0.212 HD
ENDBRANCH  19  20
ENDBRANCH  13  14
ENDBRANCH   5  13
TORSDOF 3
ENDMDL
MODEL 9
REMARK VINA RESULT:      -6.5      4.297      5.747
REMARK  3 active torsions:
REMARK  status: ('A' for Active; 'I' for Inactive)
REMARK    1  A    between atoms: C3_5  and  C4_6 
REMARK    2  A    between atoms: C4_6  and  N2_7 
REMARK    3  A    between atoms: C9_12  and  O1_13 
ROOT
HETATM    1  C1  UNL     1      18.153  -0.970  53.049  1.00  0.00     0.157 C 
HETATM    2  N1  UNL     1      19.300  -0.090  52.737  1.00  0.00    -0.345 N 
HETATM    3  C2  UNL     1      19.549   1.111  51.954  1.00  0.00     0.090 A 
HETATM    4  S1  UNL     1      18.121   1.545  51.228  1.00  0.00    -0.064 SA
HETATM    5  C3  UNL     1      20.943   1.506  52.107  1.00  0.00     0.111 A 
HETATM    6  C10 UNL     1      21.503   0.406  53.010  1.00  0.00    -0.017 A 
HETATM    7  C11 UNL     1      22.813   0.321  53.421  1.00  0.00     0.034 A 
HETATM    8  C12 UNL     1      23.233  -0.698  54.242  1.00  0.00     0.034 A 
HETATM    9 CL1  UNL     1      24.908  -0.807  54.761  1.00  0.00    -0.084 Cl
HETATM   10  C13 UNL     1      22.277  -1.639  54.639  1.00  0.00     0.026 A 
HETATM   11  C14 UNL     1      20.963  -1.531  54.211  1.00  0.00     0.032 A 
HETATM   12  C15 UNL     1      20.524  -0.506  53.379  1.00  0.00     0.042 A 
ENDROOT
BRANCH   5  13
HETATM   13  C4  UNL     1      21.850   1.584  50.965  1.00  0.00     0.292 C 
BRANCH  13  14
HETATM   14  N2  UNL     1      21.945   2.778  50.187  1.00  0.00     0.125 N 
HETATM   15  C5  UNL     1      22.621   3.832  51.019  1.00  0.00     0.304 C 
HETATM   16  C6  UNL     1      23.930   3.333  51.506  1.00  0.00     0.015 C 
HETATM   17  C7  UNL     1      24.648   2.921  50.492  1.00  0.00    -0.028 C 
HETATM   18  C8  UNL     1      24.172   3.366  49.337  1.00  0.00     0.048 C 
HETATM   19  C9  UNL     1      22.894   2.595  49.066  1.00  0.00     0.382 C 
BRANCH  19  20
HETATM   20  O1  UNL     1      22.401   3.125  47.883  1.00  0.00    -0.365 OA
HETATM   21  H12 UNL     1      21.449   3.333  47.977  1.00  0.00     0.212 HD
ENDBRANCH  19  20
ENDBRANCH  13  14
ENDBRANCH   5  13
TORSDOF 3
ENDMDL
