MODEL 1
REMARK VINA RESULT:      -7.9      0.000      0.000
REMARK  4 active torsions:
REMARK  status: ('A' for Active; 'I' for Inactive)
REMARK    1  A    between atoms: N1_2  and  N2_3 
REMARK    2  A    between atoms: N3_4  and  C2_5 
REMARK    3  A    between atoms: C7_12  and  N6_13 
REMARK    4  A    between atoms: N6_13  and  C8_14 
ROOT
HETATM    1  C2  UNL     1      24.437  -0.386  53.458  1.00  0.00     0.081 A 
HETATM    2  C3  UNL     1      24.968  -0.613  54.710  1.00  0.00     0.036 A 
HETATM    3  C4  UNL     1      26.154   0.004  55.046  1.00  0.00     0.035 A 
HETATM    4  C5  UNL     1      26.782   0.825  54.135  1.00  0.00     0.072 A 
HETATM    5  N4  UNL     1      27.955   1.413  54.513  1.00  0.00    -0.241 NA
HETATM    6  C6  UNL     1      28.622   2.224  53.683  1.00  0.00     0.236 A 
HETATM    7  N5  UNL     1      28.123   2.455  52.467  1.00  0.00    -0.224 NA
HETATM    8  C7  UNL     1      26.985   1.922  52.017  1.00  0.00     0.142 A 
HETATM    9  C14 UNL     1      26.304   1.091  52.873  1.00  0.00     0.041 A 
HETATM   10  C15 UNL     1      25.120   0.448  52.600  1.00  0.00     0.051 A 
ENDROOT
BRANCH   8  11
HETATM   11  N6  UNL     1      26.436   2.152  50.733  1.00  0.00    -0.340 N 
HETATM   12  H8  UNL     1      26.230   1.378  50.075  1.00  0.00     0.167 HD
BRANCH  11  13
HETATM   13  C8  UNL     1      26.074   3.361  50.104  1.00  0.00     0.035 A 
HETATM   14  C9  UNL     1      24.789   3.901  50.047  1.00  0.00     0.029 A 
HETATM   15  C10 UNL     1      24.487   5.085  49.423  1.00  0.00     0.004 A 
HETATM   16  C11 UNL     1      25.461   5.831  48.799  1.00  0.00     0.024 A 
HETATM   17  C12 UNL     1      26.745   5.340  48.827  1.00  0.00     0.036 A 
HETATM   18 CL1  UNL     1      27.946   6.322  48.022  1.00  0.00    -0.084 Cl
HETATM   19  C13 UNL     1      27.005   4.147  49.464  1.00  0.00     0.053 A 
ENDBRANCH  11  13
ENDBRANCH   8  11
BRANCH   1  20
HETATM   20  N3  UNL     1      23.212  -1.012  53.090  1.00  0.00    -0.133 NA
HETATM   21  N2  UNL     1      22.069  -0.514  53.238  1.00  0.00    -0.073 NA
BRANCH  21  22
HETATM   22  N1  UNL     1      21.776   0.721  53.778  1.00  0.00    -0.300 N 
HETATM   23  C1  UNL     1      21.289   1.557  52.676  1.00  0.00     0.171 C 
HETATM   24  H4  UNL     1      21.832   1.137  54.755  1.00  0.00     0.183 HD
ENDBRANCH  21  22
ENDBRANCH   1  20
TORSDOF 4
ENDMDL
MODEL 2
REMARK VINA RESULT:      -7.8      1.579      3.710
REMARK  4 active torsions:
REMARK  status: ('A' for Active; 'I' for Inactive)
REMARK    1  A    between atoms: N1_2  and  N2_3 
REMARK    2  A    between atoms: N3_4  and  C2_5 
REMARK    3  A    between atoms: C7_12  and  N6_13 
REMARK    4  A    between atoms: N6_13  and  C8_14 
ROOT
HETATM    1  C2  UNL     1      25.985  -0.492  52.990  1.00  0.00     0.081 A 
HETATM    2  C3  UNL     1      24.913  -0.837  53.784  1.00  0.00     0.036 A 
HETATM    3  C4  UNL     1      23.756  -0.092  53.693  1.00  0.00     0.035 A 
HETATM    4  C5  UNL     1      23.693   0.971  52.820  1.00  0.00     0.072 A 
HETATM    5  N4  UNL     1      22.527   1.679  52.765  1.00  0.00    -0.241 NA
HETATM    6  C6  UNL     1      22.390   2.725  51.940  1.00  0.00     0.236 A 
HETATM    7  N5  UNL     1      23.417   3.073  51.163  1.00  0.00    -0.224 NA
HETATM    8  C7  UNL     1      24.591   2.438  51.154  1.00  0.00     0.142 A 
HETATM    9  C14 UNL     1      24.726   1.365  52.002  1.00  0.00     0.041 A 
HETATM   10  C15 UNL     1      25.848   0.584  52.140  1.00  0.00     0.051 A 
ENDROOT
BRANCH   8  11
HETATM   11  N6  UNL     1      25.694   2.788  50.339  1.00  0.00    -0.340 N 
HETATM   12  H8  UNL     1      26.459   2.120  50.132  1.00  0.00     0.167 HD
BRANCH  11  13
HETATM   13  C8  UNL     1      25.988   4.000  49.681  1.00  0.00     0.035 A 
HETATM   14  C9  UNL     1      25.091   5.043  49.446  1.00  0.00     0.029 A 
HETATM   15  C10 UNL     1      25.428   6.205  48.800  1.00  0.00     0.004 A 
HETATM   16  C11 UNL     1      26.705   6.418  48.334  1.00  0.00     0.024 A 
HETATM   17  C12 UNL     1      27.626   5.419  48.540  1.00  0.00     0.036 A 
HETATM   18 CL1  UNL     1      29.233   5.736  47.930  1.00  0.00    -0.084 Cl
HETATM   19  C13 UNL     1      27.247   4.267  49.193  1.00  0.00     0.053 A 
ENDBRANCH  11  13
ENDBRANCH   8  11
BRANCH   1  20
HETATM   20  N3  UNL     1      27.189  -1.248  53.067  1.00  0.00    -0.133 NA
HETATM   21  N2  UNL     1      28.107  -1.069  53.905  1.00  0.00    -0.073 NA
BRANCH  21  22
HETATM   22  N1  UNL     1      28.131  -0.117  54.903  1.00  0.00    -0.300 N 
HETATM   23  C1  UNL     1      29.063   0.927  54.464  1.00  0.00     0.171 C 
HETATM   24  H4  UNL     1      27.644  -0.013  55.842  1.00  0.00     0.183 HD
ENDBRANCH  21  22
ENDBRANCH   1  20
TORSDOF 4
ENDMDL
MODEL 3
REMARK VINA RESULT:      -7.7      2.408      4.775
REMARK  4 active torsions:
REMARK  status: ('A' for Active; 'I' for Inactive)
REMARK    1  A    between atoms: N1_2  and  N2_3 
REMARK    2  A    between atoms: N3_4  and  C2_5 
REMARK    3  A    between atoms: C7_12  and  N6_13 
REMARK    4  A    between atoms: N6_13  and  C8_14 
ROOT
HETATM    1  C2  UNL     1      25.312  -0.510  54.609  1.00  0.00     0.081 A 
HETATM    2  C3  UNL     1      24.784  -1.235  55.655  1.00  0.00     0.036 A 
HETATM    3  C4  UNL     1      23.426  -1.478  55.672  1.00  0.00     0.035 A 
HETATM    4  C5  UNL     1      22.631  -0.997  54.656  1.00  0.00     0.072 A 
HETATM    5  N4  UNL     1      21.293  -1.261  54.717  1.00  0.00    -0.241 NA
HETATM    6  C6  UNL     1      20.457  -0.826  53.766  1.00  0.00     0.236 A 
HETATM    7  N5  UNL     1      20.951  -0.123  52.745  1.00  0.00    -0.224 NA
HETATM    8  C7  UNL     1      22.244   0.181  52.608  1.00  0.00     0.142 A 
HETATM    9  C14 UNL     1      23.097  -0.267  53.586  1.00  0.00     0.041 A 
HETATM   10  C15 UNL     1      24.455  -0.061  53.628  1.00  0.00     0.051 A 
ENDROOT
BRANCH   8  11
HETATM   11  N6  UNL     1      22.790   0.925  51.535  1.00  0.00    -0.340 N 
HETATM   12  H8  UNL     1      22.997   0.493  50.615  1.00  0.00     0.167 HD
BRANCH  11  13
HETATM   13  C8  UNL     1      23.146   2.287  51.462  1.00  0.00     0.035 A 
HETATM   14  C9  UNL     1      22.608   3.316  52.236  1.00  0.00     0.029 A 
HETATM   15  C10 UNL     1      22.990   4.629  52.128  1.00  0.00     0.004 A 
HETATM   16  C11 UNL     1      23.954   5.020  51.226  1.00  0.00     0.024 A 
HETATM   17  C12 UNL     1      24.515   4.042  50.439  1.00  0.00     0.036 A 
HETATM   18 CL1  UNL     1      25.732   4.588  49.311  1.00  0.00    -0.084 Cl
HETATM   19  C13 UNL     1      24.102   2.736  50.579  1.00  0.00     0.053 A 
ENDBRANCH  11  13
ENDBRANCH   8  11
BRANCH   1  20
HETATM   20  N3  UNL     1      26.711  -0.249  54.570  1.00  0.00    -0.133 NA
HETATM   21  N2  UNL     1      27.555  -0.905  53.911  1.00  0.00    -0.073 NA
BRANCH  21  22
HETATM   22  N1  UNL     1      27.298  -1.994  53.105  1.00  0.00    -0.300 N 
HETATM   23  C1  UNL     1      28.548  -2.758  53.021  1.00  0.00     0.171 C 
HETATM   24  H4  UNL     1      26.442  -2.347  52.583  1.00  0.00     0.183 HD
ENDBRANCH  21  22
ENDBRANCH   1  20
TORSDOF 4
ENDMDL
MODEL 4
REMARK VINA RESULT:      -7.7      3.659      5.479
REMARK  4 active torsions:
REMARK  status: ('A' for Active; 'I' for Inactive)
REMARK    1  A    between atoms: N1_2  and  N2_3 
REMARK    2  A    between atoms: N3_4  and  C2_5 
REMARK    3  A    between atoms: C7_12  and  N6_13 
REMARK    4  A    between atoms: N6_13  and  C8_14 
ROOT
HETATM    1  C2  UNL     1      20.910   0.545  51.726  1.00  0.00     0.081 A 
HETATM    2  C3  UNL     1      19.936   0.028  52.552  1.00  0.00     0.036 A 
HETATM    3  C4  UNL     1      20.323  -0.594  53.720  1.00  0.00     0.035 A 
HETATM    4  C5  UNL     1      21.660  -0.688  54.036  1.00  0.00     0.072 A 
HETATM    5  N4  UNL     1      21.994  -1.314  55.202  1.00  0.00    -0.241 NA
HETATM    6  C6  UNL     1      23.273  -1.443  55.577  1.00  0.00     0.236 A 
HETATM    7  N5  UNL     1      24.230  -0.949  54.789  1.00  0.00    -0.224 NA
HETATM    8  C7  UNL     1      23.992  -0.324  53.634  1.00  0.00     0.142 A 
HETATM    9  C14 UNL     1      22.678  -0.194  53.254  1.00  0.00     0.041 A 
HETATM   10  C15 UNL     1      22.227   0.414  52.107  1.00  0.00     0.051 A 
ENDROOT
BRANCH   8  11
HETATM   11  N6  UNL     1      24.989   0.209  52.782  1.00  0.00    -0.340 N 
HETATM   12  H8  UNL     1      24.819   0.377  51.773  1.00  0.00     0.167 HD
BRANCH  11  13
HETATM   13  C8  UNL     1      26.313   0.601  53.069  1.00  0.00     0.035 A 
HETATM   14  C9  UNL     1      26.757   1.910  53.258  1.00  0.00     0.029 A 
HETATM   15  C10 UNL     1      28.059   2.240  53.537  1.00  0.00     0.004 A 
HETATM   16  C11 UNL     1      29.031   1.272  53.651  1.00  0.00     0.024 A 
HETATM   17  C12 UNL     1      28.644  -0.035  53.472  1.00  0.00     0.036 A 
HETATM   18 CL1  UNL     1      29.913  -1.226  53.627  1.00  0.00    -0.084 Cl
HETATM   19  C13 UNL     1      27.326  -0.322  53.193  1.00  0.00     0.053 A 
ENDBRANCH  11  13
ENDBRANCH   8  11
BRANCH   1  20
HETATM   20  N3  UNL     1      20.533   1.193  50.515  1.00  0.00    -0.133 NA
HETATM   21  N2  UNL     1      20.357   2.429  50.376  1.00  0.00    -0.073 NA
BRANCH  21  22
HETATM   22  N1  UNL     1      20.492   3.391  51.355  1.00  0.00    -0.300 N 
HETATM   23  C1  UNL     1      20.162   4.676  50.729  1.00  0.00     0.171 C 
HETATM   24  H4  UNL     1      20.764   3.373  52.383  1.00  0.00     0.183 HD
ENDBRANCH  21  22
ENDBRANCH   1  20
TORSDOF 4
ENDMDL
MODEL 5
REMARK VINA RESULT:      -7.7      3.530      7.843
REMARK  4 active torsions:
REMARK  status: ('A' for Active; 'I' for Inactive)
REMARK    1  A    between atoms: N1_2  and  N2_3 
REMARK    2  A    between atoms: N3_4  and  C2_5 
REMARK    3  A    between atoms: C7_12  and  N6_13 
REMARK    4  A    between atoms: N6_13  and  C8_14 
ROOT
HETATM    1  C2  UNL     1      28.928   5.651  48.110  1.00  0.00     0.081 A 
HETATM    2  C3  UNL     1      28.725   6.939  47.664  1.00  0.00     0.036 A 
HETATM    3  C4  UNL     1      27.462   7.483  47.769  1.00  0.00     0.035 A 
HETATM    4  C5  UNL     1      26.438   6.738  48.311  1.00  0.00     0.072 A 
HETATM    5  N4  UNL     1      25.206   7.320  48.393  1.00  0.00    -0.241 NA
HETATM    6  C6  UNL     1      24.161   6.658  48.908  1.00  0.00     0.236 A 
HETATM    7  N5  UNL     1      24.339   5.410  49.345  1.00  0.00    -0.224 NA
HETATM    8  C7  UNL     1      25.509   4.767  49.301  1.00  0.00     0.142 A 
HETATM    9  C14 UNL     1      26.576   5.450  48.772  1.00  0.00     0.041 A 
HETATM   10  C15 UNL     1      27.856   4.967  48.640  1.00  0.00     0.051 A 
ENDROOT
BRANCH   8  11
HETATM   11  N6  UNL     1      25.721   3.444  49.758  1.00  0.00    -0.340 N 
HETATM   12  H8  UNL     1      25.841   2.649  49.104  1.00  0.00     0.167 HD
BRANCH  11  13
HETATM   13  C8  UNL     1      25.814   2.942  51.072  1.00  0.00     0.035 A 
HETATM   14  C9  UNL     1      24.759   2.808  51.975  1.00  0.00     0.029 A 
HETATM   15  C10 UNL     1      24.902   2.310  53.245  1.00  0.00     0.004 A 
HETATM   16  C11 UNL     1      26.128   1.901  53.717  1.00  0.00     0.024 A 
HETATM   17  C12 UNL     1      27.201   2.013  52.865  1.00  0.00     0.036 A 
HETATM   18 CL1  UNL     1      28.736   1.481  53.510  1.00  0.00    -0.084 Cl
HETATM   19  C13 UNL     1      27.014   2.519  51.598  1.00  0.00     0.053 A 
ENDBRANCH  11  13
ENDBRANCH   8  11
BRANCH   1  20
HETATM   20  N3  UNL     1      30.224   5.070  48.012  1.00  0.00    -0.133 NA
HETATM   21  N2  UNL     1      31.174   5.272  48.808  1.00  0.00    -0.073 NA
BRANCH  21  22
HETATM   22  N1  UNL     1      31.151   6.086  49.921  1.00  0.00    -0.300 N 
HETATM   23  C1  UNL     1      31.912   7.291  49.575  1.00  0.00     0.171 C 
HETATM   24  H4  UNL     1      30.722   6.008  50.891  1.00  0.00     0.183 HD
ENDBRANCH  21  22
ENDBRANCH   1  20
TORSDOF 4
ENDMDL
MODEL 6
REMARK VINA RESULT:      -7.6      3.856      6.776
REMARK  4 active torsions:
REMARK  status: ('A' for Active; 'I' for Inactive)
REMARK    1  A    between atoms: N1_2  and  N2_3 
REMARK    2  A    between atoms: N3_4  and  C2_5 
REMARK    3  A    between atoms: C7_12  and  N6_13 
REMARK    4  A    between atoms: N6_13  and  C8_14 
ROOT
HETATM    1  C2  UNL     1      25.771   0.295  52.401  1.00  0.00     0.081 A 
HETATM    2  C3  UNL     1      26.581   1.218  51.777  1.00  0.00     0.036 A 
HETATM    3  C4  UNL     1      26.034   2.423  51.391  1.00  0.00     0.035 A 
HETATM    4  C5  UNL     1      24.703   2.680  51.632  1.00  0.00     0.072 A 
HETATM    5  N4  UNL     1      24.206   3.887  51.230  1.00  0.00    -0.241 NA
HETATM    6  C6  UNL     1      22.922   4.208  51.430  1.00  0.00     0.236 A 
HETATM    7  N5  UNL     1      22.122   3.326  52.032  1.00  0.00    -0.224 NA
HETATM    8  C7  UNL     1      22.524   2.126  52.455  1.00  0.00     0.142 A 
HETATM    9  C14 UNL     1      23.843   1.801  52.248  1.00  0.00     0.041 A 
HETATM   10  C15 UNL     1      24.449   0.621  52.608  1.00  0.00     0.051 A 
ENDROOT
BRANCH   8  11
HETATM   11  N6  UNL     1      21.695   1.175  53.097  1.00  0.00    -0.340 N 
HETATM   12  H8  UNL     1      21.940   0.762  54.016  1.00  0.00     0.167 HD
BRANCH  11  13
HETATM   13  C8  UNL     1      20.466   0.619  52.687  1.00  0.00     0.035 A 
HETATM   14  C9  UNL     1      19.701   1.035  51.597  1.00  0.00     0.029 A 
HETATM   15  C10 UNL     1      18.509   0.459  51.238  1.00  0.00     0.004 A 
HETATM   16  C11 UNL     1      17.983  -0.593  51.951  1.00  0.00     0.024 A 
HETATM   17  C12 UNL     1      18.699  -1.041  53.036  1.00  0.00     0.036 A 
HETATM   18 CL1  UNL     1      17.989  -2.378  53.909  1.00  0.00    -0.084 Cl
HETATM   19  C13 UNL     1      19.891  -0.433  53.362  1.00  0.00     0.053 A 
ENDBRANCH  11  13
ENDBRANCH   8  11
BRANCH   1  20
HETATM   20  N3  UNL     1      26.315  -0.956  52.809  1.00  0.00    -0.133 NA
HETATM   21  N2  UNL     1      26.890  -1.176  53.903  1.00  0.00    -0.073 NA
BRANCH  21  22
HETATM   22  N1  UNL     1      27.107  -0.262  54.914  1.00  0.00    -0.300 N 
HETATM   23  C1  UNL     1      28.526   0.102  54.853  1.00  0.00     0.171 C 
HETATM   24  H4  UNL     1      26.491   0.184  55.657  1.00  0.00     0.183 HD
ENDBRANCH  21  22
ENDBRANCH   1  20
TORSDOF 4
ENDMDL
MODEL 7
REMARK VINA RESULT:      -7.6      3.112      6.267
REMARK  4 active torsions:
REMARK  status: ('A' for Active; 'I' for Inactive)
REMARK    1  A    between atoms: N1_2  and  N2_3 
REMARK    2  A    between atoms: N3_4  and  C2_5 
REMARK    3  A    between atoms: C7_12  and  N6_13 
REMARK    4  A    between atoms: N6_13  and  C8_14 
ROOT
HETATM    1  C2  UNL     1      24.481   3.286  50.204  1.00  0.00     0.081 A 
HETATM    2  C3  UNL     1      23.306   2.910  49.589  1.00  0.00     0.036 A 
HETATM    3  C4  UNL     1      22.555   1.904  50.159  1.00  0.00     0.035 A 
HETATM    4  C5  UNL     1      22.987   1.299  51.318  1.00  0.00     0.072 A 
HETATM    5  N4  UNL     1      22.210   0.306  51.843  1.00  0.00    -0.241 NA
HETATM    6  C6  UNL     1      22.565  -0.328  52.968  1.00  0.00     0.236 A 
HETATM    7  N5  UNL     1      23.699   0.023  53.577  1.00  0.00    -0.224 NA
HETATM    8  C7  UNL     1      24.517   0.980  53.132  1.00  0.00     0.142 A 
HETATM    9  C14 UNL     1      24.149   1.627  51.978  1.00  0.00     0.041 A 
HETATM   10  C15 UNL     1      24.849   2.636  51.361  1.00  0.00     0.051 A 
ENDROOT
BRANCH   8  11
HETATM   11  N6  UNL     1      25.723   1.369  53.761  1.00  0.00    -0.340 N 
HETATM   12  H8  UNL     1      25.773   2.181  54.403  1.00  0.00     0.167 HD
BRANCH  11  13
HETATM   13  C8  UNL     1      27.013   0.805  53.678  1.00  0.00     0.035 A 
HETATM   14  C9  UNL     1      28.218   1.488  53.846  1.00  0.00     0.029 A 
HETATM   15  C10 UNL     1      29.450   0.893  53.757  1.00  0.00     0.004 A 
HETATM   16  C11 UNL     1      29.575  -0.452  53.490  1.00  0.00     0.024 A 
HETATM   17  C12 UNL     1      28.415  -1.170  53.315  1.00  0.00     0.036 A 
HETATM   18 CL1  UNL     1      28.625  -2.872  52.978  1.00  0.00    -0.084 Cl
HETATM   19  C13 UNL     1      27.199  -0.533  53.412  1.00  0.00     0.053 A 
ENDBRANCH  11  13
ENDBRANCH   8  11
BRANCH   1  20
HETATM   20  N3  UNL     1      25.272   4.324  49.634  1.00  0.00    -0.133 NA
HETATM   21  N2  UNL     1      25.348   5.501  50.066  1.00  0.00    -0.073 NA
BRANCH  21  22
HETATM   22  N1  UNL     1      24.690   6.015  51.164  1.00  0.00    -0.300 N 
HETATM   23  C1  UNL     1      24.061   7.266  50.728  1.00  0.00     0.171 C 
HETATM   24  H4  UNL     1      24.566   5.699  52.172  1.00  0.00     0.183 HD
ENDBRANCH  21  22
ENDBRANCH   1  20
TORSDOF 4
ENDMDL
MODEL 8
REMARK VINA RESULT:      -7.1      2.184      4.520
REMARK  4 active torsions:
REMARK  status: ('A' for Active; 'I' for Inactive)
REMARK    1  A    between atoms: N1_2  and  N2_3 
REMARK    2  A    between atoms: N3_4  and  C2_5 
REMARK    3  A    between atoms: C7_12  and  N6_13 
REMARK    4  A    between atoms: N6_13  and  C8_14 
ROOT
HETATM    1  C2  UNL     1      25.017   2.064  53.062  1.00  0.00     0.081 A 
HETATM    2  C3  UNL     1      24.296   0.890  53.039  1.00  0.00     0.036 A 
HETATM    3  C4  UNL     1      23.392   0.689  52.017  1.00  0.00     0.035 A 
HETATM    4  C5  UNL     1      23.227   1.655  51.049  1.00  0.00     0.072 A 
HETATM    5  N4  UNL     1      22.320   1.411  50.058  1.00  0.00    -0.241 NA
HETATM    6  C6  UNL     1      22.106   2.302  49.082  1.00  0.00     0.236 A 
HETATM    7  N5  UNL     1      22.795   3.445  49.088  1.00  0.00    -0.224 NA
HETATM    8  C7  UNL     1      23.698   3.763  50.018  1.00  0.00     0.142 A 
HETATM    9  C14 UNL     1      23.915   2.846  51.016  1.00  0.00     0.041 A 
HETATM   10  C15 UNL     1      24.799   2.984  52.060  1.00  0.00     0.051 A 
ENDROOT
BRANCH   8  11
HETATM   11  N6  UNL     1      24.441   4.968  50.044  1.00  0.00    -0.340 N 
HETATM   12  H8  UNL     1      24.128   5.796  50.584  1.00  0.00     0.167 HD
BRANCH  11  13
HETATM   13  C8  UNL     1      25.658   5.298  49.413  1.00  0.00     0.035 A 
HETATM   14  C9  UNL     1      26.737   4.438  49.212  1.00  0.00     0.029 A 
HETATM   15  C10 UNL     1      27.902   4.808  48.589  1.00  0.00     0.004 A 
HETATM   16  C11 UNL     1      28.079   6.087  48.111  1.00  0.00     0.024 A 
HETATM   17  C12 UNL     1      27.043   6.974  48.285  1.00  0.00     0.036 A 
HETATM   18 CL1  UNL     1      27.316   8.584  47.662  1.00  0.00    -0.084 Cl
HETATM   19  C13 UNL     1      25.892   6.561  48.917  1.00  0.00     0.053 A 
ENDBRANCH  11  13
ENDBRANCH   8  11
BRANCH   1  20
HETATM   20  N3  UNL     1      25.956   2.291  54.107  1.00  0.00    -0.133 NA
HETATM   21  N2  UNL     1      27.175   1.990  54.068  1.00  0.00    -0.073 NA
BRANCH  21  22
HETATM   22  N1  UNL     1      27.836   1.387  53.019  1.00  0.00    -0.300 N 
HETATM   23  C1  UNL     1      28.633   0.298  53.596  1.00  0.00     0.171 C 
HETATM   24  H4  UNL     1      27.870   1.550  51.969  1.00  0.00     0.183 HD
ENDBRANCH  21  22
ENDBRANCH   1  20
TORSDOF 4
ENDMDL
MODEL 9
REMARK VINA RESULT:      -7.0      4.088      7.012
REMARK  4 active torsions:
REMARK  status: ('A' for Active; 'I' for Inactive)
REMARK    1  A    between atoms: N1_2  and  N2_3 
REMARK    2  A    between atoms: N3_4  and  C2_5 
REMARK    3  A    between atoms: C7_12  and  N6_13 
REMARK    4  A    between atoms: N6_13  and  C8_14 
ROOT
HETATM    1  C2  UNL     1      24.778   1.501  51.853  1.00  0.00     0.081 A 
HETATM    2  C3  UNL     1      25.902   0.847  52.309  1.00  0.00     0.036 A 
HETATM    3  C4  UNL     1      25.767  -0.062  53.337  1.00  0.00     0.035 A 
HETATM    4  C5  UNL     1      24.525  -0.297  53.884  1.00  0.00     0.072 A 
HETATM    5  N4  UNL     1      24.441  -1.205  54.900  1.00  0.00    -0.241 NA
HETATM    6  C6  UNL     1      23.268  -1.487  55.481  1.00  0.00     0.236 A 
HETATM    7  N5  UNL     1      22.169  -0.863  55.053  1.00  0.00    -0.224 NA
HETATM    8  C7  UNL     1      22.161   0.037  54.067  1.00  0.00     0.142 A 
HETATM    9  C14 UNL     1      23.367   0.323  53.474  1.00  0.00     0.041 A 
HETATM   10  C15 UNL     1      23.570   1.214  52.448  1.00  0.00     0.051 A 
ENDROOT
BRANCH   8  11
HETATM   11  N6  UNL     1      21.009   0.711  53.596  1.00  0.00    -0.340 N 
HETATM   12  H8  UNL     1      20.908   1.740  53.660  1.00  0.00     0.167 HD
BRANCH  11  13
HETATM   13  C8  UNL     1      19.844   0.200  52.987  1.00  0.00     0.035 A 
HETATM   14  C9  UNL     1      19.213   0.722  51.858  1.00  0.00     0.029 A 
HETATM   15  C10 UNL     1      18.080   0.186  51.301  1.00  0.00     0.004 A 
HETATM   16  C11 UNL     1      17.482  -0.931  51.839  1.00  0.00     0.024 A 
HETATM   17  C12 UNL     1      18.066  -1.484  52.954  1.00  0.00     0.036 A 
HETATM   18 CL1  UNL     1      17.270  -2.900  53.599  1.00  0.00    -0.084 Cl
HETATM   19  C13 UNL     1      19.203  -0.914  53.481  1.00  0.00     0.053 A 
ENDBRANCH  11  13
ENDBRANCH   8  11
BRANCH   1  20
HETATM   20  N3  UNL     1      24.895   2.443  50.792  1.00  0.00    -0.133 NA
HETATM   21  N2  UNL     1      24.738   3.684  50.901  1.00  0.00    -0.073 NA
BRANCH  21  22
HETATM   22  N1  UNL     1      24.425   4.372  52.054  1.00  0.00    -0.300 N 
HETATM   23  C1  UNL     1      23.552   5.482  51.657  1.00  0.00     0.171 C 
HETATM   24  H4  UNL     1      24.677   4.256  53.081  1.00  0.00     0.183 HD
ENDBRANCH  21  22
ENDBRANCH   1  20
TORSDOF 4
ENDMDL
