MODEL 1
REMARK VINA RESULT:      -8.5      0.000      0.000
REMARK  7 active torsions:
REMARK  status: ('A' for Active; 'I' for Inactive)
REMARK    1  A    between atoms: C6_6  and  O1_7 
REMARK    2  A    between atoms: C7_8  and  C8_9 
REMARK    3  A    between atoms: C8_9  and  N1_10 
REMARK    4  A    between atoms: N1_10  and  C9_11 
REMARK       I    between atoms: N1_10  and  C16_19 
REMARK    5  A    between atoms: C9_11  and  C10_12 
REMARK    6  A    between atoms: C13_15  and  O2_16 
REMARK       I    between atoms: C16_19  and  N2_21 
REMARK    7  A    between atoms: N2_21  and  C17_22 
ROOT
HETATM    1  N1  UNL     1      24.666   1.754  51.991  1.00  0.00    -0.325 N 
HETATM    2  C16 UNL     1      25.881   1.040  52.183  1.00  0.00     0.323 C 
HETATM    3  O3  UNL     1      26.548   0.883  51.130  1.00  0.00    -0.247 OA
HETATM    4  N2  UNL     1      26.472   0.477  53.343  1.00  0.00    -0.312 N 
HETATM    5  H18 UNL     1      25.909   0.615  54.206  1.00  0.00     0.170 HD
ENDROOT
BRANCH   1   6
HETATM    6  C8  UNL     1      24.461   2.119  50.617  1.00  0.00     0.169 C 
BRANCH   6   7
HETATM    7  C7  UNL     1      24.849   3.491  50.254  1.00  0.00    -0.006 A 
HETATM    8  C6  UNL     1      25.993   3.871  49.602  1.00  0.00     0.079 A 
HETATM    9  C4  UNL     1      26.360   5.157  49.270  1.00  0.00    -0.028 A 
HETATM   10  C3  UNL     1      25.521   6.198  49.607  1.00  0.00     0.016 A 
HETATM   11  C5  UNL     1      27.622   5.490  48.559  1.00  0.00     0.051 C 
HETATM   12  C2  UNL     1      24.337   5.888  50.272  1.00  0.00    -0.061 A 
HETATM   13  C1  UNL     1      23.478   7.053  50.607  1.00  0.00     0.048 C 
HETATM   14  C22 UNL     1      24.050   4.571  50.566  1.00  0.00     0.018 A 
BRANCH   8  15
HETATM   15  O1  UNL     1      26.918   2.917  49.205  1.00  0.00    -0.360 OA
HETATM   16  H8  UNL     1      27.876   3.193  49.027  1.00  0.00     0.217 HD
ENDBRANCH   8  15
ENDBRANCH   6   7
ENDBRANCH   1   6
BRANCH   1  17
HETATM   17  C9  UNL     1      23.831   2.041  53.134  1.00  0.00     0.166 C 
BRANCH  17  18
HETATM   18  C10 UNL     1      22.831   0.964  53.405  1.00  0.00    -0.040 A 
HETATM   19  C11 UNL     1      21.501   1.264  53.090  1.00  0.00     0.011 A 
HETATM   20  C12 UNL     1      20.431   0.391  53.269  1.00  0.00     0.037 A 
HETATM   21  C13 UNL     1      20.782  -0.849  53.804  1.00  0.00     0.065 A 
HETATM   22  C14 UNL     1      22.059  -1.225  54.140  1.00  0.00     0.037 A 
HETATM   23  C15 UNL     1      23.022  -0.293  53.923  1.00  0.00     0.011 A 
BRANCH  21  24
HETATM   24  O2  UNL     1      19.719  -1.732  53.987  1.00  0.00    -0.361 OA
HETATM   25  H15 UNL     1      18.943  -1.423  54.592  1.00  0.00     0.217 HD
ENDBRANCH  21  24
ENDBRANCH  17  18
ENDBRANCH   1  17
BRANCH   4  26
HETATM   26  C17 UNL     1      27.706  -0.217  53.383  1.00  0.00     0.017 A 
HETATM   27  C18 UNL     1      28.034  -1.465  53.162  1.00  0.00     0.025 A 
HETATM   28  C19 UNL     1      29.442  -1.754  53.318  1.00  0.00    -0.002 A 
HETATM   29  C20 UNL     1      30.013  -0.618  53.653  1.00  0.00    -0.021 A 
HETATM   30  C21 UNL     1      28.996   0.440  53.726  1.00  0.00     0.084 A 
ENDBRANCH   4  26
TORSDOF 7
ENDMDL
MODEL 2
REMARK VINA RESULT:      -8.5      2.439      6.603
REMARK  7 active torsions:
REMARK  status: ('A' for Active; 'I' for Inactive)
REMARK    1  A    between atoms: C6_6  and  O1_7 
REMARK    2  A    between atoms: C7_8  and  C8_9 
REMARK    3  A    between atoms: C8_9  and  N1_10 
REMARK    4  A    between atoms: N1_10  and  C9_11 
REMARK       I    between atoms: N1_10  and  C16_19 
REMARK    5  A    between atoms: C9_11  and  C10_12 
REMARK    6  A    between atoms: C13_15  and  O2_16 
REMARK       I    between atoms: C16_19  and  N2_21 
REMARK    7  A    between atoms: N2_21  and  C17_22 
ROOT
HETATM    1  N1  UNL     1      25.684   3.215  50.677  1.00  0.00    -0.325 N 
HETATM    2  C16 UNL     1      26.147   4.368  49.988  1.00  0.00     0.323 C 
HETATM    3  O3  UNL     1      25.478   5.404  50.227  1.00  0.00    -0.247 OA
HETATM    4  N2  UNL     1      27.222   4.560  49.082  1.00  0.00    -0.312 N 
HETATM    5  H18 UNL     1      27.766   3.695  48.894  1.00  0.00     0.170 HD
ENDROOT
BRANCH   1   6
HETATM    6  C8  UNL     1      24.529   3.490  51.485  1.00  0.00     0.169 C 
BRANCH   6   7
HETATM    7  C7  UNL     1      23.513   2.427  51.532  1.00  0.00    -0.006 A 
HETATM    8  C6  UNL     1      22.601   2.124  50.553  1.00  0.00     0.079 A 
HETATM    9  C4  UNL     1      21.645   1.134  50.601  1.00  0.00    -0.028 A 
HETATM   10  C3  UNL     1      21.560   0.342  51.726  1.00  0.00     0.016 A 
HETATM   11  C5  UNL     1      20.688   0.867  49.494  1.00  0.00     0.051 C 
HETATM   12  C2  UNL     1      22.456   0.590  52.764  1.00  0.00    -0.061 A 
HETATM   13  C1  UNL     1      22.311  -0.297  53.947  1.00  0.00     0.048 C 
HETATM   14  C22 UNL     1      23.381   1.604  52.630  1.00  0.00     0.018 A 
BRANCH   8  15
HETATM   15  O1  UNL     1      22.586   2.846  49.369  1.00  0.00    -0.360 OA
HETATM   16  H8  UNL     1      22.608   2.354  48.484  1.00  0.00     0.217 HD
ENDBRANCH   8  15
ENDBRANCH   6   7
ENDBRANCH   1   6
BRANCH   1  17
HETATM   17  C9  UNL     1      26.399   1.969  50.522  1.00  0.00     0.166 C 
BRANCH  17  18
HETATM   18  C10 UNL     1      26.986   1.475  51.805  1.00  0.00    -0.040 A 
HETATM   19  C11 UNL     1      26.758   0.128  52.109  1.00  0.00     0.011 A 
HETATM   20  C12 UNL     1      27.225  -0.513  53.254  1.00  0.00     0.037 A 
HETATM   21  C13 UNL     1      27.962   0.304  54.112  1.00  0.00     0.065 A 
HETATM   22  C14 UNL     1      28.232   1.632  53.890  1.00  0.00     0.037 A 
HETATM   23  C15 UNL     1      27.726   2.151  52.743  1.00  0.00     0.011 A 
BRANCH  21  24
HETATM   24  O2  UNL     1      28.435  -0.326  55.261  1.00  0.00    -0.361 OA
HETATM   25  H15 UNL     1      29.429  -0.194  55.502  1.00  0.00     0.217 HD
ENDBRANCH  21  24
ENDBRANCH  17  18
ENDBRANCH   1  17
BRANCH   4  26
HETATM   26  C17 UNL     1      27.568   5.786  48.464  1.00  0.00     0.017 A 
HETATM   27  C18 UNL     1      26.865   6.825  48.090  1.00  0.00     0.025 A 
HETATM   28  C19 UNL     1      27.636   7.887  47.483  1.00  0.00    -0.002 A 
HETATM   29  C20 UNL     1      28.886   7.477  47.484  1.00  0.00    -0.021 A 
HETATM   30  C21 UNL     1      28.965   6.141  48.090  1.00  0.00     0.084 A 
ENDBRANCH   4  26
TORSDOF 7
ENDMDL
MODEL 3
REMARK VINA RESULT:      -8.5      1.760      5.503
REMARK  7 active torsions:
REMARK  status: ('A' for Active; 'I' for Inactive)
REMARK    1  A    between atoms: C6_6  and  O1_7 
REMARK    2  A    between atoms: C7_8  and  C8_9 
REMARK    3  A    between atoms: C8_9  and  N1_10 
REMARK    4  A    between atoms: N1_10  and  C9_11 
REMARK       I    between atoms: N1_10  and  C16_19 
REMARK    5  A    between atoms: C9_11  and  C10_12 
REMARK    6  A    between atoms: C13_15  and  O2_16 
REMARK       I    between atoms: C16_19  and  N2_21 
REMARK    7  A    between atoms: N2_21  and  C17_22 
ROOT
HETATM    1  N1  UNL     1      25.033   2.161  51.789  1.00  0.00    -0.325 N 
HETATM    2  C16 UNL     1      23.855   1.447  52.140  1.00  0.00     0.323 C 
HETATM    3  O3  UNL     1      23.127   1.156  51.159  1.00  0.00    -0.247 OA
HETATM    4  N2  UNL     1      23.357   1.006  53.394  1.00  0.00    -0.312 N 
HETATM    5  H18 UNL     1      23.970   1.254  54.195  1.00  0.00     0.170 HD
ENDROOT
BRANCH   1   6
HETATM    6  C8  UNL     1      25.116   2.413  50.377  1.00  0.00     0.169 C 
BRANCH   6   7
HETATM    7  C7  UNL     1      25.577   3.756  49.992  1.00  0.00    -0.006 A 
HETATM    8  C6  UNL     1      24.915   4.938  50.201  1.00  0.00     0.079 A 
HETATM    9  C4  UNL     1      25.342   6.195  49.834  1.00  0.00    -0.028 A 
HETATM   10  C3  UNL     1      26.554   6.324  49.188  1.00  0.00     0.016 A 
HETATM   11  C5  UNL     1      24.564   7.433  50.096  1.00  0.00     0.051 C 
HETATM   12  C2  UNL     1      27.286   5.165  48.941  1.00  0.00    -0.061 A 
HETATM   13  C1  UNL     1      28.580   5.373  48.243  1.00  0.00     0.048 C 
HETATM   14  C22 UNL     1      26.779   3.947  49.345  1.00  0.00     0.018 A 
BRANCH   8  15
HETATM   15  O1  UNL     1      23.686   4.943  50.844  1.00  0.00    -0.360 OA
HETATM   16  H8  UNL     1      22.881   4.533  50.387  1.00  0.00     0.217 HD
ENDBRANCH   8  15
ENDBRANCH   6   7
ENDBRANCH   1   6
BRANCH   1  17
HETATM   17  C9  UNL     1      25.977   2.514  52.823  1.00  0.00     0.166 C 
BRANCH  17  18
HETATM   18  C10 UNL     1      27.010   1.457  53.050  1.00  0.00    -0.040 A 
HETATM   19  C11 UNL     1      28.226   1.888  53.591  1.00  0.00     0.011 A 
HETATM   20  C12 UNL     1      29.305   1.055  53.873  1.00  0.00     0.037 A 
HETATM   21  C13 UNL     1      29.088  -0.290  53.571  1.00  0.00     0.065 A 
HETATM   22  C14 UNL     1      27.929  -0.797  53.039  1.00  0.00     0.037 A 
HETATM   23  C15 UNL     1      26.945   0.108  52.804  1.00  0.00     0.011 A 
BRANCH  21  24
HETATM   24  O2  UNL     1      30.161  -1.135  53.850  1.00  0.00    -0.361 OA
HETATM   25  H15 UNL     1      30.918  -1.189  53.151  1.00  0.00     0.217 HD
ENDBRANCH  21  24
ENDBRANCH  17  18
ENDBRANCH   1  17
BRANCH   4  26
HETATM   26  C17 UNL     1      22.149   0.294  53.594  1.00  0.00     0.017 A 
HETATM   27  C18 UNL     1      20.890   0.614  53.435  1.00  0.00     0.025 A 
HETATM   28  C19 UNL     1      19.955  -0.439  53.764  1.00  0.00    -0.002 A 
HETATM   29  C20 UNL     1      20.682  -1.465  54.146  1.00  0.00    -0.021 A 
HETATM   30  C21 UNL     1      22.107  -1.112  54.078  1.00  0.00     0.084 A 
ENDBRANCH   4  26
TORSDOF 7
ENDMDL
MODEL 4
REMARK VINA RESULT:      -8.4      0.951      1.859
REMARK  7 active torsions:
REMARK  status: ('A' for Active; 'I' for Inactive)
REMARK    1  A    between atoms: C6_6  and  O1_7 
REMARK    2  A    between atoms: C7_8  and  C8_9 
REMARK    3  A    between atoms: C8_9  and  N1_10 
REMARK    4  A    between atoms: N1_10  and  C9_11 
REMARK       I    between atoms: N1_10  and  C16_19 
REMARK    5  A    between atoms: C9_11  and  C10_12 
REMARK    6  A    between atoms: C13_15  and  O2_16 
REMARK       I    between atoms: C16_19  and  N2_21 
REMARK    7  A    between atoms: N2_21  and  C17_22 
ROOT
HETATM    1  N1  UNL     1      24.642   1.550  52.099  1.00  0.00    -0.325 N 
HETATM    2  C16 UNL     1      25.849   0.816  52.260  1.00  0.00     0.323 C 
HETATM    3  O3  UNL     1      26.495   0.661  51.193  1.00  0.00    -0.247 OA
HETATM    4  N2  UNL     1      26.453   0.231  53.403  1.00  0.00    -0.312 N 
HETATM    5  H18 UNL     1      25.908   0.368  54.277  1.00  0.00     0.170 HD
ENDROOT
BRANCH   1   6
HETATM    6  C8  UNL     1      24.417   1.934  50.733  1.00  0.00     0.169 C 
BRANCH   6   7
HETATM    7  C7  UNL     1      24.856   3.290  50.369  1.00  0.00    -0.006 A 
HETATM    8  C6  UNL     1      24.202   4.462  50.645  1.00  0.00     0.079 A 
HETATM    9  C4  UNL     1      24.609   5.732  50.296  1.00  0.00    -0.028 A 
HETATM   10  C3  UNL     1      25.789   5.885  49.599  1.00  0.00     0.016 A 
HETATM   11  C5  UNL     1      23.841   6.959  50.633  1.00  0.00     0.051 C 
HETATM   12  C2  UNL     1      26.511   4.737  49.283  1.00  0.00    -0.061 A 
HETATM   13  C1  UNL     1      27.771   4.970  48.532  1.00  0.00     0.048 C 
HETATM   14  C22 UNL     1      26.027   3.505  49.672  1.00  0.00     0.018 A 
BRANCH   8  15
HETATM   15  O1  UNL     1      23.005   4.444  51.344  1.00  0.00    -0.360 OA
HETATM   16  H8  UNL     1      22.275   3.798  51.069  1.00  0.00     0.217 HD
ENDBRANCH   8  15
ENDBRANCH   6   7
ENDBRANCH   1   6
BRANCH   1  17
HETATM   17  C9  UNL     1      23.833   1.837  53.260  1.00  0.00     0.166 C 
BRANCH  17  18
HETATM   18  C10 UNL     1      22.769   0.813  53.492  1.00  0.00    -0.040 A 
HETATM   19  C11 UNL     1      21.478   1.161  53.082  1.00  0.00     0.011 A 
HETATM   20  C12 UNL     1      20.360   0.341  53.211  1.00  0.00     0.037 A 
HETATM   21  C13 UNL     1      20.619  -0.897  53.800  1.00  0.00     0.065 A 
HETATM   22  C14 UNL     1      21.852  -1.318  54.230  1.00  0.00     0.037 A 
HETATM   23  C15 UNL     1      22.869  -0.436  54.053  1.00  0.00     0.011 A 
BRANCH  21  24
HETATM   24  O2  UNL     1      19.507  -1.727  53.935  1.00  0.00    -0.361 OA
HETATM   25  H15 UNL     1      18.583  -1.276  54.015  1.00  0.00     0.217 HD
ENDBRANCH  21  24
ENDBRANCH  17  18
ENDBRANCH   1  17
BRANCH   4  26
HETATM   26  C17 UNL     1      27.677  -0.482  53.412  1.00  0.00     0.017 A 
HETATM   27  C18 UNL     1      27.997  -1.706  53.079  1.00  0.00     0.025 A 
HETATM   28  C19 UNL     1      29.396  -2.030  53.248  1.00  0.00    -0.002 A 
HETATM   29  C20 UNL     1      29.969  -0.942  53.712  1.00  0.00    -0.021 A 
HETATM   30  C21 UNL     1      28.963   0.120  53.858  1.00  0.00     0.084 A 
ENDBRANCH   4  26
TORSDOF 7
ENDMDL
MODEL 5
REMARK VINA RESULT:      -8.4      2.238      7.195
REMARK  7 active torsions:
REMARK  status: ('A' for Active; 'I' for Inactive)
REMARK    1  A    between atoms: C6_6  and  O1_7 
REMARK    2  A    between atoms: C7_8  and  C8_9 
REMARK    3  A    between atoms: C8_9  and  N1_10 
REMARK    4  A    between atoms: N1_10  and  C9_11 
REMARK       I    between atoms: N1_10  and  C16_19 
REMARK    5  A    between atoms: C9_11  and  C10_12 
REMARK    6  A    between atoms: C13_15  and  O2_16 
REMARK       I    between atoms: C16_19  and  N2_21 
REMARK    7  A    between atoms: N2_21  and  C17_22 
ROOT
HETATM    1  N1  UNL     1      24.410   2.839  52.219  1.00  0.00    -0.325 N 
HETATM    2  C16 UNL     1      24.174   4.047  51.508  1.00  0.00     0.323 C 
HETATM    3  O3  UNL     1      23.683   3.874  50.364  1.00  0.00    -0.247 OA
HETATM    4  N2  UNL     1      24.392   5.405  51.855  1.00  0.00    -0.312 N 
HETATM    5  H18 UNL     1      24.799   5.532  52.802  1.00  0.00     0.170 HD
ENDROOT
BRANCH   1   6
HETATM    6  C8  UNL     1      24.051   1.677  51.454  1.00  0.00     0.169 C 
BRANCH   6   7
HETATM    7  C7  UNL     1      22.844   0.965  51.901  1.00  0.00    -0.006 A 
HETATM    8  C6  UNL     1      21.584   1.081  51.374  1.00  0.00     0.079 A 
HETATM    9  C4  UNL     1      20.452   0.419  51.797  1.00  0.00    -0.028 A 
HETATM   10  C3  UNL     1      20.551  -0.460  52.855  1.00  0.00     0.016 A 
HETATM   11  C5  UNL     1      19.116   0.601  51.172  1.00  0.00     0.051 C 
HETATM   12  C2  UNL     1      21.802  -0.632  53.442  1.00  0.00    -0.061 A 
HETATM   13  C1  UNL     1      21.840  -1.592  54.575  1.00  0.00     0.048 C 
HETATM   14  C22 UNL     1      22.882   0.073  52.952  1.00  0.00     0.018 A 
BRANCH   8  15
HETATM   15  O1  UNL     1      21.354   1.932  50.303  1.00  0.00    -0.360 OA
HETATM   16  H8  UNL     1      20.570   1.757  49.686  1.00  0.00     0.217 HD
ENDBRANCH   8  15
ENDBRANCH   6   7
ENDBRANCH   1   6
BRANCH   1  17
HETATM   17  C9  UNL     1      24.930   2.906  53.565  1.00  0.00     0.166 C 
BRANCH  17  18
HETATM   18  C10 UNL     1      26.068   1.964  53.793  1.00  0.00    -0.040 A 
HETATM   19  C11 UNL     1      27.284   2.310  53.193  1.00  0.00     0.011 A 
HETATM   20  C12 UNL     1      28.455   1.562  53.293  1.00  0.00     0.037 A 
HETATM   21  C13 UNL     1      28.333   0.401  54.058  1.00  0.00     0.065 A 
HETATM   22  C14 UNL     1      27.181  -0.011  54.680  1.00  0.00     0.037 A 
HETATM   23  C15 UNL     1      26.103   0.796  54.513  1.00  0.00     0.011 A 
BRANCH  21  24
HETATM   24  O2  UNL     1      29.499  -0.356  54.166  1.00  0.00    -0.361 OA
HETATM   25  H15 UNL     1      30.173  -0.090  54.899  1.00  0.00     0.217 HD
ENDBRANCH  21  24
ENDBRANCH  17  18
ENDBRANCH   1  17
BRANCH   4  26
HETATM   26  C17 UNL     1      24.105   6.521  51.031  1.00  0.00     0.017 A 
HETATM   27  C18 UNL     1      23.001   7.175  50.771  1.00  0.00     0.025 A 
HETATM   28  C19 UNL     1      23.158   8.279  49.850  1.00  0.00    -0.002 A 
HETATM   29  C20 UNL     1      24.432   8.304  49.525  1.00  0.00    -0.021 A 
HETATM   30  C21 UNL     1      25.139   7.221  50.223  1.00  0.00     0.084 A 
ENDBRANCH   4  26
TORSDOF 7
ENDMDL
MODEL 6
REMARK VINA RESULT:      -8.4      2.008      6.264
REMARK  7 active torsions:
REMARK  status: ('A' for Active; 'I' for Inactive)
REMARK    1  A    between atoms: C6_6  and  O1_7 
REMARK    2  A    between atoms: C7_8  and  C8_9 
REMARK    3  A    between atoms: C8_9  and  N1_10 
REMARK    4  A    between atoms: N1_10  and  C9_11 
REMARK       I    between atoms: N1_10  and  C16_19 
REMARK    5  A    between atoms: C9_11  and  C10_12 
REMARK    6  A    between atoms: C13_15  and  O2_16 
REMARK       I    between atoms: C16_19  and  N2_21 
REMARK    7  A    between atoms: N2_21  and  C17_22 
ROOT
HETATM    1  N1  UNL     1      23.358   0.669  52.613  1.00  0.00    -0.325 N 
HETATM    2  C16 UNL     1      24.662   0.218  52.957  1.00  0.00     0.323 C 
HETATM    3  O3  UNL     1      24.718  -0.375  54.063  1.00  0.00    -0.247 OA
HETATM    4  N2  UNL     1      25.905   0.316  52.279  1.00  0.00    -0.312 N 
HETATM    5  H18 UNL     1      25.843   0.809  51.367  1.00  0.00     0.170 HD
ENDROOT
BRANCH   1   6
HETATM    6  C8  UNL     1      22.390   0.362  53.628  1.00  0.00     0.169 C 
BRANCH   6   7
HETATM    7  C7  UNL     1      21.035   0.051  53.148  1.00  0.00    -0.006 A 
HETATM    8  C6  UNL     1      20.198  -0.919  53.634  1.00  0.00     0.079 A 
HETATM    9  C4  UNL     1      18.932  -1.215  53.179  1.00  0.00    -0.028 A 
HETATM   10  C3  UNL     1      18.413  -0.485  52.130  1.00  0.00     0.016 A 
HETATM   11  C5  UNL     1      18.083  -2.288  53.761  1.00  0.00     0.051 C 
HETATM   12  C2  UNL     1      19.206   0.521  51.584  1.00  0.00    -0.061 A 
HETATM   13  C1  UNL     1      18.590   1.268  50.458  1.00  0.00     0.048 C 
HETATM   14  C22 UNL     1      20.464   0.747  52.103  1.00  0.00     0.018 A 
BRANCH   8  15
HETATM   15  O1  UNL     1      20.601  -1.720  54.692  1.00  0.00    -0.360 OA
HETATM   16  H8  UNL     1      20.022  -1.783  55.520  1.00  0.00     0.217 HD
ENDBRANCH   8  15
ENDBRANCH   6   7
ENDBRANCH   1   6
BRANCH   1  17
HETATM   17  C9  UNL     1      23.154   1.325  51.342  1.00  0.00     0.166 C 
BRANCH  17  18
HETATM   18  C10 UNL     1      23.536   2.769  51.368  1.00  0.00    -0.040 A 
HETATM   19  C11 UNL     1      22.885   3.563  52.319  1.00  0.00     0.011 A 
HETATM   20  C12 UNL     1      23.108   4.926  52.497  1.00  0.00     0.037 A 
HETATM   21  C13 UNL     1      24.058   5.471  51.633  1.00  0.00     0.065 A 
HETATM   22  C14 UNL     1      24.742   4.767  50.674  1.00  0.00     0.037 A 
HETATM   23  C15 UNL     1      24.443   3.445  50.591  1.00  0.00     0.011 A 
BRANCH  21  24
HETATM   24  O2  UNL     1      24.290   6.836  51.801  1.00  0.00    -0.361 OA
HETATM   25  H15 UNL     1      24.580   7.375  50.971  1.00  0.00     0.217 HD
ENDBRANCH  21  24
ENDBRANCH  17  18
ENDBRANCH   1  17
BRANCH   4  26
HETATM   26  C17 UNL     1      27.141  -0.188  52.752  1.00  0.00     0.017 A 
HETATM   27  C18 UNL     1      27.657  -1.390  52.789  1.00  0.00     0.025 A 
HETATM   28  C19 UNL     1      28.979  -1.460  53.371  1.00  0.00    -0.002 A 
HETATM   29  C20 UNL     1      29.294  -0.230  53.710  1.00  0.00    -0.021 A 
HETATM   30  C21 UNL     1      28.190   0.675  53.361  1.00  0.00     0.084 A 
ENDBRANCH   4  26
TORSDOF 7
ENDMDL
MODEL 7
REMARK VINA RESULT:      -8.4      1.793      2.462
REMARK  7 active torsions:
REMARK  status: ('A' for Active; 'I' for Inactive)
REMARK    1  A    between atoms: C6_6  and  O1_7 
REMARK    2  A    between atoms: C7_8  and  C8_9 
REMARK    3  A    between atoms: C8_9  and  N1_10 
REMARK    4  A    between atoms: N1_10  and  C9_11 
REMARK       I    between atoms: N1_10  and  C16_19 
REMARK    5  A    between atoms: C9_11  and  C10_12 
REMARK    6  A    between atoms: C13_15  and  O2_16 
REMARK       I    between atoms: C16_19  and  N2_21 
REMARK    7  A    between atoms: N2_21  and  C17_22 
ROOT
HETATM    1  N1  UNL     1      24.999   3.050  51.333  1.00  0.00    -0.325 N 
HETATM    2  C16 UNL     1      26.086   2.222  51.727  1.00  0.00     0.323 C 
HETATM    3  O3  UNL     1      26.740   1.751  50.763  1.00  0.00    -0.247 OA
HETATM    4  N2  UNL     1      26.562   1.835  53.006  1.00  0.00    -0.312 N 
HETATM    5  H18 UNL     1      26.012   2.232  53.793  1.00  0.00     0.170 HD
ENDROOT
BRANCH   1   6
HETATM    6  C8  UNL     1      24.877   3.145  49.905  1.00  0.00     0.169 C 
BRANCH   6   7
HETATM    7  C7  UNL     1      25.175   4.463  49.323  1.00  0.00    -0.006 A 
HETATM    8  C6  UNL     1      26.418   4.991  49.090  1.00  0.00     0.079 A 
HETATM    9  C4  UNL     1      26.696   6.229  48.552  1.00  0.00    -0.028 A 
HETATM   10  C3  UNL     1      25.648   7.052  48.196  1.00  0.00     0.016 A 
HETATM   11  C5  UNL     1      28.076   6.733  48.330  1.00  0.00     0.051 C 
HETATM   12  C2  UNL     1      24.353   6.581  48.402  1.00  0.00    -0.061 A 
HETATM   13  C1  UNL     1      23.271   7.515  47.999  1.00  0.00     0.048 C 
HETATM   14  C22 UNL     1      24.168   5.328  48.948  1.00  0.00     0.018 A 
BRANCH   8  15
HETATM   15  O1  UNL     1      27.554   4.261  49.401  1.00  0.00    -0.360 OA
HETATM   16  H8  UNL     1      27.583   3.722  50.258  1.00  0.00     0.217 HD
ENDBRANCH   8  15
ENDBRANCH   6   7
ENDBRANCH   1   6
BRANCH   1  17
HETATM   17  C9  UNL     1      24.198   3.691  52.350  1.00  0.00     0.166 C 
BRANCH  17  18
HETATM   18  C10 UNL     1      22.740   3.392  52.211  1.00  0.00    -0.040 A 
HETATM   19  C11 UNL     1      22.355   2.069  52.457  1.00  0.00     0.011 A 
HETATM   20  C12 UNL     1      21.046   1.600  52.381  1.00  0.00     0.037 A 
HETATM   21  C13 UNL     1      20.107   2.570  52.029  1.00  0.00     0.065 A 
HETATM   22  C14 UNL     1      20.398   3.887  51.772  1.00  0.00     0.037 A 
HETATM   23  C15 UNL     1      21.707   4.230  51.876  1.00  0.00     0.011 A 
BRANCH  21  24
HETATM   24  O2  UNL     1      18.792   2.113  51.950  1.00  0.00    -0.361 OA
HETATM   25  H15 UNL     1      18.559   1.468  51.179  1.00  0.00     0.217 HD
ENDBRANCH  21  24
ENDBRANCH  17  18
ENDBRANCH   1  17
BRANCH   4  26
HETATM   26  C17 UNL     1      27.674   0.991  53.249  1.00  0.00     0.017 A 
HETATM   27  C18 UNL     1      28.927   1.231  53.538  1.00  0.00     0.025 A 
HETATM   28  C19 UNL     1      29.743   0.049  53.708  1.00  0.00    -0.002 A 
HETATM   29  C20 UNL     1      28.944  -0.977  53.513  1.00  0.00    -0.021 A 
HETATM   30  C21 UNL     1      27.589  -0.494  53.210  1.00  0.00     0.084 A 
ENDBRANCH   4  26
TORSDOF 7
ENDMDL
MODEL 8
REMARK VINA RESULT:      -8.3      2.361      6.595
REMARK  7 active torsions:
REMARK  status: ('A' for Active; 'I' for Inactive)
REMARK    1  A    between atoms: C6_6  and  O1_7 
REMARK    2  A    between atoms: C7_8  and  C8_9 
REMARK    3  A    between atoms: C8_9  and  N1_10 
REMARK    4  A    between atoms: N1_10  and  C9_11 
REMARK       I    between atoms: N1_10  and  C16_19 
REMARK    5  A    between atoms: C9_11  and  C10_12 
REMARK    6  A    between atoms: C13_15  and  O2_16 
REMARK       I    between atoms: C16_19  and  N2_21 
REMARK    7  A    between atoms: N2_21  and  C17_22 
ROOT
HETATM    1  N1  UNL     1      25.716   3.196  50.616  1.00  0.00    -0.325 N 
HETATM    2  C16 UNL     1      26.092   4.402  49.964  1.00  0.00     0.323 C 
HETATM    3  O3  UNL     1      25.377   5.388  50.272  1.00  0.00    -0.247 OA
HETATM    4  N2  UNL     1      27.124   4.691  49.035  1.00  0.00    -0.312 N 
HETATM    5  H18 UNL     1      27.707   3.867  48.790  1.00  0.00     0.170 HD
ENDROOT
BRANCH   1   6
HETATM    6  C8  UNL     1      24.576   3.371  51.471  1.00  0.00     0.169 C 
BRANCH   6   7
HETATM    7  C7  UNL     1      23.511   2.366  51.334  1.00  0.00    -0.006 A 
HETATM    8  C6  UNL     1      23.164   1.412  52.254  1.00  0.00     0.079 A 
HETATM    9  C4  UNL     1      22.172   0.465  52.122  1.00  0.00    -0.028 A 
HETATM   10  C3  UNL     1      21.427   0.438  50.962  1.00  0.00     0.016 A 
HETATM   11  C5  UNL     1      21.855  -0.541  53.170  1.00  0.00     0.051 C 
HETATM   12  C2  UNL     1      21.721   1.380  49.979  1.00  0.00    -0.061 A 
HETATM   13  C1  UNL     1      20.883   1.298  48.755  1.00  0.00     0.048 C 
HETATM   14  C22 UNL     1      22.734   2.292  50.197  1.00  0.00     0.018 A 
BRANCH   8  15
HETATM   15  O1  UNL     1      23.837   1.335  53.465  1.00  0.00    -0.360 OA
HETATM   16  H8  UNL     1      23.875   2.149  54.067  1.00  0.00     0.217 HD
ENDBRANCH   8  15
ENDBRANCH   6   7
ENDBRANCH   1   6
BRANCH   1  17
HETATM   17  C9  UNL     1      26.491   1.999  50.382  1.00  0.00     0.166 C 
BRANCH  17  18
HETATM   18  C10 UNL     1      26.863   1.294  51.646  1.00  0.00    -0.040 A 
HETATM   19  C11 UNL     1      27.568   2.049  52.590  1.00  0.00     0.011 A 
HETATM   20  C12 UNL     1      27.998   1.569  53.824  1.00  0.00     0.037 A 
HETATM   21  C13 UNL     1      27.669   0.235  54.070  1.00  0.00     0.065 A 
HETATM   22  C14 UNL     1      26.981  -0.575  53.202  1.00  0.00     0.037 A 
HETATM   23  C15 UNL     1      26.613  -0.000  52.028  1.00  0.00     0.011 A 
BRANCH  21  24
HETATM   24  O2  UNL     1      28.094  -0.257  55.303  1.00  0.00    -0.361 OA
HETATM   25  H15 UNL     1      27.398  -0.748  55.885  1.00  0.00     0.217 HD
ENDBRANCH  21  24
ENDBRANCH  17  18
ENDBRANCH   1  17
BRANCH   4  26
HETATM   26  C17 UNL     1      27.383   5.960  48.461  1.00  0.00     0.017 A 
HETATM   27  C18 UNL     1      26.603   6.935  48.066  1.00  0.00     0.025 A 
HETATM   28  C19 UNL     1      27.299   8.082  47.527  1.00  0.00    -0.002 A 
HETATM   29  C20 UNL     1      28.581   7.796  47.595  1.00  0.00    -0.021 A 
HETATM   30  C21 UNL     1      28.756   6.459  48.178  1.00  0.00     0.084 A 
ENDBRANCH   4  26
TORSDOF 7
ENDMDL
MODEL 9
REMARK VINA RESULT:      -8.2      1.857      6.285
REMARK  7 active torsions:
REMARK  status: ('A' for Active; 'I' for Inactive)
REMARK    1  A    between atoms: C6_6  and  O1_7 
REMARK    2  A    between atoms: C7_8  and  C8_9 
REMARK    3  A    between atoms: C8_9  and  N1_10 
REMARK    4  A    between atoms: N1_10  and  C9_11 
REMARK       I    between atoms: N1_10  and  C16_19 
REMARK    5  A    between atoms: C9_11  and  C10_12 
REMARK    6  A    between atoms: C13_15  and  O2_16 
REMARK       I    between atoms: C16_19  and  N2_21 
REMARK    7  A    between atoms: N2_21  and  C17_22 
ROOT
HETATM    1  N1  UNL     1      25.087   3.145  51.717  1.00  0.00    -0.325 N 
HETATM    2  C16 UNL     1      24.910   4.390  51.054  1.00  0.00     0.323 C 
HETATM    3  O3  UNL     1      25.581   4.502  49.998  1.00  0.00    -0.247 OA
HETATM    4  N2  UNL     1      24.117   5.523  51.370  1.00  0.00    -0.312 N 
HETATM    5  H18 UNL     1      23.568   5.416  52.245  1.00  0.00     0.170 HD
ENDROOT
BRANCH   1   6
HETATM    6  C8  UNL     1      26.021   2.293  51.034  1.00  0.00     0.169 C 
BRANCH   6   7
HETATM    7  C7  UNL     1      26.778   1.362  51.885  1.00  0.00    -0.006 A 
HETATM    8  C6  UNL     1      27.767   1.689  52.775  1.00  0.00     0.079 A 
HETATM    9  C4  UNL     1      28.481   0.815  53.566  1.00  0.00    -0.028 A 
HETATM   10  C3  UNL     1      28.205  -0.533  53.488  1.00  0.00     0.016 A 
HETATM   11  C5  UNL     1      29.544   1.249  54.511  1.00  0.00     0.051 C 
HETATM   12  C2  UNL     1      27.209  -0.942  52.604  1.00  0.00    -0.061 A 
HETATM   13  C1  UNL     1      26.961  -2.406  52.567  1.00  0.00     0.048 C 
HETATM   14  C22 UNL     1      26.545   0.003  51.850  1.00  0.00     0.018 A 
BRANCH   8  15
HETATM   15  O1  UNL     1      28.137   3.014  52.950  1.00  0.00    -0.360 OA
HETATM   16  H8  UNL     1      29.031   3.334  52.598  1.00  0.00     0.217 HD
ENDBRANCH   8  15
ENDBRANCH   6   7
ENDBRANCH   1   6
BRANCH   1  17
HETATM   17  C9  UNL     1      24.334   2.875  52.919  1.00  0.00     0.166 C 
BRANCH  17  18
HETATM   18  C10 UNL     1      23.161   1.981  52.679  1.00  0.00    -0.040 A 
HETATM   19  C11 UNL     1      21.976   2.611  52.282  1.00  0.00     0.011 A 
HETATM   20  C12 UNL     1      20.782   1.949  52.011  1.00  0.00     0.037 A 
HETATM   21  C13 UNL     1      20.843   0.563  52.166  1.00  0.00     0.065 A 
HETATM   22  C14 UNL     1      21.961  -0.134  52.550  1.00  0.00     0.037 A 
HETATM   23  C15 UNL     1      23.067   0.616  52.789  1.00  0.00     0.011 A 
BRANCH  21  24
HETATM   24  O2  UNL     1      19.653  -0.111  51.897  1.00  0.00    -0.361 OA
HETATM   25  H15 UNL     1      19.249  -0.683  52.654  1.00  0.00     0.217 HD
ENDBRANCH  21  24
ENDBRANCH  17  18
ENDBRANCH   1  17
BRANCH   4  26
HETATM   26  C17 UNL     1      24.040   6.713  50.604  1.00  0.00     0.017 A 
HETATM   27  C18 UNL     1      24.814   7.763  50.510  1.00  0.00     0.025 A 
HETATM   28  C19 UNL     1      24.350   8.773  49.585  1.00  0.00    -0.002 A 
HETATM   29  C20 UNL     1      23.226   8.316  49.080  1.00  0.00    -0.021 A 
HETATM   30  C21 UNL     1      22.925   6.999  49.660  1.00  0.00     0.084 A 
ENDBRANCH   4  26
TORSDOF 7
ENDMDL
