MODEL 1
REMARK VINA RESULT:      -7.1      0.000      0.000
REMARK  11 active torsions:
REMARK  status: ('A' for Active; 'I' for Inactive)
REMARK    1  A    between atoms: C2_2  and  C3_3 
REMARK    2  A    between atoms: C3_3  and  C14_18 
REMARK    3  A    between atoms: C4_4  and  C5_5 
REMARK    4  A    between atoms: C5_5  and  C6_6 
REMARK    5  A    between atoms: C7_7  and  C8_8 
REMARK    6  A    between atoms: C7_7  and  N2_10 
REMARK    7  A    between atoms: C8_8  and  N1_9 
REMARK    8  A    between atoms: C14_18  and  N3_19 
REMARK       I    between atoms: N3_19  and  C15_20 
REMARK    9  A    between atoms: C15_20  and  C16_22 
REMARK   10  A    between atoms: C16_22  and  C17_23 
REMARK   11  A    between atoms: C17_23  and  N4_25 
ROOT
HETATM    1  C3  UNL     1      26.584   4.590  49.265  1.00  0.00    -0.066 C 
HETATM    2  C4  UNL     1      26.075   3.650  50.055  1.00  0.00    -0.019 C 
ENDROOT
BRANCH   2   3
HETATM    3  C5  UNL     1      26.456   2.369  50.674  1.00  0.00     0.056 C 
BRANCH   3   4
HETATM    4  C6  UNL     1      25.416   1.829  51.609  1.00  0.00     0.004 C 
HETATM    5  C7  UNL     1      25.512   1.085  52.702  1.00  0.00     0.029 C 
BRANCH   5   6
HETATM    6  C8  UNL     1      24.476   0.546  53.635  1.00  0.00     0.168 C 
BRANCH   6   7
HETATM    7  N1  UNL     1      23.563  -0.344  52.967  1.00  0.00    -0.425 N 
HETATM    8  H12 UNL     1      23.569  -1.305  53.338  1.00  0.00     0.150 HD
HETATM    9  H13 UNL     1      22.653   0.072  52.750  1.00  0.00     0.150 HD
ENDBRANCH   6   7
ENDBRANCH   5   6
BRANCH   5  10
HETATM   10  N2  UNL     1      26.806   0.697  53.115  1.00  0.00    -0.334 N 
HETATM   11  C9  UNL     1      27.652   1.670  53.703  1.00  0.00     0.095 A 
HETATM   12  C10 UNL     1      28.852   1.274  54.075  1.00  0.00     0.033 A 
HETATM   13  C11 UNL     1      29.430  -0.077  53.952  1.00  0.00     0.240 A 
HETATM   14  F1  UNL     1      30.636  -0.093  53.277  1.00  0.00    -0.239 F 
HETATM   15  C12 UNL     1      28.419  -0.966  53.319  1.00  0.00     0.065 A 
HETATM   16 CL1  UNL     1      29.114  -2.574  53.175  1.00  0.00    -0.084 Cl
HETATM   17  C13 UNL     1      27.205  -0.672  52.915  1.00  0.00     0.119 A 
ENDBRANCH   5  10
ENDBRANCH   3   4
ENDBRANCH   2   3
BRANCH   1  18
HETATM   18  C2  UNL     1      27.845   4.846  48.573  1.00  0.00     0.031 C 
HETATM   19  C1  UNL     1      28.073   6.300  48.235  1.00  0.00     0.010 C 
ENDBRANCH   1  18
BRANCH   1  20
HETATM   20  C14 UNL     1      25.810   5.771  48.877  1.00  0.00     0.156 C 
BRANCH  20  21
HETATM   21  N3  UNL     1      24.422   5.745  49.293  1.00  0.00    -0.357 N 
HETATM   22  C15 UNL     1      24.050   6.598  50.372  1.00  0.00     0.219 C 
HETATM   23  O1  UNL     1      25.067   7.253  50.783  1.00  0.00    -0.274 OA
HETATM   24  H20 UNL     1      23.769   5.106  48.786  1.00  0.00     0.162 HD
BRANCH  22  25
HETATM   25  C16 UNL     1      22.614   6.557  50.788  1.00  0.00     0.138 C 
BRANCH  25  26
HETATM   26  C17 UNL     1      22.297   5.119  51.130  1.00  0.00     0.226 C 
HETATM   27  C18 UNL     1      22.945   4.708  52.437  1.00  0.00     0.043 C 
BRANCH  26  28
HETATM   28  N4  UNL     1      20.885   4.887  51.267  1.00  0.00     0.084 N 
HETATM   29  C19 UNL     1      20.573   3.677  51.983  1.00  0.00     0.309 C 
HETATM   30  C20 UNL     1      20.165   4.995  50.021  1.00  0.00     0.309 C 
ENDBRANCH  26  28
ENDBRANCH  25  26
ENDBRANCH  22  25
ENDBRANCH  20  21
ENDBRANCH   1  20
TORSDOF 11
ENDMDL
MODEL 2
REMARK VINA RESULT:      -7.1      3.408      6.252
REMARK  11 active torsions:
REMARK  status: ('A' for Active; 'I' for Inactive)
REMARK    1  A    between atoms: C2_2  and  C3_3 
REMARK    2  A    between atoms: C3_3  and  C14_18 
REMARK    3  A    between atoms: C4_4  and  C5_5 
REMARK    4  A    between atoms: C5_5  and  C6_6 
REMARK    5  A    between atoms: C7_7  and  C8_8 
REMARK    6  A    between atoms: C7_7  and  N2_10 
REMARK    7  A    between atoms: C8_8  and  N1_9 
REMARK    8  A    between atoms: C14_18  and  N3_19 
REMARK       I    between atoms: N3_19  and  C15_20 
REMARK    9  A    between atoms: C15_20  and  C16_22 
REMARK   10  A    between atoms: C16_22  and  C17_23 
REMARK   11  A    between atoms: C17_23  and  N4_25 
ROOT
HETATM    1  C3  UNL     1      26.825   5.269  48.870  1.00  0.00    -0.066 C 
HETATM    2  C4  UNL     1      27.116   4.019  49.217  1.00  0.00    -0.019 C 
ENDROOT
BRANCH   2   3
HETATM    3  C5  UNL     1      26.453   2.808  49.731  1.00  0.00     0.056 C 
BRANCH   3   4
HETATM    4  C6  UNL     1      25.451   3.093  50.809  1.00  0.00     0.004 C 
HETATM    5  C7  UNL     1      25.336   2.637  52.049  1.00  0.00     0.029 C 
BRANCH   5   6
HETATM    6  C8  UNL     1      24.337   2.921  53.125  1.00  0.00     0.168 C 
BRANCH   6   7
HETATM    7  N1  UNL     1      24.158   4.334  53.332  1.00  0.00    -0.425 N 
HETATM    8  H12 UNL     1      23.550   4.565  54.131  1.00  0.00     0.150 HD
HETATM    9  H13 UNL     1      25.011   4.888  53.213  1.00  0.00     0.150 HD
ENDBRANCH   6   7
ENDBRANCH   5   6
BRANCH   5  10
HETATM   10  N2  UNL     1      26.304   1.712  52.497  1.00  0.00    -0.334 N 
HETATM   11  C9  UNL     1      27.445   2.200  53.182  1.00  0.00     0.095 A 
HETATM   12  C10 UNL     1      28.327   1.308  53.585  1.00  0.00     0.033 A 
HETATM   13  C11 UNL     1      28.272  -0.154  53.405  1.00  0.00     0.240 A 
HETATM   14  F1  UNL     1      29.396  -0.669  52.788  1.00  0.00    -0.239 F 
HETATM   15  C12 UNL     1      27.023  -0.493  52.674  1.00  0.00     0.065 A 
HETATM   16 CL1  UNL     1      26.963  -2.237  52.463  1.00  0.00    -0.084 Cl
HETATM   17  C13 UNL     1      26.085   0.314  52.232  1.00  0.00     0.119 A 
ENDBRANCH   5  10
ENDBRANCH   3   4
ENDBRANCH   2   3
BRANCH   1  18
HETATM   18  C2  UNL     1      25.641   6.122  48.815  1.00  0.00     0.031 C 
HETATM   19  C1  UNL     1      25.291   6.769  50.133  1.00  0.00     0.010 C 
ENDBRANCH   1  18
BRANCH   1  20
HETATM   20  C14 UNL     1      27.853   6.189  48.380  1.00  0.00     0.156 C 
BRANCH  20  21
HETATM   21  N3  UNL     1      29.210   5.810  48.716  1.00  0.00    -0.357 N 
HETATM   22  C15 UNL     1      30.252   6.313  47.884  1.00  0.00     0.219 C 
HETATM   23  O1  UNL     1      29.758   7.038  46.954  1.00  0.00    -0.274 OA
HETATM   24  H20 UNL     1      29.357   5.192  49.545  1.00  0.00     0.162 HD
BRANCH  22  25
HETATM   25  C16 UNL     1      31.647   5.912  48.245  1.00  0.00     0.138 C 
BRANCH  25  26
HETATM   26  C17 UNL     1      32.170   5.071  47.103  1.00  0.00     0.226 C 
HETATM   27  C18 UNL     1      33.207   5.823  46.294  1.00  0.00     0.043 C 
BRANCH  26  28
HETATM   28  N4  UNL     1      32.789   3.855  47.558  1.00  0.00     0.084 N 
HETATM   29  C19 UNL     1      34.203   3.990  47.795  1.00  0.00     0.309 C 
HETATM   30  C20 UNL     1      32.472   2.712  46.737  1.00  0.00     0.309 C 
ENDBRANCH  26  28
ENDBRANCH  25  26
ENDBRANCH  22  25
ENDBRANCH  20  21
ENDBRANCH   1  20
TORSDOF 11
ENDMDL
MODEL 3
REMARK VINA RESULT:      -7.0      4.419      8.419
REMARK  11 active torsions:
REMARK  status: ('A' for Active; 'I' for Inactive)
REMARK    1  A    between atoms: C2_2  and  C3_3 
REMARK    2  A    between atoms: C3_3  and  C14_18 
REMARK    3  A    between atoms: C4_4  and  C5_5 
REMARK    4  A    between atoms: C5_5  and  C6_6 
REMARK    5  A    between atoms: C7_7  and  C8_8 
REMARK    6  A    between atoms: C7_7  and  N2_10 
REMARK    7  A    between atoms: C8_8  and  N1_9 
REMARK    8  A    between atoms: C14_18  and  N3_19 
REMARK       I    between atoms: N3_19  and  C15_20 
REMARK    9  A    between atoms: C15_20  and  C16_22 
REMARK   10  A    between atoms: C16_22  and  C17_23 
REMARK   11  A    between atoms: C17_23  and  N4_25 
ROOT
HETATM    1  C3  UNL     1      22.278   0.482  53.583  1.00  0.00    -0.066 C 
HETATM    2  C4  UNL     1      22.588   1.530  52.827  1.00  0.00    -0.019 C 
ENDROOT
BRANCH   2   3
HETATM    3  C5  UNL     1      21.994   2.789  52.347  1.00  0.00     0.056 C 
BRANCH   3   4
HETATM    4  C6  UNL     1      22.998   3.887  52.164  1.00  0.00     0.004 C 
HETATM    5  C7  UNL     1      23.431   4.517  51.080  1.00  0.00     0.029 C 
BRANCH   5   6
HETATM    6  C8  UNL     1      24.432   5.612  50.898  1.00  0.00     0.168 C 
BRANCH   6   7
HETATM    7  N1  UNL     1      24.286   6.643  51.891  1.00  0.00    -0.425 N 
HETATM    8  H12 UNL     1      23.377   7.126  51.861  1.00  0.00     0.150 HD
HETATM    9  H13 UNL     1      24.659   6.397  52.812  1.00  0.00     0.150 HD
ENDBRANCH   6   7
ENDBRANCH   5   6
BRANCH   5  10
HETATM   10  N2  UNL     1      22.881   4.130  49.839  1.00  0.00    -0.334 N 
HETATM   11  C9  UNL     1      23.346   2.936  49.233  1.00  0.00     0.095 A 
HETATM   12  C10 UNL     1      22.811   2.605  48.075  1.00  0.00     0.033 A 
HETATM   13  C11 UNL     1      21.775   3.337  47.322  1.00  0.00     0.240 A 
HETATM   14  F1  UNL     1      22.151   3.632  46.026  1.00  0.00    -0.239 F 
HETATM   15  C12 UNL     1      21.404   4.553  48.092  1.00  0.00     0.065 A 
HETATM   16 CL1  UNL     1      20.170   5.421  47.191  1.00  0.00    -0.084 Cl
HETATM   17  C13 UNL     1      21.873   4.970  49.246  1.00  0.00     0.119 A 
ENDBRANCH   5  10
ENDBRANCH   3   4
ENDBRANCH   2   3
BRANCH   1  18
HETATM   18  C2  UNL     1      21.134   0.021  54.366  1.00  0.00     0.031 C 
HETATM   19  C1  UNL     1      20.878  -1.463  54.263  1.00  0.00     0.010 C 
ENDBRANCH   1  18
BRANCH   1  20
HETATM   20  C14 UNL     1      23.226  -0.611  53.810  1.00  0.00     0.156 C 
BRANCH  20  21
HETATM   21  N3  UNL     1      24.479  -0.478  53.095  1.00  0.00    -0.357 N 
HETATM   22  C15 UNL     1      25.672  -0.790  53.809  1.00  0.00     0.219 C 
HETATM   23  O1  UNL     1      25.388  -1.144  55.004  1.00  0.00    -0.274 OA
HETATM   24  H20 UNL     1      24.446  -0.164  52.099  1.00  0.00     0.162 HD
BRANCH  22  25
HETATM   25  C16 UNL     1      26.956  -0.647  53.055  1.00  0.00     0.138 C 
BRANCH  25  26
HETATM   26  C17 UNL     1      27.790   0.369  53.800  1.00  0.00     0.226 C 
HETATM   27  C18 UNL     1      29.089  -0.238  54.292  1.00  0.00     0.043 C 
BRANCH  26  28
HETATM   28  N4  UNL     1      28.136   1.500  52.982  1.00  0.00     0.084 N 
HETATM   29  C19 UNL     1      28.850   2.526  53.698  1.00  0.00     0.309 C 
HETATM   30  C20 UNL     1      27.020   2.023  52.232  1.00  0.00     0.309 C 
ENDBRANCH  26  28
ENDBRANCH  25  26
ENDBRANCH  22  25
ENDBRANCH  20  21
ENDBRANCH   1  20
TORSDOF 11
ENDMDL
MODEL 4
REMARK VINA RESULT:      -7.0      3.747      6.671
REMARK  11 active torsions:
REMARK  status: ('A' for Active; 'I' for Inactive)
REMARK    1  A    between atoms: C2_2  and  C3_3 
REMARK    2  A    between atoms: C3_3  and  C14_18 
REMARK    3  A    between atoms: C4_4  and  C5_5 
REMARK    4  A    between atoms: C5_5  and  C6_6 
REMARK    5  A    between atoms: C7_7  and  C8_8 
REMARK    6  A    between atoms: C7_7  and  N2_10 
REMARK    7  A    between atoms: C8_8  and  N1_9 
REMARK    8  A    between atoms: C14_18  and  N3_19 
REMARK       I    between atoms: N3_19  and  C15_20 
REMARK    9  A    between atoms: C15_20  and  C16_22 
REMARK   10  A    between atoms: C16_22  and  C17_23 
REMARK   11  A    between atoms: C17_23  and  N4_25 
ROOT
HETATM    1  C3  UNL     1      27.154   5.642  48.670  1.00  0.00    -0.066 C 
HETATM    2  C4  UNL     1      27.170   4.351  48.986  1.00  0.00    -0.019 C 
ENDROOT
BRANCH   2   3
HETATM    3  C5  UNL     1      26.249   3.285  49.418  1.00  0.00     0.056 C 
BRANCH   3   4
HETATM    4  C6  UNL     1      25.184   3.765  50.357  1.00  0.00     0.004 C 
HETATM    5  C7  UNL     1      24.793   3.329  51.546  1.00  0.00     0.029 C 
BRANCH   5   6
HETATM    6  C8  UNL     1      23.730   3.808  52.482  1.00  0.00     0.168 C 
BRANCH   6   7
HETATM    7  N1  UNL     1      23.841   5.218  52.744  1.00  0.00    -0.425 N 
HETATM    8  H12 UNL     1      23.320   5.531  53.576  1.00  0.00     0.150 HD
HETATM    9  H13 UNL     1      24.782   5.599  52.608  1.00  0.00     0.150 HD
ENDBRANCH   6   7
ENDBRANCH   5   6
BRANCH   5  10
HETATM   10  N2  UNL     1      25.465   2.209  52.083  1.00  0.00    -0.334 N 
HETATM   11  C9  UNL     1      24.755   0.990  52.218  1.00  0.00     0.095 A 
HETATM   12  C10 UNL     1      25.414  -0.033  52.723  1.00  0.00     0.033 A 
HETATM   13  C11 UNL     1      26.819  -0.065  53.171  1.00  0.00     0.240 A 
HETATM   14  F1  UNL     1      26.965  -0.504  54.472  1.00  0.00    -0.239 F 
HETATM   15  C12 UNL     1      27.410   1.283  52.961  1.00  0.00     0.065 A 
HETATM   16 CL1  UNL     1      29.084   1.240  53.496  1.00  0.00    -0.084 Cl
HETATM   17  C13 UNL     1      26.844   2.361  52.469  1.00  0.00     0.119 A 
ENDBRANCH   5  10
ENDBRANCH   3   4
ENDBRANCH   2   3
BRANCH   1  18
HETATM   18  C2  UNL     1      26.168   6.716  48.582  1.00  0.00     0.031 C 
HETATM   19  C1  UNL     1      25.918   7.426  49.890  1.00  0.00     0.010 C 
ENDBRANCH   1  18
BRANCH   1  20
HETATM   20  C14 UNL     1      28.371   6.350  48.271  1.00  0.00     0.156 C 
BRANCH  20  21
HETATM   21  N3  UNL     1      29.574   5.909  48.947  1.00  0.00    -0.357 N 
HETATM   22  C15 UNL     1      30.811   6.098  48.266  1.00  0.00     0.219 C 
HETATM   23  O1  UNL     1      30.606   6.649  47.131  1.00  0.00    -0.274 OA
HETATM   24  H20 UNL     1      29.476   5.477  49.893  1.00  0.00     0.162 HD
BRANCH  22  25
HETATM   25  C16 UNL     1      32.043   5.636  48.979  1.00  0.00     0.138 C 
BRANCH  25  26
HETATM   26  C17 UNL     1      33.042   5.241  47.916  1.00  0.00     0.226 C 
HETATM   27  C18 UNL     1      34.421   5.787  48.226  1.00  0.00     0.043 C 
BRANCH  26  28
HETATM   28  N4  UNL     1      33.170   3.814  47.787  1.00  0.00     0.084 N 
HETATM   29  C19 UNL     1      34.537   3.361  47.811  1.00  0.00     0.309 C 
HETATM   30  C20 UNL     1      32.426   3.272  46.677  1.00  0.00     0.309 C 
ENDBRANCH  26  28
ENDBRANCH  25  26
ENDBRANCH  22  25
ENDBRANCH  20  21
ENDBRANCH   1  20
TORSDOF 11
ENDMDL
MODEL 5
REMARK VINA RESULT:      -6.9      4.275      7.808
REMARK  11 active torsions:
REMARK  status: ('A' for Active; 'I' for Inactive)
REMARK    1  A    between atoms: C2_2  and  C3_3 
REMARK    2  A    between atoms: C3_3  and  C14_18 
REMARK    3  A    between atoms: C4_4  and  C5_5 
REMARK    4  A    between atoms: C5_5  and  C6_6 
REMARK    5  A    between atoms: C7_7  and  C8_8 
REMARK    6  A    between atoms: C7_7  and  N2_10 
REMARK    7  A    between atoms: C8_8  and  N1_9 
REMARK    8  A    between atoms: C14_18  and  N3_19 
REMARK       I    between atoms: N3_19  and  C15_20 
REMARK    9  A    between atoms: C15_20  and  C16_22 
REMARK   10  A    between atoms: C16_22  and  C17_23 
REMARK   11  A    between atoms: C17_23  and  N4_25 
ROOT
HETATM    1  C3  UNL     1      26.737   4.773  49.227  1.00  0.00    -0.066 C 
HETATM    2  C4  UNL     1      27.855   4.904  48.520  1.00  0.00    -0.019 C 
ENDROOT
BRANCH   2   3
HETATM    3  C5  UNL     1      28.619   5.936  47.799  1.00  0.00     0.056 C 
BRANCH   3   4
HETATM    4  C6  UNL     1      29.521   6.737  48.689  1.00  0.00     0.004 C 
HETATM    5  C7  UNL     1      30.835   6.913  48.686  1.00  0.00     0.029 C 
BRANCH   5   6
HETATM    6  C8  UNL     1      31.735   7.712  49.574  1.00  0.00     0.168 C 
BRANCH   6   7
HETATM    7  N1  UNL     1      31.108   8.928  50.019  1.00  0.00    -0.425 N 
HETATM    8  H12 UNL     1      31.739   9.561  50.530  1.00  0.00     0.150 HD
HETATM    9  H13 UNL     1      30.472   9.348  49.335  1.00  0.00     0.150 HD
ENDBRANCH   6   7
ENDBRANCH   5   6
BRANCH   5  10
HETATM   10  N2  UNL     1      31.579   6.251  47.685  1.00  0.00    -0.334 N 
HETATM   11  C9  UNL     1      31.907   6.959  46.502  1.00  0.00     0.095 A 
HETATM   12  C10 UNL     1      32.602   6.310  45.590  1.00  0.00     0.033 A 
HETATM   13  C11 UNL     1      33.084   4.918  45.650  1.00  0.00     0.240 A 
HETATM   14  F1  UNL     1      32.683   4.156  44.569  1.00  0.00    -0.239 F 
HETATM   15  C12 UNL     1      32.657   4.327  46.945  1.00  0.00     0.065 A 
HETATM   16 CL1  UNL     1      33.234   2.668  47.011  1.00  0.00    -0.084 Cl
HETATM   17  C13 UNL     1      31.968   4.884  47.915  1.00  0.00     0.119 A 
ENDBRANCH   5  10
ENDBRANCH   3   4
ENDBRANCH   2   3
BRANCH   1  18
HETATM   18  C2  UNL     1      25.641   5.629  49.674  1.00  0.00     0.031 C 
HETATM   19  C1  UNL     1      24.699   6.045  48.570  1.00  0.00     0.010 C 
ENDBRANCH   1  18
BRANCH   1  20
HETATM   20  C14 UNL     1      26.333   3.487  49.797  1.00  0.00     0.156 C 
BRANCH  20  21
HETATM   21  N3  UNL     1      26.772   3.269  51.161  1.00  0.00    -0.357 N 
HETATM   22  C15 UNL     1      25.983   2.400  51.968  1.00  0.00     0.219 C 
HETATM   23  O1  UNL     1      24.990   1.959  51.294  1.00  0.00    -0.274 OA
HETATM   24  H20 UNL     1      27.638   3.757  51.483  1.00  0.00     0.162 HD
BRANCH  22  25
HETATM   25  C16 UNL     1      26.450   2.187  53.373  1.00  0.00     0.138 C 
BRANCH  25  26
HETATM   26  C17 UNL     1      27.793   1.499  53.289  1.00  0.00     0.226 C 
HETATM   27  C18 UNL     1      28.890   2.358  53.884  1.00  0.00     0.043 C 
BRANCH  26  28
HETATM   28  N4  UNL     1      27.810   0.244  53.991  1.00  0.00     0.084 N 
HETATM   29  C19 UNL     1      27.926  -0.896  53.118  1.00  0.00     0.309 C 
HETATM   30  C20 UNL     1      26.733   0.107  54.941  1.00  0.00     0.309 C 
ENDBRANCH  26  28
ENDBRANCH  25  26
ENDBRANCH  22  25
ENDBRANCH  20  21
ENDBRANCH   1  20
TORSDOF 11
ENDMDL
MODEL 6
REMARK VINA RESULT:      -6.9      4.382      7.378
REMARK  11 active torsions:
REMARK  status: ('A' for Active; 'I' for Inactive)
REMARK    1  A    between atoms: C2_2  and  C3_3 
REMARK    2  A    between atoms: C3_3  and  C14_18 
REMARK    3  A    between atoms: C4_4  and  C5_5 
REMARK    4  A    between atoms: C5_5  and  C6_6 
REMARK    5  A    between atoms: C7_7  and  C8_8 
REMARK    6  A    between atoms: C7_7  and  N2_10 
REMARK    7  A    between atoms: C8_8  and  N1_9 
REMARK    8  A    between atoms: C14_18  and  N3_19 
REMARK       I    between atoms: N3_19  and  C15_20 
REMARK    9  A    between atoms: C15_20  and  C16_22 
REMARK   10  A    between atoms: C16_22  and  C17_23 
REMARK   11  A    between atoms: C17_23  and  N4_25 
ROOT
HETATM    1  C3  UNL     1      27.094   5.469  48.719  1.00  0.00    -0.066 C 
HETATM    2  C4  UNL     1      27.090   4.201  49.120  1.00  0.00    -0.019 C 
ENDROOT
BRANCH   2   3
HETATM    3  C5  UNL     1      26.161   3.191  49.654  1.00  0.00     0.056 C 
BRANCH   3   4
HETATM    4  C6  UNL     1      26.514   2.733  51.037  1.00  0.00     0.004 C 
HETATM    5  C7  UNL     1      25.763   2.456  52.095  1.00  0.00     0.029 C 
BRANCH   5   6
HETATM    6  C8  UNL     1      26.115   2.000  53.474  1.00  0.00     0.168 C 
BRANCH   6   7
HETATM    7  N1  UNL     1      27.342   2.592  53.938  1.00  0.00    -0.425 N 
HETATM    8  H12 UNL     1      28.189   2.182  53.519  1.00  0.00     0.150 HD
HETATM    9  H13 UNL     1      27.308   3.611  54.032  1.00  0.00     0.150 HD
ENDBRANCH   6   7
ENDBRANCH   5   6
BRANCH   5  10
HETATM   10  N2  UNL     1      24.365   2.598  51.956  1.00  0.00    -0.334 N 
HETATM   11  C9  UNL     1      23.770   3.839  52.295  1.00  0.00     0.095 A 
HETATM   12  C10 UNL     1      22.464   3.935  52.153  1.00  0.00     0.033 A 
HETATM   13  C11 UNL     1      21.533   2.894  51.679  1.00  0.00     0.240 A 
HETATM   14  F1  UNL     1      20.499   2.647  52.561  1.00  0.00    -0.239 F 
HETATM   15  C12 UNL     1      22.315   1.668  51.370  1.00  0.00     0.065 A 
HETATM   16 CL1  UNL     1      21.201   0.432  50.806  1.00  0.00    -0.084 Cl
HETATM   17  C13 UNL     1      23.609   1.471  51.476  1.00  0.00     0.119 A 
ENDBRANCH   5  10
ENDBRANCH   3   4
ENDBRANCH   2   3
BRANCH   1  18
HETATM   18  C2  UNL     1      26.132   6.561  48.595  1.00  0.00     0.031 C 
HETATM   19  C1  UNL     1      25.241   6.732  49.802  1.00  0.00     0.010 C 
ENDBRANCH   1  18
BRANCH   1  20
HETATM   20  C14 UNL     1      28.312   6.117  48.230  1.00  0.00     0.156 C 
BRANCH  20  21
HETATM   21  N3  UNL     1      29.541   5.589  48.790  1.00  0.00    -0.357 N 
HETATM   22  C15 UNL     1      30.736   6.324  48.543  1.00  0.00     0.219 C 
HETATM   23  O1  UNL     1      30.477   7.359  47.840  1.00  0.00    -0.274 OA
HETATM   24  H20 UNL     1      29.489   4.703  49.341  1.00  0.00     0.162 HD
BRANCH  22  25
HETATM   25  C16 UNL     1      31.995   5.765  49.128  1.00  0.00     0.138 C 
BRANCH  25  26
HETATM   26  C17 UNL     1      32.861   5.331  47.968  1.00  0.00     0.226 C 
HETATM   27  C18 UNL     1      34.287   5.818  48.133  1.00  0.00     0.043 C 
BRANCH  26  28
HETATM   28  N4  UNL     1      32.916   3.901  47.829  1.00  0.00     0.084 N 
HETATM   29  C19 UNL     1      34.259   3.386  47.759  1.00  0.00     0.309 C 
HETATM   30  C20 UNL     1      32.074   3.398  46.771  1.00  0.00     0.309 C 
ENDBRANCH  26  28
ENDBRANCH  25  26
ENDBRANCH  22  25
ENDBRANCH  20  21
ENDBRANCH   1  20
TORSDOF 11
ENDMDL
MODEL 7
REMARK VINA RESULT:      -6.9      3.579      7.869
REMARK  11 active torsions:
REMARK  status: ('A' for Active; 'I' for Inactive)
REMARK    1  A    between atoms: C2_2  and  C3_3 
REMARK    2  A    between atoms: C3_3  and  C14_18 
REMARK    3  A    between atoms: C4_4  and  C5_5 
REMARK    4  A    between atoms: C5_5  and  C6_6 
REMARK    5  A    between atoms: C7_7  and  C8_8 
REMARK    6  A    between atoms: C7_7  and  N2_10 
REMARK    7  A    between atoms: C8_8  and  N1_9 
REMARK    8  A    between atoms: C14_18  and  N3_19 
REMARK       I    between atoms: N3_19  and  C15_20 
REMARK    9  A    between atoms: C15_20  and  C16_22 
REMARK   10  A    between atoms: C16_22  and  C17_23 
REMARK   11  A    between atoms: C17_23  and  N4_25 
ROOT
HETATM    1  C3  UNL     1      22.270   0.465  53.506  1.00  0.00    -0.066 C 
HETATM    2  C4  UNL     1      22.546   1.515  52.739  1.00  0.00    -0.019 C 
ENDROOT
BRANCH   2   3
HETATM    3  C5  UNL     1      21.872   2.676  52.132  1.00  0.00     0.056 C 
BRANCH   3   4
HETATM    4  C6  UNL     1      21.338   2.400  50.759  1.00  0.00     0.004 C 
HETATM    5  C7  UNL     1      21.706   2.840  49.563  1.00  0.00     0.029 C 
BRANCH   5   6
HETATM    6  C8  UNL     1      21.173   2.566  48.194  1.00  0.00     0.168 C 
BRANCH   6   7
HETATM    7  N1  UNL     1      19.780   2.206  48.222  1.00  0.00    -0.425 N 
HETATM    8  H12 UNL     1      19.225   2.625  47.462  1.00  0.00     0.150 HD
HETATM    9  H13 UNL     1      19.604   1.223  48.448  1.00  0.00     0.150 HD
ENDBRANCH   6   7
ENDBRANCH   5   6
BRANCH   5  10
HETATM   10  N2  UNL     1      22.797   3.735  49.506  1.00  0.00    -0.334 N 
HETATM   11  C9  UNL     1      22.534   5.127  49.492  1.00  0.00     0.095 A 
HETATM   12  C10 UNL     1      23.576   5.932  49.439  1.00  0.00     0.033 A 
HETATM   13  C11 UNL     1      25.000   5.556  49.389  1.00  0.00     0.240 A 
HETATM   14  F1  UNL     1      25.672   6.108  48.316  1.00  0.00    -0.239 F 
HETATM   15  C12 UNL     1      25.096   4.072  49.411  1.00  0.00     0.065 A 
HETATM   16 CL1  UNL     1      26.796   3.629  49.351  1.00  0.00    -0.084 Cl
HETATM   17  C13 UNL     1      24.128   3.187  49.463  1.00  0.00     0.119 A 
ENDBRANCH   5  10
ENDBRANCH   3   4
ENDBRANCH   2   3
BRANCH   1  18
HETATM   18  C2  UNL     1      21.101  -0.102  54.175  1.00  0.00     0.031 C 
HETATM   19  C1  UNL     1      21.198  -1.588  54.422  1.00  0.00     0.010 C 
ENDBRANCH   1  18
BRANCH   1  20
HETATM   20  C14 UNL     1      23.304  -0.497  53.894  1.00  0.00     0.156 C 
BRANCH  20  21
HETATM   21  N3  UNL     1      24.547  -0.374  53.159  1.00  0.00    -0.357 N 
HETATM   22  C15 UNL     1      25.744  -0.740  53.839  1.00  0.00     0.219 C 
HETATM   23  O1  UNL     1      25.472  -1.125  55.027  1.00  0.00    -0.274 OA
HETATM   24  H20 UNL     1      24.503  -0.025  52.175  1.00  0.00     0.162 HD
BRANCH  22  25
HETATM   25  C16 UNL     1      27.017  -0.606  53.065  1.00  0.00     0.138 C 
BRANCH  25  26
HETATM   26  C17 UNL     1      28.006   0.095  53.968  1.00  0.00     0.226 C 
HETATM   27  C18 UNL     1      29.425  -0.357  53.688  1.00  0.00     0.043 C 
BRANCH  26  28
HETATM   28  N4  UNL     1      27.978   1.524  53.806  1.00  0.00     0.084 N 
HETATM   29  C19 UNL     1      27.461   1.943  52.528  1.00  0.00     0.309 C 
HETATM   30  C20 UNL     1      29.232   2.160  54.131  1.00  0.00     0.309 C 
ENDBRANCH  26  28
ENDBRANCH  25  26
ENDBRANCH  22  25
ENDBRANCH  20  21
ENDBRANCH   1  20
TORSDOF 11
ENDMDL
MODEL 8
REMARK VINA RESULT:      -6.8      3.640      6.480
REMARK  11 active torsions:
REMARK  status: ('A' for Active; 'I' for Inactive)
REMARK    1  A    between atoms: C2_2  and  C3_3 
REMARK    2  A    between atoms: C3_3  and  C14_18 
REMARK    3  A    between atoms: C4_4  and  C5_5 
REMARK    4  A    between atoms: C5_5  and  C6_6 
REMARK    5  A    between atoms: C7_7  and  C8_8 
REMARK    6  A    between atoms: C7_7  and  N2_10 
REMARK    7  A    between atoms: C8_8  and  N1_9 
REMARK    8  A    between atoms: C14_18  and  N3_19 
REMARK       I    between atoms: N3_19  and  C15_20 
REMARK    9  A    between atoms: C15_20  and  C16_22 
REMARK   10  A    between atoms: C16_22  and  C17_23 
REMARK   11  A    between atoms: C17_23  and  N4_25 
ROOT
HETATM    1  C3  UNL     1      25.649   5.444  49.386  1.00  0.00    -0.066 C 
HETATM    2  C4  UNL     1      26.423   4.372  49.520  1.00  0.00    -0.019 C 
ENDROOT
BRANCH   2   3
HETATM    3  C5  UNL     1      26.309   2.918  49.731  1.00  0.00     0.056 C 
BRANCH   3   4
HETATM    4  C6  UNL     1      26.653   2.493  51.126  1.00  0.00     0.004 C 
HETATM    5  C7  UNL     1      25.897   2.275  52.195  1.00  0.00     0.029 C 
BRANCH   5   6
HETATM    6  C8  UNL     1      26.240   1.850  53.586  1.00  0.00     0.168 C 
BRANCH   6   7
HETATM    7  N1  UNL     1      27.394   2.547  54.091  1.00  0.00    -0.425 N 
HETATM    8  H12 UNL     1      28.255   2.372  53.554  1.00  0.00     0.150 HD
HETATM    9  H13 UNL     1      27.209   3.510  54.385  1.00  0.00     0.150 HD
ENDBRANCH   6   7
ENDBRANCH   5   6
BRANCH   5  10
HETATM   10  N2  UNL     1      24.504   2.459  52.056  1.00  0.00    -0.334 N 
HETATM   11  C9  UNL     1      23.946   3.714  52.404  1.00  0.00     0.095 A 
HETATM   12  C10 UNL     1      22.643   3.849  52.262  1.00  0.00     0.033 A 
HETATM   13  C11 UNL     1      21.683   2.840  51.780  1.00  0.00     0.240 A 
HETATM   14  F1  UNL     1      20.641   2.617  52.659  1.00  0.00    -0.239 F 
HETATM   15  C12 UNL     1      22.428   1.594  51.462  1.00  0.00     0.065 A 
HETATM   16 CL1  UNL     1      21.278   0.395  50.888  1.00  0.00    -0.084 Cl
HETATM   17  C13 UNL     1      23.716   1.357  51.567  1.00  0.00     0.119 A 
ENDBRANCH   5  10
ENDBRANCH   3   4
ENDBRANCH   2   3
BRANCH   1  18
HETATM   18  C2  UNL     1      24.220   5.745  49.376  1.00  0.00     0.031 C 
HETATM   19  C1  UNL     1      23.394   4.768  48.574  1.00  0.00     0.010 C 
ENDBRANCH   1  18
BRANCH   1  20
HETATM   20  C14 UNL     1      26.214   6.779  49.179  1.00  0.00     0.156 C 
BRANCH  20  21
HETATM   21  N3  UNL     1      27.632   6.793  48.878  1.00  0.00    -0.357 N 
HETATM   22  C15 UNL     1      28.026   7.345  47.626  1.00  0.00     0.219 C 
HETATM   23  O1  UNL     1      26.997   7.741  46.979  1.00  0.00    -0.274 OA
HETATM   24  H20 UNL     1      28.289   6.400  49.589  1.00  0.00     0.162 HD
BRANCH  22  25
HETATM   25  C16 UNL     1      29.492   7.351  47.331  1.00  0.00     0.138 C 
BRANCH  25  26
HETATM   26  C17 UNL     1      30.144   6.432  48.338  1.00  0.00     0.226 C 
HETATM   27  C18 UNL     1      30.502   5.097  47.715  1.00  0.00     0.043 C 
BRANCH  26  28
HETATM   28  N4  UNL     1      31.357   6.984  48.879  1.00  0.00     0.084 N 
HETATM   29  C19 UNL     1      32.001   6.119  49.834  1.00  0.00     0.309 C 
HETATM   30  C20 UNL     1      31.201   8.331  49.370  1.00  0.00     0.309 C 
ENDBRANCH  26  28
ENDBRANCH  25  26
ENDBRANCH  22  25
ENDBRANCH  20  21
ENDBRANCH   1  20
TORSDOF 11
ENDMDL
MODEL 9
REMARK VINA RESULT:      -6.8      5.152      8.790
REMARK  11 active torsions:
REMARK  status: ('A' for Active; 'I' for Inactive)
REMARK    1  A    between atoms: C2_2  and  C3_3 
REMARK    2  A    between atoms: C3_3  and  C14_18 
REMARK    3  A    between atoms: C4_4  and  C5_5 
REMARK    4  A    between atoms: C5_5  and  C6_6 
REMARK    5  A    between atoms: C7_7  and  C8_8 
REMARK    6  A    between atoms: C7_7  and  N2_10 
REMARK    7  A    between atoms: C8_8  and  N1_9 
REMARK    8  A    between atoms: C14_18  and  N3_19 
REMARK       I    between atoms: N3_19  and  C15_20 
REMARK    9  A    between atoms: C15_20  and  C16_22 
REMARK   10  A    between atoms: C16_22  and  C17_23 
REMARK   11  A    between atoms: C17_23  and  N4_25 
ROOT
HETATM    1  C3  UNL     1      26.640   4.816  49.056  1.00  0.00    -0.066 C 
HETATM    2  C4  UNL     1      27.894   4.985  48.648  1.00  0.00    -0.019 C 
ENDROOT
BRANCH   2   3
HETATM    3  C5  UNL     1      28.754   6.017  48.043  1.00  0.00     0.056 C 
BRANCH   3   4
HETATM    4  C6  UNL     1      30.218   5.761  48.242  1.00  0.00     0.004 C 
HETATM    5  C7  UNL     1      31.279   6.543  48.097  1.00  0.00     0.029 C 
BRANCH   5   6
HETATM    6  C8  UNL     1      32.738   6.287  48.295  1.00  0.00     0.168 C 
BRANCH   6   7
HETATM    7  N1  UNL     1      32.980   5.013  48.918  1.00  0.00    -0.425 N 
HETATM    8  H12 UNL     1      33.398   4.313  48.289  1.00  0.00     0.150 HD
HETATM    9  H13 UNL     1      33.354   5.075  49.870  1.00  0.00     0.150 HD
ENDBRANCH   6   7
ENDBRANCH   5   6
BRANCH   5  10
HETATM   10  N2  UNL     1      31.055   7.874  47.683  1.00  0.00    -0.334 N 
HETATM   11  C9  UNL     1      30.867   8.135  46.303  1.00  0.00     0.095 A 
HETATM   12  C10 UNL     1      30.661   9.388  45.954  1.00  0.00     0.033 A 
HETATM   13  C11 UNL     1      30.602  10.569  46.835  1.00  0.00     0.240 A 
HETATM   14  F1  UNL     1      31.480  11.569  46.464  1.00  0.00    -0.239 F 
HETATM   15  C12 UNL     1      30.818  10.121  48.237  1.00  0.00     0.065 A 
HETATM   16 CL1  UNL     1      30.747  11.532  49.283  1.00  0.00    -0.084 Cl
HETATM   17  C13 UNL     1      31.030   8.906  48.687  1.00  0.00     0.119 A 
ENDBRANCH   5  10
ENDBRANCH   3   4
ENDBRANCH   2   3
BRANCH   1  18
HETATM   18  C2  UNL     1      25.414   5.607  49.118  1.00  0.00     0.031 C 
HETATM   19  C1  UNL     1      24.155   4.804  48.898  1.00  0.00     0.010 C 
ENDBRANCH   1  18
BRANCH   1  20
HETATM   20  C14 UNL     1      26.183   3.551  49.633  1.00  0.00     0.156 C 
BRANCH  20  21
HETATM   21  N3  UNL     1      26.630   3.313  50.991  1.00  0.00    -0.357 N 
HETATM   22  C15 UNL     1      25.821   2.469  51.804  1.00  0.00     0.219 C 
HETATM   23  O1  UNL     1      24.805   2.065  51.142  1.00  0.00    -0.274 OA
HETATM   24  H20 UNL     1      27.516   3.770  51.304  1.00  0.00     0.162 HD
BRANCH  22  25
HETATM   25  C16 UNL     1      26.297   2.234  53.203  1.00  0.00     0.138 C 
BRANCH  25  26
HETATM   26  C17 UNL     1      27.650   1.569  53.099  1.00  0.00     0.226 C 
HETATM   27  C18 UNL     1      28.738   2.436  53.700  1.00  0.00     0.043 C 
BRANCH  26  28
HETATM   28  N4  UNL     1      27.692   0.304  53.782  1.00  0.00     0.084 N 
HETATM   29  C19 UNL     1      26.757   0.214  54.874  1.00  0.00     0.309 C 
HETATM   30  C20 UNL     1      29.026  -0.096  54.160  1.00  0.00     0.309 C 
ENDBRANCH  26  28
ENDBRANCH  25  26
ENDBRANCH  22  25
ENDBRANCH  20  21
ENDBRANCH   1  20
TORSDOF 11
ENDMDL
