MODEL 1
REMARK VINA RESULT:      -9.2      0.000      0.000
REMARK  6 active torsions:
REMARK  status: ('A' for Active; 'I' for Inactive)
REMARK    1  A    between atoms: O1_2  and  C2_3 
REMARK    2  A    between atoms: C7_8  and  C8_9 
REMARK    3  A    between atoms: C8_9  and  N1_10 
REMARK    4  A    between atoms: C11_13  and  C12_14 
REMARK    5  A    between atoms: C13_16  and  N2_17 
REMARK    6  A    between atoms: N2_17  and  C14_18 
ROOT
HETATM    1  N1  UNL     1      25.533   1.670  51.943  1.00  0.00    -0.360 N 
HETATM    2  C9  UNL     1      24.167   1.679  51.567  1.00  0.00     0.088 A 
HETATM    3  C10 UNL     1      23.577   2.310  50.568  1.00  0.00     0.008 A 
HETATM    4  C11 UNL     1      24.380   3.170  49.643  1.00  0.00     0.123 A 
HETATM    5  C13 UNL     1      25.782   3.089  50.108  1.00  0.00     0.056 A 
HETATM    6  C23 UNL     1      26.401   2.475  51.090  1.00  0.00     0.117 A 
ENDROOT
BRANCH   5   7
HETATM    7  N2  UNL     1      26.606   3.886  49.293  1.00  0.00    -0.189 N 
HETATM    8  H14 UNL     1      26.922   3.304  48.495  1.00  0.00     0.184 HD
BRANCH   7   9
HETATM    9  C14 UNL     1      27.290   5.029  48.885  1.00  0.00     0.727 A 
HETATM   10  N3  UNL     1      26.692   6.270  48.908  1.00  0.00    -0.075 NA
HETATM   11  C15 UNL     1      27.394   7.359  48.496  1.00  0.00     0.139 A 
HETATM   12  C16 UNL     1      28.679   7.102  48.084  1.00  0.00     0.053 A 
HETATM   13  C17 UNL     1      29.348   5.904  48.032  1.00  0.00     0.089 A 
HETATM   14  C18 UNL     1      30.709   5.745  47.579  1.00  0.00     0.011 A 
HETATM   15  N5  UNL     1      28.549   4.933  48.461  1.00  0.00    -0.062 NA
HETATM   16  C19 UNL     1      31.290   4.493  47.585  1.00  0.00     0.017 A 
HETATM   17  C22 UNL     1      31.473   6.776  47.133  1.00  0.00     0.130 A 
HETATM   18  C20 UNL     1      32.581   4.336  47.146  1.00  0.00     0.020 A 
HETATM   19  C21 UNL     1      33.320   5.441  46.691  1.00  0.00     0.116 A 
HETATM   20  N4  UNL     1      32.747   6.638  46.698  1.00  0.00    -0.272 NA
ENDBRANCH   7   9
ENDBRANCH   5   7
BRANCH   4  21
HETATM   21  C12 UNL     1      23.901   4.577  49.731  1.00  0.00     0.245 C 
HETATM   22  O2  UNL     1      24.175   5.012  50.860  1.00  0.00    -0.306 OA
ENDBRANCH   4  21
BRANCH   1  23
HETATM   23  C8  UNL     1      25.698   0.859  53.100  1.00  0.00     0.169 C 
BRANCH  23  24
HETATM   24  C7  UNL     1      26.793  -0.087  53.185  1.00  0.00    -0.007 A 
HETATM   25  C2  UNL     1      28.056   0.190  53.748  1.00  0.00     0.076 A 
HETATM   26  C3  UNL     1      29.123  -0.731  53.772  1.00  0.00     0.037 A 
HETATM   27  C4  UNL     1      28.787  -1.905  53.196  1.00  0.00     0.003 A 
HETATM   28  C5  UNL     1      27.628  -2.330  52.615  1.00  0.00     0.001 A 
HETATM   29  C6  UNL     1      26.616  -1.363  52.625  1.00  0.00     0.011 A 
BRANCH  25  30
HETATM   30  O1  UNL     1      28.218   1.466  54.315  1.00  0.00    -0.355 OA
HETATM   31  C1  UNL     1      29.020   2.481  53.764  1.00  0.00     0.210 C 
ENDBRANCH  25  30
ENDBRANCH  23  24
ENDBRANCH   1  23
TORSDOF 6
ENDMDL
MODEL 2
REMARK VINA RESULT:      -8.9      1.234      1.706
REMARK  6 active torsions:
REMARK  status: ('A' for Active; 'I' for Inactive)
REMARK    1  A    between atoms: O1_2  and  C2_3 
REMARK    2  A    between atoms: C7_8  and  C8_9 
REMARK    3  A    between atoms: C8_9  and  N1_10 
REMARK    4  A    between atoms: C11_13  and  C12_14 
REMARK    5  A    between atoms: C13_16  and  N2_17 
REMARK    6  A    between atoms: N2_17  and  C14_18 
ROOT
HETATM    1  N1  UNL     1      25.472   1.363  52.783  1.00  0.00    -0.360 N 
HETATM    2  C9  UNL     1      24.125   0.926  52.766  1.00  0.00     0.088 A 
HETATM    3  C10 UNL     1      23.151   1.242  51.932  1.00  0.00     0.008 A 
HETATM    4  C11 UNL     1      23.405   2.197  50.808  1.00  0.00     0.123 A 
HETATM    5  C13 UNL     1      24.828   2.587  50.904  1.00  0.00     0.056 A 
HETATM    6  C23 UNL     1      25.819   2.293  51.714  1.00  0.00     0.117 A 
ENDROOT
BRANCH   5   7
HETATM    7  N2  UNL     1      25.148   3.500  49.882  1.00  0.00    -0.189 N 
HETATM    8  H14 UNL     1      25.140   2.986  48.982  1.00  0.00     0.184 HD
BRANCH   7   9
HETATM    9  C14 UNL     1      25.486   4.727  49.316  1.00  0.00     0.727 A 
HETATM   10  N3  UNL     1      24.545   5.717  49.131  1.00  0.00    -0.075 NA
HETATM   11  C15 UNL     1      24.916   6.897  48.570  1.00  0.00     0.139 A 
HETATM   12  C16 UNL     1      26.244   6.989  48.232  1.00  0.00     0.053 A 
HETATM   13  C17 UNL     1      27.242   6.059  48.383  1.00  0.00     0.089 A 
HETATM   14  C18 UNL     1      28.617   6.260  47.990  1.00  0.00     0.011 A 
HETATM   15  N5  UNL     1      26.742   4.961  48.941  1.00  0.00    -0.062 NA
HETATM   16  C19 UNL     1      29.543   5.260  48.205  1.00  0.00     0.017 A 
HETATM   17  C22 UNL     1      29.067   7.401  47.405  1.00  0.00     0.130 A 
HETATM   18  C20 UNL     1      30.849   5.444  47.825  1.00  0.00     0.020 A 
HETATM   19  C21 UNL     1      31.254   6.645  47.219  1.00  0.00     0.116 A 
HETATM   20  N4  UNL     1      30.350   7.598  47.026  1.00  0.00    -0.272 NA
ENDBRANCH   7   9
ENDBRANCH   5   7
BRANCH   4  21
HETATM   21  C12 UNL     1      22.543   3.400  50.972  1.00  0.00     0.245 C 
HETATM   22  O2  UNL     1      22.993   4.077  51.909  1.00  0.00    -0.306 OA
ENDBRANCH   4  21
BRANCH   1  23
HETATM   23  C8  UNL     1      26.147   0.767  53.884  1.00  0.00     0.169 C 
BRANCH  23  24
HETATM   24  C7  UNL     1      27.183  -0.223  53.663  1.00  0.00    -0.007 A 
HETATM   25  C2  UNL     1      28.529  -0.083  54.057  1.00  0.00     0.076 A 
HETATM   26  C3  UNL     1      29.531  -1.037  53.785  1.00  0.00     0.037 A 
HETATM   27  C4  UNL     1      29.043  -2.097  53.106  1.00  0.00     0.003 A 
HETATM   28  C5  UNL     1      27.787  -2.385  52.656  1.00  0.00     0.001 A 
HETATM   29  C6  UNL     1      26.848  -1.392  52.961  1.00  0.00     0.011 A 
BRANCH  25  30
HETATM   30  O1  UNL     1      28.851   1.086  54.769  1.00  0.00    -0.355 OA
HETATM   31  C1  UNL     1      29.339   2.265  54.177  1.00  0.00     0.210 C 
ENDBRANCH  25  30
ENDBRANCH  23  24
ENDBRANCH   1  23
TORSDOF 6
ENDMDL
MODEL 3
REMARK VINA RESULT:      -8.8      1.379      2.197
REMARK  6 active torsions:
REMARK  status: ('A' for Active; 'I' for Inactive)
REMARK    1  A    between atoms: O1_2  and  C2_3 
REMARK    2  A    between atoms: C7_8  and  C8_9 
REMARK    3  A    between atoms: C8_9  and  N1_10 
REMARK    4  A    between atoms: C11_13  and  C12_14 
REMARK    5  A    between atoms: C13_16  and  N2_17 
REMARK    6  A    between atoms: N2_17  and  C14_18 
ROOT
HETATM    1  N1  UNL     1      25.786   2.651  51.216  1.00  0.00    -0.360 N 
HETATM    2  C9  UNL     1      24.443   2.977  50.909  1.00  0.00     0.088 A 
HETATM    3  C10 UNL     1      23.968   3.801  49.993  1.00  0.00     0.008 A 
HETATM    4  C11 UNL     1      24.905   4.550  49.098  1.00  0.00     0.123 A 
HETATM    5  C13 UNL     1      26.272   4.139  49.485  1.00  0.00     0.056 A 
HETATM    6  C23 UNL     1      26.778   3.327  50.385  1.00  0.00     0.117 A 
ENDROOT
BRANCH   5   7
HETATM    7  N2  UNL     1      27.221   4.812  48.694  1.00  0.00    -0.189 N 
HETATM    8  H14 UNL     1      26.992   4.630  47.699  1.00  0.00     0.184 HD
BRANCH   7   9
HETATM    9  C14 UNL     1      28.330   5.608  48.418  1.00  0.00     0.727 A 
HETATM   10  N3  UNL     1      28.283   6.979  48.555  1.00  0.00    -0.075 NA
HETATM   11  C15 UNL     1      29.387   7.718  48.269  1.00  0.00     0.139 A 
HETATM   12  C16 UNL     1      30.481   6.996  47.859  1.00  0.00     0.053 A 
HETATM   13  C17 UNL     1      30.613   5.639  47.698  1.00  0.00     0.089 A 
HETATM   14  C18 UNL     1      31.818   4.979  47.258  1.00  0.00     0.011 A 
HETATM   15  N5  UNL     1      29.466   5.044  48.011  1.00  0.00    -0.062 NA
HETATM   16  C19 UNL     1      31.843   3.603  47.148  1.00  0.00     0.017 A 
HETATM   17  C22 UNL     1      32.958   5.643  46.933  1.00  0.00     0.130 A 
HETATM   18  C20 UNL     1      32.985   2.972  46.721  1.00  0.00     0.020 A 
HETATM   19  C21 UNL     1      34.132   3.715  46.395  1.00  0.00     0.116 A 
HETATM   20  N4  UNL     1      34.091   5.037  46.511  1.00  0.00    -0.272 NA
ENDBRANCH   7   9
ENDBRANCH   5   7
BRANCH   4  21
HETATM   21  C12 UNL     1      24.740   6.013  49.317  1.00  0.00     0.245 C 
HETATM   22  O2  UNL     1      25.298   6.313  50.383  1.00  0.00    -0.306 OA
ENDBRANCH   4  21
BRANCH   1  23
HETATM   23  C8  UNL     1      25.813   1.728  52.298  1.00  0.00     0.169 C 
BRANCH  23  24
HETATM   24  C7  UNL     1      27.075   1.290  52.861  1.00  0.00    -0.007 A 
HETATM   25  C2  UNL     1      27.543  -0.039  52.854  1.00  0.00     0.076 A 
HETATM   26  C3  UNL     1      28.751  -0.449  53.454  1.00  0.00     0.037 A 
HETATM   27  C4  UNL     1      29.403   0.584  54.030  1.00  0.00     0.003 A 
HETATM   28  C5  UNL     1      29.095   1.910  54.123  1.00  0.00     0.001 A 
HETATM   29  C6  UNL     1      27.882   2.242  53.508  1.00  0.00     0.011 A 
BRANCH  25  30
HETATM   30  O1  UNL     1      26.734  -0.980  52.194  1.00  0.00    -0.355 OA
HETATM   31  C1  UNL     1      26.857  -2.373  52.343  1.00  0.00     0.210 C 
ENDBRANCH  25  30
ENDBRANCH  23  24
ENDBRANCH   1  23
TORSDOF 6
ENDMDL
MODEL 4
REMARK VINA RESULT:      -8.7      1.713      3.653
REMARK  6 active torsions:
REMARK  status: ('A' for Active; 'I' for Inactive)
REMARK    1  A    between atoms: O1_2  and  C2_3 
REMARK    2  A    between atoms: C7_8  and  C8_9 
REMARK    3  A    between atoms: C8_9  and  N1_10 
REMARK    4  A    between atoms: C11_13  and  C12_14 
REMARK    5  A    between atoms: C13_16  and  N2_17 
REMARK    6  A    between atoms: N2_17  and  C14_18 
ROOT
HETATM    1  N1  UNL     1      25.684   1.573  52.265  1.00  0.00    -0.360 N 
HETATM    2  C9  UNL     1      24.285   1.509  52.054  1.00  0.00     0.088 A 
HETATM    3  C10 UNL     1      23.555   2.060  51.102  1.00  0.00     0.008 A 
HETATM    4  C11 UNL     1      24.205   2.896  50.045  1.00  0.00     0.123 A 
HETATM    5  C13 UNL     1      25.654   2.895  50.343  1.00  0.00     0.056 A 
HETATM    6  C23 UNL     1      26.410   2.361  51.275  1.00  0.00     0.117 A 
ENDROOT
BRANCH   5   7
HETATM    7  N2  UNL     1      26.341   3.675  49.396  1.00  0.00    -0.189 N 
HETATM    8  H14 UNL     1      26.337   3.160  48.496  1.00  0.00     0.184 HD
BRANCH   7   9
HETATM    9  C14 UNL     1      27.059   4.764  48.906  1.00  0.00     0.727 A 
HETATM   10  N3  UNL     1      28.403   4.669  48.619  1.00  0.00    -0.075 NA
HETATM   11  C15 UNL     1      29.066   5.758  48.149  1.00  0.00     0.139 A 
HETATM   12  C16 UNL     1      28.299   6.887  47.999  1.00  0.00     0.053 A 
HETATM   13  C17 UNL     1      26.962   7.067  48.258  1.00  0.00     0.089 A 
HETATM   14  C18 UNL     1      26.249   8.306  48.064  1.00  0.00     0.011 A 
HETATM   15  N5  UNL     1      26.443   5.929  48.709  1.00  0.00    -0.062 NA
HETATM   16  C19 UNL     1      24.899   8.369  48.341  1.00  0.00     0.017 A 
HETATM   17  C22 UNL     1      26.839   9.446  47.617  1.00  0.00     0.130 A 
HETATM   18  C20 UNL     1      24.218   9.549  48.167  1.00  0.00     0.020 A 
HETATM   19  C21 UNL     1      24.886  10.696  47.706  1.00  0.00     0.116 A 
HETATM   20  N4  UNL     1      26.183  10.615  47.440  1.00  0.00    -0.272 NA
ENDBRANCH   7   9
ENDBRANCH   5   7
BRANCH   4  21
HETATM   21  C12 UNL     1      23.678   4.287  50.116  1.00  0.00     0.245 C 
HETATM   22  O2  UNL     1      23.351   4.638  48.972  1.00  0.00    -0.306 OA
ENDBRANCH   4  21
BRANCH   1  23
HETATM   23  C8  UNL     1      26.018   0.836  53.435  1.00  0.00     0.169 C 
BRANCH  23  24
HETATM   24  C7  UNL     1      27.075  -0.157  53.402  1.00  0.00    -0.007 A 
HETATM   25  C2  UNL     1      28.377   0.035  53.904  1.00  0.00     0.076 A 
HETATM   26  C3  UNL     1      29.404  -0.927  53.813  1.00  0.00     0.037 A 
HETATM   27  C4  UNL     1      28.985  -2.051  53.192  1.00  0.00     0.003 A 
HETATM   28  C5  UNL     1      27.778  -2.394  52.656  1.00  0.00     0.001 A 
HETATM   29  C6  UNL     1      26.811  -1.389  52.781  1.00  0.00     0.011 A 
BRANCH  25  30
HETATM   30  O1  UNL     1      28.627   1.268  54.533  1.00  0.00    -0.355 OA
HETATM   31  C1  UNL     1      29.056   2.426  53.862  1.00  0.00     0.210 C 
ENDBRANCH  25  30
ENDBRANCH  23  24
ENDBRANCH   1  23
TORSDOF 6
ENDMDL
MODEL 5
REMARK VINA RESULT:      -8.6      3.409      7.827
REMARK  6 active torsions:
REMARK  status: ('A' for Active; 'I' for Inactive)
REMARK    1  A    between atoms: O1_2  and  C2_3 
REMARK    2  A    between atoms: C7_8  and  C8_9 
REMARK    3  A    between atoms: C8_9  and  N1_10 
REMARK    4  A    between atoms: C11_13  and  C12_14 
REMARK    5  A    between atoms: C13_16  and  N2_17 
REMARK    6  A    between atoms: N2_17  and  C14_18 
ROOT
HETATM    1  N1  UNL     1      23.908   5.430  49.088  1.00  0.00    -0.360 N 
HETATM    2  C9  UNL     1      23.062   5.265  47.964  1.00  0.00     0.088 A 
HETATM    3  C10 UNL     1      22.200   4.301  47.698  1.00  0.00     0.008 A 
HETATM    4  C11 UNL     1      22.018   3.169  48.659  1.00  0.00     0.123 A 
HETATM    5  C13 UNL     1      22.928   3.433  49.795  1.00  0.00     0.056 A 
HETATM    6  C23 UNL     1      23.793   4.376  50.091  1.00  0.00     0.117 A 
ENDROOT
BRANCH   5   7
HETATM    7  N2  UNL     1      22.827   2.402  50.745  1.00  0.00    -0.189 N 
HETATM    8  H14 UNL     1      21.826   2.144  50.830  1.00  0.00     0.184 HD
BRANCH   7   9
HETATM    9  C14 UNL     1      23.268   1.474  51.686  1.00  0.00     0.727 A 
HETATM   10  N3  UNL     1      22.445   0.471  52.148  1.00  0.00    -0.075 NA
HETATM   11  C15 UNL     1      22.914  -0.410  53.070  1.00  0.00     0.139 A 
HETATM   12  C16 UNL     1      24.214  -0.203  53.463  1.00  0.00     0.053 A 
HETATM   13  C17 UNL     1      25.099   0.764  53.056  1.00  0.00     0.089 A 
HETATM   14  C18 UNL     1      26.453   0.891  53.537  1.00  0.00     0.011 A 
HETATM   15  N5  UNL     1      24.511   1.550  52.158  1.00  0.00    -0.062 NA
HETATM   16  C19 UNL     1      27.263   1.894  53.044  1.00  0.00     0.017 A 
HETATM   17  C22 UNL     1      26.994   0.067  54.472  1.00  0.00     0.130 A 
HETATM   18  C20 UNL     1      28.549   2.024  53.507  1.00  0.00     0.020 A 
HETATM   19  C21 UNL     1      29.051   1.142  54.479  1.00  0.00     0.116 A 
HETATM   20  N4  UNL     1      28.259   0.181  54.938  1.00  0.00    -0.272 NA
ENDBRANCH   7   9
ENDBRANCH   5   7
BRANCH   4  21
HETATM   21  C12 UNL     1      22.397   1.889  48.000  1.00  0.00     0.245 C 
HETATM   22  O2  UNL     1      21.643   0.997  48.418  1.00  0.00    -0.306 OA
ENDBRANCH   4  21
BRANCH   1  23
HETATM   23  C8  UNL     1      24.679   6.614  48.928  1.00  0.00     0.169 C 
BRANCH  23  24
HETATM   24  C7  UNL     1      26.083   6.535  48.574  1.00  0.00    -0.007 A 
HETATM   25  C2  UNL     1      26.810   7.552  47.923  1.00  0.00     0.076 A 
HETATM   26  C3  UNL     1      28.162   7.431  47.542  1.00  0.00     0.037 A 
HETATM   27  C4  UNL     1      28.673   6.228  47.879  1.00  0.00     0.003 A 
HETATM   28  C5  UNL     1      28.116   5.150  48.504  1.00  0.00     0.001 A 
HETATM   29  C6  UNL     1      26.773   5.342  48.849  1.00  0.00     0.011 A 
BRANCH  25  30
HETATM   30  O1  UNL     1      26.113   8.745  47.663  1.00  0.00    -0.355 OA
HETATM   31  C1  UNL     1      26.332   9.955  48.344  1.00  0.00     0.210 C 
ENDBRANCH  25  30
ENDBRANCH  23  24
ENDBRANCH   1  23
TORSDOF 6
ENDMDL
MODEL 6
REMARK VINA RESULT:      -8.5      2.448      8.657
REMARK  6 active torsions:
REMARK  status: ('A' for Active; 'I' for Inactive)
REMARK    1  A    between atoms: O1_2  and  C2_3 
REMARK    2  A    between atoms: C7_8  and  C8_9 
REMARK    3  A    between atoms: C8_9  and  N1_10 
REMARK    4  A    between atoms: C11_13  and  C12_14 
REMARK    5  A    between atoms: C13_16  and  N2_17 
REMARK    6  A    between atoms: N2_17  and  C14_18 
ROOT
HETATM    1  N1  UNL     1      27.504   6.075  48.293  1.00  0.00    -0.360 N 
HETATM    2  C9  UNL     1      26.352   6.898  48.285  1.00  0.00     0.088 A 
HETATM    3  C10 UNL     1      25.161   6.679  48.811  1.00  0.00     0.008 A 
HETATM    4  C11 UNL     1      24.885   5.401  49.540  1.00  0.00     0.123 A 
HETATM    5  C13 UNL     1      26.140   4.619  49.503  1.00  0.00     0.056 A 
HETATM    6  C23 UNL     1      27.336   4.806  48.993  1.00  0.00     0.117 A 
ENDROOT
BRANCH   5   7
HETATM    7  N2  UNL     1      25.961   3.389  50.161  1.00  0.00    -0.189 N 
HETATM    8  H14 UNL     1      25.459   2.752  49.515  1.00  0.00     0.184 HD
BRANCH   7   9
HETATM    9  C14 UNL     1      26.048   2.463  51.198  1.00  0.00     0.727 A 
HETATM   10  N3  UNL     1      27.252   2.166  51.798  1.00  0.00    -0.075 NA
HETATM   11  C15 UNL     1      27.293   1.252  52.802  1.00  0.00     0.139 A 
HETATM   12  C16 UNL     1      26.082   0.695  53.131  1.00  0.00     0.053 A 
HETATM   13  C17 UNL     1      24.843   0.932  52.590  1.00  0.00     0.089 A 
HETATM   14  C18 UNL     1      23.625   0.286  53.014  1.00  0.00     0.011 A 
HETATM   15  N5  UNL     1      24.950   1.842  51.626  1.00  0.00    -0.062 NA
HETATM   16  C19 UNL     1      22.429   0.615  52.409  1.00  0.00     0.017 A 
HETATM   17  C22 UNL     1      23.580  -0.653  53.996  1.00  0.00     0.130 A 
HETATM   18  C20 UNL     1      21.269  -0.005  52.803  1.00  0.00     0.020 A 
HETATM   19  C21 UNL     1      21.288  -0.972  53.822  1.00  0.00     0.116 A 
HETATM   20  N4  UNL     1      22.446  -1.272  54.396  1.00  0.00    -0.272 NA
ENDBRANCH   7   9
ENDBRANCH   5   7
BRANCH   4  21
HETATM   21  C12 UNL     1      23.805   4.652  48.841  1.00  0.00     0.245 C 
HETATM   22  O2  UNL     1      23.096   4.102  49.697  1.00  0.00    -0.306 OA
ENDBRANCH   4  21
BRANCH   1  23
HETATM   23  C8  UNL     1      28.551   6.722  47.580  1.00  0.00     0.169 C 
BRANCH  23  24
HETATM   24  C7  UNL     1      29.745   7.170  48.273  1.00  0.00    -0.007 A 
HETATM   25  C2  UNL     1      30.840   6.349  48.605  1.00  0.00     0.076 A 
HETATM   26  C3  UNL     1      31.967   6.796  49.325  1.00  0.00     0.037 A 
HETATM   27  C4  UNL     1      31.868   8.102  49.652  1.00  0.00     0.003 A 
HETATM   28  C5  UNL     1      30.893   9.025  49.410  1.00  0.00     0.001 A 
HETATM   29  C6  UNL     1      29.807   8.509  48.695  1.00  0.00     0.011 A 
BRANCH  25  30
HETATM   30  O1  UNL     1      30.772   5.014  48.168  1.00  0.00    -0.355 OA
HETATM   31  C1  UNL     1      31.749   4.390  47.373  1.00  0.00     0.210 C 
ENDBRANCH  25  30
ENDBRANCH  23  24
ENDBRANCH   1  23
TORSDOF 6
ENDMDL
MODEL 7
REMARK VINA RESULT:      -8.4      2.467      7.704
REMARK  6 active torsions:
REMARK  status: ('A' for Active; 'I' for Inactive)
REMARK    1  A    between atoms: O1_2  and  C2_3 
REMARK    2  A    between atoms: C7_8  and  C8_9 
REMARK    3  A    between atoms: C8_9  and  N1_10 
REMARK    4  A    between atoms: C11_13  and  C12_14 
REMARK    5  A    between atoms: C13_16  and  N2_17 
REMARK    6  A    between atoms: N2_17  and  C14_18 
ROOT
HETATM    1  N1  UNL     1      26.813   7.008  48.888  1.00  0.00    -0.360 N 
HETATM    2  C9  UNL     1      26.188   8.097  49.542  1.00  0.00     0.088 A 
HETATM    3  C10 UNL     1      25.174   8.097  50.388  1.00  0.00     0.008 A 
HETATM    4  C11 UNL     1      24.518   6.809  50.775  1.00  0.00     0.123 A 
HETATM    5  C13 UNL     1      25.241   5.738  50.055  1.00  0.00     0.056 A 
HETATM    6  C23 UNL     1      26.248   5.702  49.212  1.00  0.00     0.117 A 
ENDROOT
BRANCH   5   7
HETATM    7  N2  UNL     1      24.675   4.487  50.357  1.00  0.00    -0.189 N 
HETATM    8  H14 UNL     1      23.878   4.334  49.712  1.00  0.00     0.184 HD
BRANCH   7   9
HETATM    9  C14 UNL     1      24.522   3.274  51.024  1.00  0.00     0.727 A 
HETATM   10  N3  UNL     1      23.350   2.554  50.948  1.00  0.00    -0.075 NA
HETATM   11  C15 UNL     1      23.241   1.377  51.620  1.00  0.00     0.139 A 
HETATM   12  C16 UNL     1      24.355   1.009  52.333  1.00  0.00     0.053 A 
HETATM   13  C17 UNL     1      25.557   1.661  52.460  1.00  0.00     0.089 A 
HETATM   14  C18 UNL     1      26.671   1.182  53.242  1.00  0.00     0.011 A 
HETATM   15  N5  UNL     1      25.524   2.789  51.756  1.00  0.00    -0.062 NA
HETATM   16  C19 UNL     1      27.841   1.913  53.285  1.00  0.00     0.017 A 
HETATM   17  C22 UNL     1      26.639   0.027  53.958  1.00  0.00     0.130 A 
HETATM   18  C20 UNL     1      28.900   1.464  54.035  1.00  0.00     0.020 A 
HETATM   19  C21 UNL     1      28.805   0.264  54.759  1.00  0.00     0.116 A 
HETATM   20  N4  UNL     1      27.674  -0.428  54.701  1.00  0.00    -0.272 NA
ENDBRANCH   7   9
ENDBRANCH   5   7
BRANCH   4  21
HETATM   21  C12 UNL     1      23.092   6.828  50.347  1.00  0.00     0.245 C 
HETATM   22  O2  UNL     1      22.425   6.204  51.186  1.00  0.00    -0.306 OA
ENDBRANCH   4  21
BRANCH   1  23
HETATM   23  C8  UNL     1      27.855   7.495  48.051  1.00  0.00     0.169 C 
BRANCH  23  24
HETATM   24  C7  UNL     1      29.234   7.122  48.300  1.00  0.00    -0.007 A 
HETATM   25  C2  UNL     1      30.197   7.952  48.909  1.00  0.00     0.076 A 
HETATM   26  C3  UNL     1      31.546   7.585  49.093  1.00  0.00     0.037 A 
HETATM   27  C4  UNL     1      31.799   6.347  48.620  1.00  0.00     0.003 A 
HETATM   28  C5  UNL     1      30.994   5.426  48.015  1.00  0.00     0.001 A 
HETATM   29  C6  UNL     1      29.672   5.860  47.863  1.00  0.00     0.011 A 
BRANCH  25  30
HETATM   30  O1  UNL     1      29.745   9.207  49.352  1.00  0.00    -0.355 OA
HETATM   31  C1  UNL     1      30.443  10.413  49.160  1.00  0.00     0.210 C 
ENDBRANCH  25  30
ENDBRANCH  23  24
ENDBRANCH   1  23
TORSDOF 6
ENDMDL
MODEL 8
REMARK VINA RESULT:      -8.3      2.344      4.047
REMARK  6 active torsions:
REMARK  status: ('A' for Active; 'I' for Inactive)
REMARK    1  A    between atoms: O1_2  and  C2_3 
REMARK    2  A    between atoms: C7_8  and  C8_9 
REMARK    3  A    between atoms: C8_9  and  N1_10 
REMARK    4  A    between atoms: C11_13  and  C12_14 
REMARK    5  A    between atoms: C13_16  and  N2_17 
REMARK    6  A    between atoms: N2_17  and  C14_18 
ROOT
HETATM    1  N1  UNL     1      25.581   4.560  49.159  1.00  0.00    -0.360 N 
HETATM    2  C9  UNL     1      24.550   5.503  48.924  1.00  0.00     0.088 A 
HETATM    3  C10 UNL     1      24.635   6.749  48.497  1.00  0.00     0.008 A 
HETATM    4  C11 UNL     1      25.972   7.350  48.192  1.00  0.00     0.123 A 
HETATM    5  C13 UNL     1      26.975   6.296  48.457  1.00  0.00     0.056 A 
HETATM    6  C23 UNL     1      26.926   5.053  48.878  1.00  0.00     0.117 A 
ENDROOT
BRANCH   5   7
HETATM    7  N2  UNL     1      28.268   6.786  48.205  1.00  0.00    -0.189 N 
HETATM    8  H14 UNL     1      28.292   7.136  47.229  1.00  0.00     0.184 HD
BRANCH   7   9
HETATM    9  C14 UNL     1      29.597   7.103  48.477  1.00  0.00     0.727 A 
HETATM   10  N3  UNL     1      29.960   8.350  48.937  1.00  0.00    -0.075 NA
HETATM   11  C15 UNL     1      31.269   8.618  49.184  1.00  0.00     0.139 A 
HETATM   12  C16 UNL     1      32.132   7.577  48.942  1.00  0.00     0.053 A 
HETATM   13  C17 UNL     1      31.857   6.311  48.488  1.00  0.00     0.089 A 
HETATM   14  C18 UNL     1      32.848   5.286  48.267  1.00  0.00     0.011 A 
HETATM   15  N5  UNL     1      30.548   6.188  48.290  1.00  0.00    -0.062 NA
HETATM   16  C19 UNL     1      32.455   4.039  47.824  1.00  0.00     0.017 A 
HETATM   17  C22 UNL     1      34.178   5.477  48.470  1.00  0.00     0.130 A 
HETATM   18  C20 UNL     1      33.396   3.064  47.604  1.00  0.00     0.020 A 
HETATM   19  C21 UNL     1      34.759   3.323  47.827  1.00  0.00     0.116 A 
HETATM   20  N4  UNL     1      35.117   4.526  48.258  1.00  0.00    -0.272 NA
ENDBRANCH   7   9
ENDBRANCH   5   7
BRANCH   4  21
HETATM   21  C12 UNL     1      26.213   8.511  49.094  1.00  0.00     0.245 C 
HETATM   22  O2  UNL     1      26.450   8.077  50.232  1.00  0.00    -0.306 OA
ENDBRANCH   4  21
BRANCH   1  23
HETATM   23  C8  UNL     1      25.011   3.347  49.634  1.00  0.00     0.169 C 
BRANCH  23  24
HETATM   24  C7  UNL     1      25.353   2.840  50.949  1.00  0.00    -0.007 A 
HETATM   25  C2  UNL     1      24.578   3.026  52.111  1.00  0.00     0.076 A 
HETATM   26  C3  UNL     1      24.956   2.568  53.390  1.00  0.00     0.037 A 
HETATM   27  C4  UNL     1      26.146   1.930  53.362  1.00  0.00     0.003 A 
HETATM   28  C5  UNL     1      27.009   1.666  52.339  1.00  0.00     0.001 A 
HETATM   29  C6  UNL     1      26.568   2.152  51.103  1.00  0.00     0.011 A 
BRANCH  25  30
HETATM   30  O1  UNL     1      23.358   3.706  51.944  1.00  0.00    -0.355 OA
HETATM   31  C1  UNL     1      22.094   3.100  52.041  1.00  0.00     0.210 C 
ENDBRANCH  25  30
ENDBRANCH  23  24
ENDBRANCH   1  23
TORSDOF 6
ENDMDL
MODEL 9
REMARK VINA RESULT:      -8.2      2.272      3.586
REMARK  6 active torsions:
REMARK  status: ('A' for Active; 'I' for Inactive)
REMARK    1  A    between atoms: O1_2  and  C2_3 
REMARK    2  A    between atoms: C7_8  and  C8_9 
REMARK    3  A    between atoms: C8_9  and  N1_10 
REMARK    4  A    between atoms: C11_13  and  C12_14 
REMARK    5  A    between atoms: C13_16  and  N2_17 
REMARK    6  A    between atoms: N2_17  and  C14_18 
ROOT
HETATM    1  N1  UNL     1      25.854   2.749  50.934  1.00  0.00    -0.360 N 
HETATM    2  C9  UNL     1      24.556   3.314  50.882  1.00  0.00     0.088 A 
HETATM    3  C10 UNL     1      24.126   4.368  50.214  1.00  0.00     0.008 A 
HETATM    4  C11 UNL     1      25.071   5.154  49.360  1.00  0.00     0.123 A 
HETATM    5  C13 UNL     1      26.387   4.487  49.471  1.00  0.00     0.056 A 
HETATM    6  C23 UNL     1      26.848   3.443  50.121  1.00  0.00     0.117 A 
ENDROOT
BRANCH   5   7
HETATM    7  N2  UNL     1      27.343   5.175  48.701  1.00  0.00    -0.189 N 
HETATM    8  H14 UNL     1      26.907   5.414  47.791  1.00  0.00     0.184 HD
BRANCH   7   9
HETATM    9  C14 UNL     1      28.572   5.756  48.400  1.00  0.00     0.727 A 
HETATM   10  N3  UNL     1      29.656   4.992  48.025  1.00  0.00    -0.075 NA
HETATM   11  C15 UNL     1      30.839   5.599  47.746  1.00  0.00     0.139 A 
HETATM   12  C16 UNL     1      30.834   6.967  47.868  1.00  0.00     0.053 A 
HETATM   13  C17 UNL     1      29.806   7.801  48.231  1.00  0.00     0.089 A 
HETATM   14  C18 UNL     1      29.910   9.237  48.329  1.00  0.00     0.011 A 
HETATM   15  N5  UNL     1      28.717   7.078  48.473  1.00  0.00    -0.062 NA
HETATM   16  C19 UNL     1      28.804   9.980  48.688  1.00  0.00     0.017 A 
HETATM   17  C22 UNL     1      31.059   9.921  48.086  1.00  0.00     0.130 A 
HETATM   18  C20 UNL     1      28.901  11.346  48.791  1.00  0.00     0.020 A 
HETATM   19  C21 UNL     1      30.119  11.996  48.531  1.00  0.00     0.116 A 
HETATM   20  N4  UNL     1      31.171  11.265  48.182  1.00  0.00    -0.272 NA
ENDBRANCH   7   9
ENDBRANCH   5   7
BRANCH   4  21
HETATM   21  C12 UNL     1      25.169   6.547  49.876  1.00  0.00     0.245 C 
HETATM   22  O2  UNL     1      25.254   7.316  48.907  1.00  0.00    -0.306 OA
ENDBRANCH   4  21
BRANCH   1  23
HETATM   23  C8  UNL     1      25.845   1.625  51.805  1.00  0.00     0.169 C 
BRANCH  23  24
HETATM   24  C7  UNL     1      27.032   1.270  52.559  1.00  0.00    -0.007 A 
HETATM   25  C2  UNL     1      27.502  -0.045  52.751  1.00  0.00     0.076 A 
HETATM   26  C3  UNL     1      28.630  -0.369  53.532  1.00  0.00     0.037 A 
HETATM   27  C4  UNL     1      29.202   0.730  54.069  1.00  0.00     0.003 A 
HETATM   28  C5  UNL     1      28.880   2.053  53.982  1.00  0.00     0.001 A 
HETATM   29  C6  UNL     1      27.749   2.297  53.194  1.00  0.00     0.011 A 
BRANCH  25  30
HETATM   30  O1  UNL     1      26.782  -1.064  52.102  1.00  0.00    -0.355 OA
HETATM   31  C1  UNL     1      26.918  -2.434  52.388  1.00  0.00     0.210 C 
ENDBRANCH  25  30
ENDBRANCH  23  24
ENDBRANCH   1  23
TORSDOF 6
ENDMDL
