MODEL 1
REMARK VINA RESULT:      -8.8      0.000      0.000
REMARK  7 active torsions:
REMARK  status: ('A' for Active; 'I' for Inactive)
REMARK    1  A    between atoms: C6_7  and  C7_8 
REMARK    2  A    between atoms: C7_8  and  C8_9 
REMARK    3  A    between atoms: C8_9  and  O2_10 
REMARK    4  A    between atoms: O2_10  and  C9_11 
REMARK    5  A    between atoms: C15_19  and  C16_20 
REMARK    6  A    between atoms: C21_26  and  N1_27 
REMARK    7  A    between atoms: C22_28  and  N2_29 
ROOT
HETATM    1  C9  UNL     1      26.367   2.445  51.846  1.00  0.00     0.108 A 
HETATM    2  C10 UNL     1      27.116   1.899  52.773  1.00  0.00     0.133 A 
HETATM    3  O3  UNL     1      28.499   1.804  52.725  1.00  0.00    -0.344 OA
HETATM    4  C11 UNL     1      29.277   0.960  53.506  1.00  0.00     0.202 C 
HETATM    5  C12 UNL     1      28.650   0.420  54.749  1.00  0.00     0.202 C 
HETATM    6  O4  UNL     1      27.291   0.752  54.928  1.00  0.00    -0.346 OA
HETATM    7  C13 UNL     1      26.491   1.326  53.978  1.00  0.00     0.101 A 
HETATM    8  C14 UNL     1      25.199   1.402  54.073  1.00  0.00     0.024 A 
HETATM    9  C15 UNL     1      24.245   2.009  53.109  1.00  0.00     0.071 A 
HETATM   10  C21 UNL     1      24.877   2.554  51.874  1.00  0.00     0.180 A 
ENDROOT
BRANCH   1  11
HETATM   11  O2  UNL     1      26.907   2.966  50.755  1.00  0.00    -0.350 OA
BRANCH  11  12
HETATM   12  C8  UNL     1      26.586   3.495  49.560  1.00  0.00     0.176 C 
BRANCH  12  13
HETATM   13  C7  UNL     1      27.596   4.418  48.926  1.00  0.00     0.032 C 
BRANCH  13  14
HETATM   14  C6  UNL     1      26.975   5.703  48.442  1.00  0.00    -0.005 C 
HETATM   15  C2  UNL     1      28.011   6.812  48.417  1.00  0.00     0.009 C 
HETATM   16  C1  UNL     1      29.287   6.392  47.732  1.00  0.00     0.012 C 
HETATM   17  C3  UNL     1      27.440   8.012  47.675  1.00  0.00     0.172 C 
HETATM   18  O1  UNL     1      26.101   8.114  47.950  1.00  0.00    -0.391 OA
HETATM   19  C4  UNL     1      25.801   7.690  49.238  1.00  0.00     0.168 C 
HETATM   20  C5  UNL     1      25.869   6.179  49.375  1.00  0.00     0.031 C 
ENDBRANCH  13  14
ENDBRANCH  12  13
ENDBRANCH  11  12
ENDBRANCH   1  11
BRANCH  10  21
HETATM   21  N1  UNL     1      24.542   3.959  51.759  1.00  0.00    -0.272 NA
HETATM   22  C22 UNL     1      23.792   4.598  52.607  1.00  0.00     0.194 C 
BRANCH  22  23
HETATM   23  N2  UNL     1      23.682   5.978  52.161  1.00  0.00    -0.394 N 
HETATM   24  H28 UNL     1      22.693   6.220  51.864  1.00  0.00     0.156 HD
HETATM   25  H29 UNL     1      23.563   6.933  51.842  1.00  0.00     0.156 HD
ENDBRANCH  22  23
ENDBRANCH  10  21
BRANCH   9  26
HETATM   26  C16 UNL     1      23.121   1.086  52.799  1.00  0.00    -0.063 A 
HETATM   27  C17 UNL     1      22.109   1.309  51.999  1.00  0.00     0.045 A 
HETATM   28  C18 UNL     1      21.243   0.135  51.985  1.00  0.00     0.113 A 
HETATM   29  F1  UNL     1      20.083  -0.171  51.344  1.00  0.00    -0.206 F 
HETATM   30  C19 UNL     1      21.719  -0.817  52.778  1.00  0.00     0.020 A 
HETATM   31  C20 UNL     1      22.986  -0.276  53.376  1.00  0.00     0.065 A 
ENDBRANCH   9  26
TORSDOF 7
ENDMDL
MODEL 2
REMARK VINA RESULT:      -8.7      3.046      7.537
REMARK  7 active torsions:
REMARK  status: ('A' for Active; 'I' for Inactive)
REMARK    1  A    between atoms: C6_7  and  C7_8 
REMARK    2  A    between atoms: C7_8  and  C8_9 
REMARK    3  A    between atoms: C8_9  and  O2_10 
REMARK    4  A    between atoms: O2_10  and  C9_11 
REMARK    5  A    between atoms: C15_19  and  C16_20 
REMARK    6  A    between atoms: C21_26  and  N1_27 
REMARK    7  A    between atoms: C22_28  and  N2_29 
ROOT
HETATM    1  C9  UNL     1      24.311   2.999  51.424  1.00  0.00     0.108 A 
HETATM    2  C10 UNL     1      25.305   2.470  52.096  1.00  0.00     0.133 A 
HETATM    3  O3  UNL     1      25.195   1.886  53.350  1.00  0.00    -0.344 OA
HETATM    4  C11 UNL     1      26.251   1.625  54.213  1.00  0.00     0.202 C 
HETATM    5  C12 UNL     1      27.619   1.585  53.614  1.00  0.00     0.202 C 
HETATM    6  O4  UNL     1      27.686   1.926  52.247  1.00  0.00    -0.346 OA
HETATM    7  C13 UNL     1      26.662   2.474  51.524  1.00  0.00     0.101 A 
HETATM    8  C14 UNL     1      26.812   3.000  50.347  1.00  0.00     0.024 A 
HETATM    9  C15 UNL     1      25.771   3.609  49.478  1.00  0.00     0.071 A 
HETATM   10  C21 UNL     1      24.406   3.638  50.077  1.00  0.00     0.180 A 
ENDROOT
BRANCH   1  11
HETATM   11  O2  UNL     1      23.083   3.008  51.919  1.00  0.00    -0.350 OA
BRANCH  11  12
HETATM   12  C8  UNL     1      22.116   2.192  52.377  1.00  0.00     0.176 C 
BRANCH  12  13
HETATM   13  C7  UNL     1      21.944   0.871  51.672  1.00  0.00     0.032 C 
BRANCH  13  14
HETATM   14  C6  UNL     1      21.746  -0.273  52.635  1.00  0.00    -0.005 C 
HETATM   15  C2  UNL     1      20.354  -0.221  53.236  1.00  0.00     0.009 C 
HETATM   16  C1  UNL     1      19.282  -0.040  52.192  1.00  0.00     0.012 C 
HETATM   17  C3  UNL     1      20.083  -1.519  53.982  1.00  0.00     0.172 C 
HETATM   18  O1  UNL     1      21.244  -1.947  54.574  1.00  0.00    -0.391 OA
HETATM   19  C4  UNL     1      22.043  -0.885  54.979  1.00  0.00     0.168 C 
HETATM   20  C5  UNL     1      22.717  -0.195  53.806  1.00  0.00     0.031 C 
ENDBRANCH  13  14
ENDBRANCH  12  13
ENDBRANCH  11  12
ENDBRANCH   1  11
BRANCH  10  21
HETATM   21  N1  UNL     1      23.496   2.934  49.196  1.00  0.00    -0.272 NA
HETATM   22  C22 UNL     1      22.707   3.521  48.346  1.00  0.00     0.194 C 
BRANCH  22  23
HETATM   23  N2  UNL     1      21.951   2.494  47.647  1.00  0.00    -0.394 N 
HETATM   24  H28 UNL     1      22.587   1.789  47.174  1.00  0.00     0.156 HD
HETATM   25  H29 UNL     1      21.462   1.760  47.147  1.00  0.00     0.156 HD
ENDBRANCH  22  23
ENDBRANCH  10  21
BRANCH   9  26
HETATM   26  C16 UNL     1      26.190   4.946  48.980  1.00  0.00    -0.063 A 
HETATM   27  C17 UNL     1      25.442   6.012  48.846  1.00  0.00     0.045 A 
HETATM   28  C18 UNL     1      26.257   7.105  48.327  1.00  0.00     0.113 A 
HETATM   29  F1  UNL     1      25.999   8.401  48.006  1.00  0.00    -0.206 F 
HETATM   30  C19 UNL     1      27.512   6.715  48.138  1.00  0.00     0.020 A 
HETATM   31  C20 UNL     1      27.574   5.272  48.550  1.00  0.00     0.065 A 
ENDBRANCH   9  26
TORSDOF 7
ENDMDL
MODEL 3
REMARK VINA RESULT:      -8.6      3.654      5.759
REMARK  7 active torsions:
REMARK  status: ('A' for Active; 'I' for Inactive)
REMARK    1  A    between atoms: C6_7  and  C7_8 
REMARK    2  A    between atoms: C7_8  and  C8_9 
REMARK    3  A    between atoms: C8_9  and  O2_10 
REMARK    4  A    between atoms: O2_10  and  C9_11 
REMARK    5  A    between atoms: C15_19  and  C16_20 
REMARK    6  A    between atoms: C21_26  and  N1_27 
REMARK    7  A    between atoms: C22_28  and  N2_29 
ROOT
HETATM    1  C9  UNL     1      23.949   1.844  52.940  1.00  0.00     0.108 A 
HETATM    2  C10 UNL     1      23.133   0.885  53.306  1.00  0.00     0.133 A 
HETATM    3  O3  UNL     1      21.820   1.070  53.714  1.00  0.00    -0.344 OA
HETATM    4  C11 UNL     1      21.053   0.145  54.409  1.00  0.00     0.202 C 
HETATM    5  C12 UNL     1      21.506  -1.277  54.365  1.00  0.00     0.202 C 
HETATM    6  O4  UNL     1      22.731  -1.497  53.701  1.00  0.00    -0.346 OA
HETATM    7  C13 UNL     1      23.597  -0.513  53.306  1.00  0.00     0.101 A 
HETATM    8  C14 UNL     1      24.816  -0.737  52.920  1.00  0.00     0.024 A 
HETATM    9  C15 UNL     1      25.827   0.251  52.465  1.00  0.00     0.071 A 
HETATM   10  C21 UNL     1      25.367   1.669  52.502  1.00  0.00     0.180 A 
ENDROOT
BRANCH   1  11
HETATM   11  O2  UNL     1      23.555   3.108  52.934  1.00  0.00    -0.350 OA
BRANCH  11  12
HETATM   12  C8  UNL     1      22.958   4.031  52.157  1.00  0.00     0.176 C 
BRANCH  12  13
HETATM   13  C7  UNL     1      21.686   3.621  51.459  1.00  0.00     0.032 C 
BRANCH  13  14
HETATM   14  C6  UNL     1      21.766   3.805  49.965  1.00  0.00    -0.005 C 
HETATM   15  C2  UNL     1      22.496   2.637  49.328  1.00  0.00     0.009 C 
HETATM   16  C1  UNL     1      21.977   1.304  49.805  1.00  0.00     0.012 C 
HETATM   17  C3  UNL     1      22.325   2.705  47.817  1.00  0.00     0.172 C 
HETATM   18  O1  UNL     1      22.328   4.019  47.424  1.00  0.00    -0.391 OA
HETATM   19  C4  UNL     1      23.157   4.798  48.222  1.00  0.00     0.168 C 
HETATM   20  C5  UNL     1      22.558   5.052  49.594  1.00  0.00     0.031 C 
ENDBRANCH  13  14
ENDBRANCH  12  13
ENDBRANCH  11  12
ENDBRANCH   1  11
BRANCH  10  21
HETATM   21  N1  UNL     1      25.485   2.233  51.174  1.00  0.00    -0.272 NA
HETATM   22  C22 UNL     1      26.479   2.975  50.785  1.00  0.00     0.194 C 
BRANCH  22  23
HETATM   23  N2  UNL     1      26.248   3.351  49.399  1.00  0.00    -0.394 N 
HETATM   24  H28 UNL     1      25.262   3.116  49.086  1.00  0.00     0.156 HD
HETATM   25  H29 UNL     1      26.046   3.596  48.436  1.00  0.00     0.156 HD
ENDBRANCH  22  23
ENDBRANCH  10  21
BRANCH   9  26
HETATM   26  C16 UNL     1      27.125   0.067  53.167  1.00  0.00    -0.063 A 
HETATM   27  C17 UNL     1      27.982  -0.909  53.007  1.00  0.00     0.045 A 
HETATM   28  C18 UNL     1      29.120  -0.696  53.893  1.00  0.00     0.113 A 
HETATM   29  F1  UNL     1      30.270  -1.384  54.131  1.00  0.00    -0.206 F 
HETATM   30  C19 UNL     1      28.968   0.413  54.606  1.00  0.00     0.020 A 
HETATM   31  C20 UNL     1      27.652   1.005  54.191  1.00  0.00     0.065 A 
ENDBRANCH   9  26
TORSDOF 7
ENDMDL
MODEL 4
REMARK VINA RESULT:      -8.5      3.823      5.928
REMARK  7 active torsions:
REMARK  status: ('A' for Active; 'I' for Inactive)
REMARK    1  A    between atoms: C6_7  and  C7_8 
REMARK    2  A    between atoms: C7_8  and  C8_9 
REMARK    3  A    between atoms: C8_9  and  O2_10 
REMARK    4  A    between atoms: O2_10  and  C9_11 
REMARK    5  A    between atoms: C15_19  and  C16_20 
REMARK    6  A    between atoms: C21_26  and  N1_27 
REMARK    7  A    between atoms: C22_28  and  N2_29 
ROOT
HETATM    1  C9  UNL     1      23.954   1.855  52.913  1.00  0.00     0.108 A 
HETATM    2  C10 UNL     1      23.139   0.896  53.280  1.00  0.00     0.133 A 
HETATM    3  O3  UNL     1      21.822   1.079  53.676  1.00  0.00    -0.344 OA
HETATM    4  C11 UNL     1      21.053   0.157  54.372  1.00  0.00     0.202 C 
HETATM    5  C12 UNL     1      21.512  -1.264  54.342  1.00  0.00     0.202 C 
HETATM    6  O4  UNL     1      22.743  -1.484  53.691  1.00  0.00    -0.346 OA
HETATM    7  C13 UNL     1      23.608  -0.501  53.295  1.00  0.00     0.101 A 
HETATM    8  C14 UNL     1      24.830  -0.724  52.921  1.00  0.00     0.024 A 
HETATM    9  C15 UNL     1      25.842   0.265  52.465  1.00  0.00     0.071 A 
HETATM   10  C21 UNL     1      25.376   1.682  52.488  1.00  0.00     0.180 A 
ENDROOT
BRANCH   1  11
HETATM   11  O2  UNL     1      23.555   3.117  52.893  1.00  0.00    -0.350 OA
BRANCH  11  12
HETATM   12  C8  UNL     1      23.105   4.076  52.064  1.00  0.00     0.176 C 
BRANCH  12  13
HETATM   13  C7  UNL     1      21.907   3.740  51.212  1.00  0.00     0.032 C 
BRANCH  13  14
HETATM   14  C6  UNL     1      22.295   3.121  49.894  1.00  0.00    -0.005 C 
HETATM   15  C2  UNL     1      21.494   3.740  48.764  1.00  0.00     0.009 C 
HETATM   16  C1  UNL     1      21.495   5.247  48.816  1.00  0.00     0.012 C 
HETATM   17  C3  UNL     1      22.088   3.305  47.432  1.00  0.00     0.172 C 
HETATM   18  O1  UNL     1      22.535   2.013  47.542  1.00  0.00    -0.391 OA
HETATM   19  C4  UNL     1      21.750   1.263  48.407  1.00  0.00     0.168 C 
HETATM   20  C5  UNL     1      21.990   1.629  49.862  1.00  0.00     0.031 C 
ENDBRANCH  13  14
ENDBRANCH  12  13
ENDBRANCH  11  12
ENDBRANCH   1  11
BRANCH  10  21
HETATM   21  N1  UNL     1      25.503   2.235  51.156  1.00  0.00    -0.272 NA
HETATM   22  C22 UNL     1      26.531   2.919  50.748  1.00  0.00     0.194 C 
BRANCH  22  23
HETATM   23  N2  UNL     1      26.297   3.304  49.365  1.00  0.00    -0.394 N 
HETATM   24  H28 UNL     1      25.413   2.866  48.978  1.00  0.00     0.156 HD
HETATM   25  H29 UNL     1      26.098   3.547  48.401  1.00  0.00     0.156 HD
ENDBRANCH  22  23
ENDBRANCH  10  21
BRANCH   9  26
HETATM   26  C16 UNL     1      27.134   0.092  53.180  1.00  0.00    -0.063 A 
HETATM   27  C17 UNL     1      27.995  -0.884  53.036  1.00  0.00     0.045 A 
HETATM   28  C18 UNL     1      29.126  -0.659  53.929  1.00  0.00     0.113 A 
HETATM   29  F1  UNL     1      30.275  -1.341  54.183  1.00  0.00    -0.206 F 
HETATM   30  C19 UNL     1      28.966   0.457  54.630  1.00  0.00     0.020 A 
HETATM   31  C20 UNL     1      27.651   1.041  54.198  1.00  0.00     0.065 A 
ENDBRANCH   9  26
TORSDOF 7
ENDMDL
MODEL 5
REMARK VINA RESULT:      -8.5      3.482      6.428
REMARK  7 active torsions:
REMARK  status: ('A' for Active; 'I' for Inactive)
REMARK    1  A    between atoms: C6_7  and  C7_8 
REMARK    2  A    between atoms: C7_8  and  C8_9 
REMARK    3  A    between atoms: C8_9  and  O2_10 
REMARK    4  A    between atoms: O2_10  and  C9_11 
REMARK    5  A    between atoms: C15_19  and  C16_20 
REMARK    6  A    between atoms: C21_26  and  N1_27 
REMARK    7  A    between atoms: C22_28  and  N2_29 
ROOT
HETATM    1  C9  UNL     1      23.073   2.174  52.569  1.00  0.00     0.108 A 
HETATM    2  C10 UNL     1      22.056   1.419  52.907  1.00  0.00     0.133 A 
HETATM    3  O3  UNL     1      22.069   0.476  53.925  1.00  0.00    -0.344 OA
HETATM    4  C11 UNL     1      21.145  -0.548  54.088  1.00  0.00     0.202 C 
HETATM    5  C12 UNL     1      19.837  -0.395  53.384  1.00  0.00     0.202 C 
HETATM    6  O4  UNL     1      19.734   0.733  52.544  1.00  0.00    -0.346 OA
HETATM    7  C13 UNL     1      20.780   1.538  52.181  1.00  0.00     0.101 A 
HETATM    8  C14 UNL     1      20.716   2.416  51.227  1.00  0.00     0.024 A 
HETATM    9  C15 UNL     1      21.782   3.341  50.763  1.00  0.00     0.071 A 
HETATM   10  C21 UNL     1      23.084   3.191  51.475  1.00  0.00     0.180 A 
ENDROOT
BRANCH   1  11
HETATM   11  O2  UNL     1      24.229   2.083  53.207  1.00  0.00    -0.350 OA
BRANCH  11  12
HETATM   12  C8  UNL     1      25.559   2.155  53.011  1.00  0.00     0.176 C 
BRANCH  12  13
HETATM   13  C7  UNL     1      26.176   1.118  52.109  1.00  0.00     0.032 C 
BRANCH  13  14
HETATM   14  C6  UNL     1      27.590   0.778  52.507  1.00  0.00    -0.005 C 
HETATM   15  C2  UNL     1      27.617  -0.514  53.303  1.00  0.00     0.009 C 
HETATM   16  C1  UNL     1      26.831  -1.616  52.640  1.00  0.00     0.012 C 
HETATM   17  C3  UNL     1      29.059  -0.977  53.456  1.00  0.00     0.172 C 
HETATM   18  O1  UNL     1      29.869   0.120  53.598  1.00  0.00    -0.391 OA
HETATM   19  C4  UNL     1      29.233   1.153  54.273  1.00  0.00     0.168 C 
HETATM   20  C5  UNL     1      28.191   1.846  53.411  1.00  0.00     0.031 C 
ENDBRANCH  13  14
ENDBRANCH  12  13
ENDBRANCH  11  12
ENDBRANCH   1  11
BRANCH  10  21
HETATM   21  N1  UNL     1      23.440   4.464  52.066  1.00  0.00    -0.272 NA
HETATM   22  C22 UNL     1      24.004   5.436  51.414  1.00  0.00     0.194 C 
BRANCH  22  23
HETATM   23  N2  UNL     1      24.207   6.542  52.337  1.00  0.00    -0.394 N 
HETATM   24  H28 UNL     1      24.861   7.275  51.937  1.00  0.00     0.156 HD
HETATM   25  H29 UNL     1      24.376   7.331  52.951  1.00  0.00     0.156 HD
ENDBRANCH  22  23
ENDBRANCH  10  21
BRANCH   9  26
HETATM   26  C16 UNL     1      21.945   3.288  49.286  1.00  0.00    -0.063 A 
HETATM   27  C17 UNL     1      21.854   4.284  48.442  1.00  0.00     0.045 A 
HETATM   28  C18 UNL     1      22.086   3.788  47.090  1.00  0.00     0.113 A 
HETATM   29  F1  UNL     1      22.109   4.375  45.863  1.00  0.00    -0.206 F 
HETATM   30  C19 UNL     1      22.319   2.481  47.095  1.00  0.00     0.020 A 
HETATM   31  C20 UNL     1      22.247   2.045  48.530  1.00  0.00     0.065 A 
ENDBRANCH   9  26
TORSDOF 7
ENDMDL
MODEL 6
REMARK VINA RESULT:      -8.4      3.254      7.520
REMARK  7 active torsions:
REMARK  status: ('A' for Active; 'I' for Inactive)
REMARK    1  A    between atoms: C6_7  and  C7_8 
REMARK    2  A    between atoms: C7_8  and  C8_9 
REMARK    3  A    between atoms: C8_9  and  O2_10 
REMARK    4  A    between atoms: O2_10  and  C9_11 
REMARK    5  A    between atoms: C15_19  and  C16_20 
REMARK    6  A    between atoms: C21_26  and  N1_27 
REMARK    7  A    between atoms: C22_28  and  N2_29 
ROOT
HETATM    1  C9  UNL     1      23.681   3.045  50.353  1.00  0.00     0.108 A 
HETATM    2  C10 UNL     1      22.788   3.123  49.397  1.00  0.00     0.133 A 
HETATM    3  O3  UNL     1      21.777   2.199  49.176  1.00  0.00    -0.344 OA
HETATM    4  C11 UNL     1      21.040   2.074  48.006  1.00  0.00     0.202 C 
HETATM    5  C12 UNL     1      21.038   3.246  47.081  1.00  0.00     0.202 C 
HETATM    6  O4  UNL     1      21.879   4.312  47.461  1.00  0.00    -0.346 OA
HETATM    7  C13 UNL     1      22.816   4.256  48.457  1.00  0.00     0.101 A 
HETATM    8  C14 UNL     1      23.738   5.153  48.631  1.00  0.00     0.024 A 
HETATM    9  C15 UNL     1      24.789   5.191  49.681  1.00  0.00     0.071 A 
HETATM   10  C21 UNL     1      24.781   4.023  50.607  1.00  0.00     0.180 A 
ENDROOT
BRANCH   1  11
HETATM   11  O2  UNL     1      23.676   2.034  51.209  1.00  0.00    -0.350 OA
BRANCH  11  12
HETATM   12  C8  UNL     1      24.457   1.056  51.703  1.00  0.00     0.176 C 
BRANCH  12  13
HETATM   13  C7  UNL     1      24.990   1.243  53.100  1.00  0.00     0.032 C 
BRANCH  13  14
HETATM   14  C6  UNL     1      26.469   0.968  53.193  1.00  0.00    -0.005 C 
HETATM   15  C2  UNL     1      26.861   0.675  54.629  1.00  0.00     0.009 C 
HETATM   16  C1  UNL     1      25.956  -0.341  55.277  1.00  0.00     0.012 C 
HETATM   17  C3  UNL     1      28.285   0.137  54.658  1.00  0.00     0.172 C 
HETATM   18  O1  UNL     1      29.024   0.772  53.694  1.00  0.00    -0.391 OA
HETATM   19  C4  UNL     1      28.616   2.086  53.507  1.00  0.00     0.168 C 
HETATM   20  C5  UNL     1      27.293   2.176  52.767  1.00  0.00     0.031 C 
ENDBRANCH  13  14
ENDBRANCH  12  13
ENDBRANCH  11  12
ENDBRANCH   1  11
BRANCH  10  21
HETATM   21  N1  UNL     1      24.630   4.506  51.964  1.00  0.00    -0.272 NA
HETATM   22  C22 UNL     1      23.544   5.055  52.424  1.00  0.00     0.194 C 
BRANCH  22  23
HETATM   23  N2  UNL     1      23.772   5.409  53.816  1.00  0.00    -0.394 N 
HETATM   24  H28 UNL     1      24.616   6.040  53.931  1.00  0.00     0.156 HD
HETATM   25  H29 UNL     1      23.966   5.678  54.775  1.00  0.00     0.156 HD
ENDBRANCH  22  23
ENDBRANCH  10  21
BRANCH   9  26
HETATM   26  C16 UNL     1      26.135   5.429  49.095  1.00  0.00    -0.063 A 
HETATM   27  C17 UNL     1      27.107   4.562  48.962  1.00  0.00     0.045 A 
HETATM   28  C18 UNL     1      28.250   5.217  48.336  1.00  0.00     0.113 A 
HETATM   29  F1  UNL     1      29.492   4.798  47.972  1.00  0.00    -0.206 F 
HETATM   30  C19 UNL     1      27.988   6.493  48.082  1.00  0.00     0.020 A 
HETATM   31  C20 UNL     1      26.584   6.739  48.556  1.00  0.00     0.065 A 
ENDBRANCH   9  26
TORSDOF 7
ENDMDL
MODEL 7
REMARK VINA RESULT:      -8.4      3.808      6.663
REMARK  7 active torsions:
REMARK  status: ('A' for Active; 'I' for Inactive)
REMARK    1  A    between atoms: C6_7  and  C7_8 
REMARK    2  A    between atoms: C7_8  and  C8_9 
REMARK    3  A    between atoms: C8_9  and  O2_10 
REMARK    4  A    between atoms: O2_10  and  C9_11 
REMARK    5  A    between atoms: C15_19  and  C16_20 
REMARK    6  A    between atoms: C21_26  and  N1_27 
REMARK    7  A    between atoms: C22_28  and  N2_29 
ROOT
HETATM    1  C9  UNL     1      24.025   1.863  52.924  1.00  0.00     0.108 A 
HETATM    2  C10 UNL     1      23.251   0.877  53.307  1.00  0.00     0.133 A 
HETATM    3  O3  UNL     1      21.944   1.018  53.751  1.00  0.00    -0.344 OA
HETATM    4  C11 UNL     1      21.226   0.065  54.461  1.00  0.00     0.202 C 
HETATM    5  C12 UNL     1      21.723  -1.342  54.395  1.00  0.00     0.202 C 
HETATM    6  O4  UNL     1      22.935  -1.519  53.698  1.00  0.00    -0.346 OA
HETATM    7  C13 UNL     1      23.758  -0.506  53.285  1.00  0.00     0.101 A 
HETATM    8  C14 UNL     1      24.972  -0.689  52.865  1.00  0.00     0.024 A 
HETATM    9  C15 UNL     1      25.939   0.334  52.388  1.00  0.00     0.071 A 
HETATM   10  C21 UNL     1      25.435   1.736  52.447  1.00  0.00     0.180 A 
ENDROOT
BRANCH   1  11
HETATM   11  O2  UNL     1      23.591   3.113  52.937  1.00  0.00    -0.350 OA
BRANCH  11  12
HETATM   12  C8  UNL     1      22.824   3.979  52.248  1.00  0.00     0.176 C 
BRANCH  12  13
HETATM   13  C7  UNL     1      22.081   3.436  51.054  1.00  0.00     0.032 C 
BRANCH  13  14
HETATM   14  C6  UNL     1      20.734   2.868  51.425  1.00  0.00    -0.005 C 
HETATM   15  C2  UNL     1      20.326   1.791  50.438  1.00  0.00     0.009 C 
HETATM   16  C1  UNL     1      21.425   0.788  50.193  1.00  0.00     0.012 C 
HETATM   17  C3  UNL     1      19.112   1.050  50.980  1.00  0.00     0.172 C 
HETATM   18  O1  UNL     1      18.304   1.938  51.643  1.00  0.00    -0.391 OA
HETATM   19  C4  UNL     1      18.343   3.203  51.070  1.00  0.00     0.168 C 
HETATM   20  C5  UNL     1      19.643   3.929  51.370  1.00  0.00     0.031 C 
ENDBRANCH  13  14
ENDBRANCH  12  13
ENDBRANCH  11  12
ENDBRANCH   1  11
BRANCH  10  21
HETATM   21  N1  UNL     1      25.499   2.310  51.119  1.00  0.00    -0.272 NA
HETATM   22  C22 UNL     1      26.464   3.077  50.705  1.00  0.00     0.194 C 
BRANCH  22  23
HETATM   23  N2  UNL     1      26.180   3.456  49.329  1.00  0.00    -0.394 N 
HETATM   24  H28 UNL     1      25.726   2.665  48.788  1.00  0.00     0.156 HD
HETATM   25  H29 UNL     1      25.967   3.679  48.363  1.00  0.00     0.156 HD
ENDBRANCH  22  23
ENDBRANCH  10  21
BRANCH   9  26
HETATM   26  C16 UNL     1      27.261   0.187  53.054  1.00  0.00    -0.063 A 
HETATM   27  C17 UNL     1      28.027  -0.874  53.070  1.00  0.00     0.045 A 
HETATM   28  C18 UNL     1      29.233  -0.581  53.837  1.00  0.00     0.113 A 
HETATM   29  F1  UNL     1      30.338  -1.303  54.165  1.00  0.00    -0.206 F 
HETATM   30  C19 UNL     1      29.214   0.664  54.297  1.00  0.00     0.020 A 
HETATM   31  C20 UNL     1      27.924   1.271  53.824  1.00  0.00     0.065 A 
ENDBRANCH   9  26
TORSDOF 7
ENDMDL
MODEL 8
REMARK VINA RESULT:      -8.4      1.795      2.355
REMARK  7 active torsions:
REMARK  status: ('A' for Active; 'I' for Inactive)
REMARK    1  A    between atoms: C6_7  and  C7_8 
REMARK    2  A    between atoms: C7_8  and  C8_9 
REMARK    3  A    between atoms: C8_9  and  O2_10 
REMARK    4  A    between atoms: O2_10  and  C9_11 
REMARK    5  A    between atoms: C15_19  and  C16_20 
REMARK    6  A    between atoms: C21_26  and  N1_27 
REMARK    7  A    between atoms: C22_28  and  N2_29 
ROOT
HETATM    1  C9  UNL     1      26.594   2.054  52.396  1.00  0.00     0.108 A 
HETATM    2  C10 UNL     1      27.458   1.277  53.005  1.00  0.00     0.133 A 
HETATM    3  O3  UNL     1      28.811   1.206  52.708  1.00  0.00    -0.344 OA
HETATM    4  C11 UNL     1      29.669   0.184  53.091  1.00  0.00     0.202 C 
HETATM    5  C12 UNL     1      29.224  -0.681  54.224  1.00  0.00     0.202 C 
HETATM    6  O4  UNL     1      27.925  -0.419  54.706  1.00  0.00    -0.346 OA
HETATM    7  C13 UNL     1      27.008   0.390  54.092  1.00  0.00     0.101 A 
HETATM    8  C14 UNL     1      25.752   0.430  54.413  1.00  0.00     0.024 A 
HETATM    9  C15 UNL     1      24.682   1.274  53.820  1.00  0.00     0.071 A 
HETATM   10  C21 UNL     1      25.133   2.143  52.695  1.00  0.00     0.180 A 
ENDROOT
BRANCH   1  11
HETATM   11  O2  UNL     1      26.975   2.858  51.416  1.00  0.00    -0.350 OA
BRANCH  11  12
HETATM   12  C8  UNL     1      26.722   3.157  50.128  1.00  0.00     0.176 C 
BRANCH  12  13
HETATM   13  C7  UNL     1      26.104   4.502  49.845  1.00  0.00     0.032 C 
BRANCH  13  14
HETATM   14  C6  UNL     1      24.890   4.402  48.957  1.00  0.00    -0.005 C 
HETATM   15  C2  UNL     1      24.018   5.633  49.115  1.00  0.00     0.009 C 
HETATM   16  C1  UNL     1      24.808   6.914  49.018  1.00  0.00     0.012 C 
HETATM   17  C3  UNL     1      22.958   5.638  48.023  1.00  0.00     0.172 C 
HETATM   18  O1  UNL     1      22.562   4.349  47.777  1.00  0.00    -0.391 OA
HETATM   19  C4  UNL     1      22.597   3.566  48.924  1.00  0.00     0.168 C 
HETATM   20  C5  UNL     1      24.016   3.212  49.333  1.00  0.00     0.031 C 
ENDBRANCH  13  14
ENDBRANCH  12  13
ENDBRANCH  11  12
ENDBRANCH   1  11
BRANCH  10  21
HETATM   21  N1  UNL     1      24.839   3.522  53.024  1.00  0.00    -0.272 NA
HETATM   22  C22 UNL     1      23.714   4.112  52.747  1.00  0.00     0.194 C 
BRANCH  22  23
HETATM   23  N2  UNL     1      23.793   5.483  53.229  1.00  0.00    -0.394 N 
HETATM   24  H28 UNL     1      23.577   5.550  54.265  1.00  0.00     0.156 HD
HETATM   25  H29 UNL     1      23.835   6.424  53.604  1.00  0.00     0.156 HD
ENDBRANCH  22  23
ENDBRANCH  10  21
BRANCH   9  26
HETATM   26  C16 UNL     1      23.488   0.466  53.457  1.00  0.00    -0.063 A 
HETATM   27  C17 UNL     1      22.571   0.761  52.570  1.00  0.00     0.045 A 
HETATM   28  C18 UNL     1      21.582  -0.311  52.532  1.00  0.00     0.113 A 
HETATM   29  F1  UNL     1      20.446  -0.518  51.813  1.00  0.00    -0.206 F 
HETATM   30  C19 UNL     1      21.885  -1.270  53.398  1.00  0.00     0.020 A 
HETATM   31  C20 UNL     1      23.156  -0.843  54.074  1.00  0.00     0.065 A 
ENDBRANCH   9  26
TORSDOF 7
ENDMDL
MODEL 9
REMARK VINA RESULT:      -8.3      3.184      6.001
REMARK  7 active torsions:
REMARK  status: ('A' for Active; 'I' for Inactive)
REMARK    1  A    between atoms: C6_7  and  C7_8 
REMARK    2  A    between atoms: C7_8  and  C8_9 
REMARK    3  A    between atoms: C8_9  and  O2_10 
REMARK    4  A    between atoms: O2_10  and  C9_11 
REMARK    5  A    between atoms: C15_19  and  C16_20 
REMARK    6  A    between atoms: C21_26  and  N1_27 
REMARK    7  A    between atoms: C22_28  and  N2_29 
ROOT
HETATM    1  C9  UNL     1      23.146   2.359  52.230  1.00  0.00     0.108 A 
HETATM    2  C10 UNL     1      22.578   1.410  52.933  1.00  0.00     0.133 A 
HETATM    3  O3  UNL     1      23.246   0.341  53.512  1.00  0.00    -0.344 OA
HETATM    4  C11 UNL     1      22.654  -0.830  53.967  1.00  0.00     0.202 C 
HETATM    5  C12 UNL     1      21.184  -0.785  54.231  1.00  0.00     0.202 C 
HETATM    6  O4  UNL     1      20.548   0.425  53.883  1.00  0.00    -0.346 OA
HETATM    7  C13 UNL     1      21.121   1.431  53.153  1.00  0.00     0.101 A 
HETATM    8  C14 UNL     1      20.455   2.419  52.640  1.00  0.00     0.024 A 
HETATM    9  C15 UNL     1      20.979   3.561  51.845  1.00  0.00     0.071 A 
HETATM   10  C21 UNL     1      22.447   3.516  51.593  1.00  0.00     0.180 A 
ENDROOT
BRANCH   1  11
HETATM   11  O2  UNL     1      24.453   2.360  52.018  1.00  0.00    -0.350 OA
BRANCH  11  12
HETATM   12  C8  UNL     1      25.372   2.193  51.049  1.00  0.00     0.176 C 
BRANCH  12  13
HETATM   13  C7  UNL     1      26.797   1.970  51.488  1.00  0.00     0.032 C 
BRANCH  13  14
HETATM   14  C6  UNL     1      26.903   0.966  52.607  1.00  0.00    -0.005 C 
HETATM   15  C2  UNL     1      28.262   1.061  53.274  1.00  0.00     0.009 C 
HETATM   16  C1  UNL     1      28.636   2.480  53.619  1.00  0.00     0.012 C 
HETATM   17  C3  UNL     1      28.247   0.244  54.558  1.00  0.00     0.172 C 
HETATM   18  O1  UNL     1      27.476  -0.874  54.369  1.00  0.00    -0.391 OA
HETATM   19  C4  UNL     1      27.551  -1.343  53.064  1.00  0.00     0.168 C 
HETATM   20  C5  UNL     1      26.782  -0.463  52.093  1.00  0.00     0.031 C 
ENDBRANCH  13  14
ENDBRANCH  12  13
ENDBRANCH  11  12
ENDBRANCH   1  11
BRANCH  10  21
HETATM   21  N1  UNL     1      23.047   4.727  52.113  1.00  0.00    -0.272 NA
HETATM   22  C22 UNL     1      23.776   5.539  51.406  1.00  0.00     0.194 C 
BRANCH  22  23
HETATM   23  N2  UNL     1      24.197   6.633  52.268  1.00  0.00    -0.394 N 
HETATM   24  H28 UNL     1      25.218   6.879  52.122  1.00  0.00     0.156 HD
HETATM   25  H29 UNL     1      24.531   7.392  52.851  1.00  0.00     0.156 HD
ENDBRANCH  22  23
ENDBRANCH  10  21
BRANCH   9  26
HETATM   26  C16 UNL     1      20.202   3.754  50.592  1.00  0.00    -0.063 A 
HETATM   27  C17 UNL     1      18.963   3.399  50.364  1.00  0.00     0.045 A 
HETATM   28  C18 UNL     1      18.599   3.781  49.004  1.00  0.00     0.113 A 
HETATM   29  F1  UNL     1      17.465   3.657  48.263  1.00  0.00    -0.206 F 
HETATM   30  C19 UNL     1      19.615   4.373  48.387  1.00  0.00     0.020 A 
HETATM   31  C20 UNL     1      20.747   4.405  49.373  1.00  0.00     0.065 A 
ENDBRANCH   9  26
TORSDOF 7
ENDMDL
