MODEL 1
REMARK VINA RESULT:      -9.2      0.000      0.000
REMARK  4 active torsions:
REMARK  status: ('A' for Active; 'I' for Inactive)
REMARK    1  A    between atoms: C7_7  and  C8_8 
REMARK    2  A    between atoms: C11_13  and  N3_14 
REMARK    3  A    between atoms: N3_14  and  C12_15 
REMARK    4  A    between atoms: C12_15  and  C13_16 
ROOT
HETATM    1  C8  UNL     1      24.021  -0.571  54.241  1.00  0.00     0.029 A 
HETATM    2  C9  UNL     1      23.566  -1.375  55.295  1.00  0.00     0.133 A 
HETATM    3  N1  UNL     1      22.302  -1.824  55.399  1.00  0.00    -0.253 NA
HETATM    4  C10 UNL     1      21.433  -1.475  54.435  1.00  0.00     0.234 A 
HETATM    5  N2  UNL     1      21.824  -0.705  53.407  1.00  0.00    -0.224 NA
HETATM    6  C11 UNL     1      23.082  -0.247  53.286  1.00  0.00     0.137 A 
ENDROOT
BRANCH   1   7
HETATM    7  C7  UNL     1      25.371  -0.085  54.148  1.00  0.00     0.042 C 
HETATM    8  C6  UNL     1      26.469  -0.367  53.469  1.00  0.00     0.013 C 
HETATM    9  C5  UNL     1      26.541  -1.468  52.467  1.00  0.00     0.084 C 
HETATM   10  N4  UNL     1      27.521   0.532  53.852  1.00  0.00    -0.368 N 
HETATM   11  C4  UNL     1      27.644  -2.405  52.686  1.00  0.00    -0.021 C 
HETATM   12  C3  UNL     1      28.879  -2.567  53.090  1.00  0.00    -0.003 C 
HETATM   13  C2  UNL     1      29.696  -1.449  53.577  1.00  0.00     0.013 C 
HETATM   14  C1  UNL     1      29.895  -0.191  53.657  1.00  0.00    -0.009 C 
HETATM   15  C19 UNL     1      28.929   0.660  53.764  1.00  0.00     0.100 C 
HETATM   16  H17 UNL     1      27.126   1.357  54.359  1.00  0.00     0.165 HD
ENDBRANCH   1   7
BRANCH   6  17
HETATM   17  N3  UNL     1      23.268   0.586  52.171  1.00  0.00    -0.370 N 
HETATM   18  H9  UNL     1      23.670   0.095  51.347  1.00  0.00     0.161 HD
BRANCH  17  19
HETATM   19  C12 UNL     1      23.050   1.972  51.920  1.00  0.00     0.160 C 
BRANCH  19  20
HETATM   20  C13 UNL     1      24.093   2.576  51.044  1.00  0.00    -0.041 A 
HETATM   21  C14 UNL     1      23.935   3.395  49.948  1.00  0.00     0.009 A 
HETATM   22  C15 UNL     1      25.042   3.860  49.268  1.00  0.00     0.001 A 
HETATM   23  C16 UNL     1      26.338   3.550  49.621  1.00  0.00     0.000 A 
HETATM   24  C17 UNL     1      26.531   2.732  50.714  1.00  0.00     0.001 A 
HETATM   25  C18 UNL     1      25.416   2.273  51.388  1.00  0.00     0.009 A 
ENDBRANCH  19  20
ENDBRANCH  17  19
ENDBRANCH   6  17
TORSDOF 4
ENDMDL
MODEL 2
REMARK VINA RESULT:      -9.0      2.165      3.296
REMARK  4 active torsions:
REMARK  status: ('A' for Active; 'I' for Inactive)
REMARK    1  A    between atoms: C7_7  and  C8_8 
REMARK    2  A    between atoms: C11_13  and  N3_14 
REMARK    3  A    between atoms: N3_14  and  C12_15 
REMARK    4  A    between atoms: C12_15  and  C13_16 
ROOT
HETATM    1  C8  UNL     1      23.845   2.663  52.837  1.00  0.00     0.029 A 
HETATM    2  C9  UNL     1      22.977   1.582  53.044  1.00  0.00     0.133 A 
HETATM    3  N1  UNL     1      21.675   1.594  52.705  1.00  0.00    -0.253 NA
HETATM    4  C10 UNL     1      21.188   2.710  52.137  1.00  0.00     0.234 A 
HETATM    5  N2  UNL     1      21.982   3.771  51.920  1.00  0.00    -0.224 NA
HETATM    6  C11 UNL     1      23.284   3.778  52.252  1.00  0.00     0.137 A 
ENDROOT
BRANCH   1   7
HETATM    7  C7  UNL     1      25.232   2.644  53.216  1.00  0.00     0.042 C 
HETATM    8  C6  UNL     1      26.328   1.981  52.892  1.00  0.00     0.013 C 
HETATM    9  C5  UNL     1      26.346   0.903  51.864  1.00  0.00     0.084 C 
HETATM   10  N4  UNL     1      27.435   2.464  53.668  1.00  0.00    -0.368 N 
HETATM   11  C4  UNL     1      26.933  -0.356  52.327  1.00  0.00    -0.021 C 
HETATM   12  C3  UNL     1      27.838  -0.930  53.080  1.00  0.00    -0.003 C 
HETATM   13  C2  UNL     1      28.778  -0.158  53.901  1.00  0.00     0.013 C 
HETATM   14  C1  UNL     1      29.352   0.953  54.158  1.00  0.00    -0.009 C 
HETATM   15  C19 UNL     1      28.751   2.090  54.036  1.00  0.00     0.100 C 
HETATM   16  H17 UNL     1      27.200   3.387  54.101  1.00  0.00     0.165 HD
ENDBRANCH   1   7
BRANCH   6  17
HETATM   17  N3  UNL     1      23.920   5.002  51.993  1.00  0.00    -0.370 N 
HETATM   18  H9  UNL     1      24.342   5.439  52.837  1.00  0.00     0.161 HD
BRANCH  17  19
HETATM   19  C12 UNL     1      24.097   5.801  50.826  1.00  0.00     0.160 C 
BRANCH  19  20
HETATM   20  C13 UNL     1      25.326   5.447  50.060  1.00  0.00    -0.041 A 
HETATM   21  C14 UNL     1      25.914   4.213  49.888  1.00  0.00     0.009 A 
HETATM   22  C15 UNL     1      27.059   4.094  49.126  1.00  0.00     0.001 A 
HETATM   23  C16 UNL     1      27.675   5.161  48.506  1.00  0.00     0.000 A 
HETATM   24  C17 UNL     1      27.111   6.410  48.659  1.00  0.00     0.001 A 
HETATM   25  C18 UNL     1      25.965   6.517  49.423  1.00  0.00     0.009 A 
ENDBRANCH  19  20
ENDBRANCH  17  19
ENDBRANCH   6  17
TORSDOF 4
ENDMDL
MODEL 3
REMARK VINA RESULT:      -8.8      1.893      6.132
REMARK  4 active torsions:
REMARK  status: ('A' for Active; 'I' for Inactive)
REMARK    1  A    between atoms: C7_7  and  C8_8 
REMARK    2  A    between atoms: C11_13  and  N3_14 
REMARK    3  A    between atoms: N3_14  and  C12_15 
REMARK    4  A    between atoms: C12_15  and  C13_16 
ROOT
HETATM    1  C8  UNL     1      27.395   1.088  53.620  1.00  0.00     0.029 A 
HETATM    2  C9  UNL     1      28.733   1.508  53.611  1.00  0.00     0.133 A 
HETATM    3  N1  UNL     1      29.779   0.673  53.751  1.00  0.00    -0.253 NA
HETATM    4  C10 UNL     1      29.516  -0.636  53.911  1.00  0.00     0.234 A 
HETATM    5  N2  UNL     1      28.250  -1.083  53.927  1.00  0.00    -0.224 NA
HETATM    6  C11 UNL     1      27.194  -0.264  53.788  1.00  0.00     0.137 A 
ENDROOT
BRANCH   1   7
HETATM    7  C7  UNL     1      26.286   1.992  53.483  1.00  0.00     0.042 C 
HETATM    8  C6  UNL     1      25.529   2.475  52.514  1.00  0.00     0.013 C 
HETATM    9  C5  UNL     1      25.716   2.107  51.082  1.00  0.00     0.084 C 
HETATM   10  N4  UNL     1      24.548   3.368  53.063  1.00  0.00    -0.368 N 
HETATM   11  C4  UNL     1      25.847   3.254  50.182  1.00  0.00    -0.021 C 
HETATM   12  C3  UNL     1      25.483   4.484  49.915  1.00  0.00    -0.003 C 
HETATM   13  C2  UNL     1      24.538   5.221  50.761  1.00  0.00     0.013 C 
HETATM   14  C1  UNL     1      23.632   5.209  51.659  1.00  0.00    -0.009 C 
HETATM   15  C19 UNL     1      23.647   4.381  52.651  1.00  0.00     0.100 C 
HETATM   16  H17 UNL     1      24.471   3.231  54.097  1.00  0.00     0.165 HD
ENDBRANCH   1   7
BRANCH   6  17
HETATM   17  N3  UNL     1      25.959  -0.925  53.891  1.00  0.00    -0.370 N 
HETATM   18  H9  UNL     1      25.754  -1.551  53.087  1.00  0.00     0.161 HD
BRANCH  17  19
HETATM   19  C12 UNL     1      24.902  -0.911  54.847  1.00  0.00     0.160 C 
BRANCH  19  20
HETATM   20  C13 UNL     1      23.559  -0.727  54.227  1.00  0.00    -0.041 A 
HETATM   21  C14 UNL     1      23.232  -0.127  53.031  1.00  0.00     0.009 A 
HETATM   22  C15 UNL     1      21.913  -0.064  52.628  1.00  0.00     0.001 A 
HETATM   23  C16 UNL     1      20.866  -0.577  53.365  1.00  0.00     0.000 A 
HETATM   24  C17 UNL     1      21.161  -1.184  54.567  1.00  0.00     0.001 A 
HETATM   25  C18 UNL     1      22.484  -1.242  54.961  1.00  0.00     0.009 A 
ENDBRANCH  19  20
ENDBRANCH  17  19
ENDBRANCH   6  17
TORSDOF 4
ENDMDL
MODEL 4
REMARK VINA RESULT:      -8.5      1.970      5.148
REMARK  4 active torsions:
REMARK  status: ('A' for Active; 'I' for Inactive)
REMARK    1  A    between atoms: C7_7  and  C8_8 
REMARK    2  A    between atoms: C11_13  and  N3_14 
REMARK    3  A    between atoms: N3_14  and  C12_15 
REMARK    4  A    between atoms: C12_15  and  C13_16 
ROOT
HETATM    1  C8  UNL     1      25.770   2.870  50.935  1.00  0.00     0.029 A 
HETATM    2  C9  UNL     1      26.522   3.620  50.019  1.00  0.00     0.133 A 
HETATM    3  N1  UNL     1      26.159   4.837  49.575  1.00  0.00    -0.253 NA
HETATM    4  C10 UNL     1      25.009   5.355  50.040  1.00  0.00     0.234 A 
HETATM    5  N2  UNL     1      24.256   4.672  50.918  1.00  0.00    -0.224 NA
HETATM    6  C11 UNL     1      24.602   3.455  51.372  1.00  0.00     0.137 A 
ENDROOT
BRANCH   1   7
HETATM    7  C7  UNL     1      26.161   1.564  51.391  1.00  0.00     0.042 C 
HETATM    8  C6  UNL     1      26.807   1.036  52.416  1.00  0.00     0.013 C 
HETATM    9  C5  UNL     1      27.377   1.857  53.522  1.00  0.00     0.084 C 
HETATM   10  N4  UNL     1      26.856  -0.392  52.277  1.00  0.00    -0.368 N 
HETATM   11  C4  UNL     1      28.792   1.598  53.791  1.00  0.00    -0.021 C 
HETATM   12  C3  UNL     1      29.755   0.710  53.828  1.00  0.00    -0.003 C 
HETATM   13  C2  UNL     1      29.533  -0.700  53.488  1.00  0.00     0.013 C 
HETATM   14  C1  UNL     1      28.723  -1.670  53.312  1.00  0.00    -0.009 C 
HETATM   15  C19 UNL     1      27.551  -1.512  52.793  1.00  0.00     0.100 C 
HETATM   16  H17 UNL     1      26.156  -0.711  51.567  1.00  0.00     0.165 HD
ENDBRANCH   1   7
BRANCH   6  17
HETATM   17  N3  UNL     1      23.650   2.892  52.237  1.00  0.00    -0.370 N 
HETATM   18  H9  UNL     1      23.897   2.984  53.243  1.00  0.00     0.161 HD
BRANCH  17  19
HETATM   19  C12 UNL     1      22.423   2.194  52.044  1.00  0.00     0.160 C 
BRANCH  19  20
HETATM   20  C13 UNL     1      22.232   1.074  53.007  1.00  0.00    -0.041 A 
HETATM   21  C14 UNL     1      21.083   0.673  53.653  1.00  0.00     0.009 A 
HETATM   22  C15 UNL     1      21.114  -0.407  54.512  1.00  0.00     0.001 A 
HETATM   23  C16 UNL     1      22.255  -1.135  54.778  1.00  0.00     0.000 A 
HETATM   24  C17 UNL     1      23.422  -0.759  54.148  1.00  0.00     0.001 A 
HETATM   25  C18 UNL     1      23.379   0.323  53.290  1.00  0.00     0.009 A 
ENDBRANCH  19  20
ENDBRANCH  17  19
ENDBRANCH   6  17
TORSDOF 4
ENDMDL
MODEL 5
REMARK VINA RESULT:      -8.2      1.347      2.407
REMARK  4 active torsions:
REMARK  status: ('A' for Active; 'I' for Inactive)
REMARK    1  A    between atoms: C7_7  and  C8_8 
REMARK    2  A    between atoms: C11_13  and  N3_14 
REMARK    3  A    between atoms: N3_14  and  C12_15 
REMARK    4  A    between atoms: C12_15  and  C13_16 
ROOT
HETATM    1  C8  UNL     1      24.064  -0.091  53.044  1.00  0.00     0.029 A 
HETATM    2  C9  UNL     1      22.973  -0.411  53.865  1.00  0.00     0.133 A 
HETATM    3  N1  UNL     1      21.816   0.276  53.870  1.00  0.00    -0.253 NA
HETATM    4  C10 UNL     1      21.710   1.328  53.040  1.00  0.00     0.234 A 
HETATM    5  N2  UNL     1      22.730   1.672  52.236  1.00  0.00    -0.224 NA
HETATM    6  C11 UNL     1      23.893   0.998  52.217  1.00  0.00     0.137 A 
ENDROOT
BRANCH   1   7
HETATM    7  C7  UNL     1      25.301  -0.824  53.057  1.00  0.00     0.042 C 
HETATM    8  C6  UNL     1      26.459  -0.782  53.692  1.00  0.00     0.013 C 
HETATM    9  C5  UNL     1      26.778   0.243  54.725  1.00  0.00     0.084 C 
HETATM   10  N4  UNL     1      27.305  -1.846  53.230  1.00  0.00    -0.368 N 
HETATM   11  C4  UNL     1      28.028   0.965  54.487  1.00  0.00    -0.021 C 
HETATM   12  C3  UNL     1      29.255   0.908  54.031  1.00  0.00    -0.003 C 
HETATM   13  C2  UNL     1      29.825  -0.321  53.468  1.00  0.00     0.013 C 
HETATM   14  C1  UNL     1      29.779  -1.590  53.336  1.00  0.00    -0.009 C 
HETATM   15  C19 UNL     1      28.666  -2.239  53.247  1.00  0.00     0.100 C 
HETATM   16  H17 UNL     1      26.741  -2.560  52.714  1.00  0.00     0.165 HD
ENDBRANCH   1   7
BRANCH   6  17
HETATM   17  N3  UNL     1      24.846   1.554  51.349  1.00  0.00    -0.370 N 
HETATM   18  H9  UNL     1      24.785   1.191  50.377  1.00  0.00     0.161 HD
BRANCH  17  19
HETATM   19  C12 UNL     1      25.904   2.496  51.509  1.00  0.00     0.160 C 
BRANCH  19  20
HETATM   20  C13 UNL     1      25.792   3.659  50.584  1.00  0.00    -0.041 A 
HETATM   21  C14 UNL     1      24.766   4.570  50.458  1.00  0.00     0.009 A 
HETATM   22  C15 UNL     1      24.859   5.592  49.535  1.00  0.00     0.001 A 
HETATM   23  C16 UNL     1      25.944   5.769  48.702  1.00  0.00     0.000 A 
HETATM   24  C17 UNL     1      26.988   4.874  48.804  1.00  0.00     0.001 A 
HETATM   25  C18 UNL     1      26.884   3.855  49.731  1.00  0.00     0.009 A 
ENDBRANCH  19  20
ENDBRANCH  17  19
ENDBRANCH   6  17
TORSDOF 4
ENDMDL
MODEL 6
REMARK VINA RESULT:      -8.1      2.256      6.013
REMARK  4 active torsions:
REMARK  status: ('A' for Active; 'I' for Inactive)
REMARK    1  A    between atoms: C7_7  and  C8_8 
REMARK    2  A    between atoms: C11_13  and  N3_14 
REMARK    3  A    between atoms: N3_14  and  C12_15 
REMARK    4  A    between atoms: C12_15  and  C13_16 
ROOT
HETATM    1  C8  UNL     1      23.212   3.457  51.950  1.00  0.00     0.029 A 
HETATM    2  C9  UNL     1      22.250   4.439  52.225  1.00  0.00     0.133 A 
HETATM    3  N1  UNL     1      22.189   5.623  51.588  1.00  0.00    -0.253 NA
HETATM    4  C10 UNL     1      23.107   5.870  50.638  1.00  0.00     0.234 A 
HETATM    5  N2  UNL     1      24.048   4.958  50.342  1.00  0.00    -0.224 NA
HETATM    6  C11 UNL     1      24.125   3.771  50.967  1.00  0.00     0.137 A 
ENDROOT
BRANCH   1   7
HETATM    7  C7  UNL     1      23.276   2.201  52.647  1.00  0.00     0.042 C 
HETATM    8  C6  UNL     1      22.674   1.026  52.607  1.00  0.00     0.013 C 
HETATM    9  C5  UNL     1      21.588   0.707  51.638  1.00  0.00     0.084 C 
HETATM   10  N4  UNL     1      23.227   0.161  53.611  1.00  0.00    -0.368 N 
HETATM   11  C4  UNL     1      20.370   0.180  52.256  1.00  0.00    -0.021 C 
HETATM   12  C3  UNL     1      19.856  -0.549  53.215  1.00  0.00    -0.003 C 
HETATM   13  C2  UNL     1      20.689  -1.225  54.217  1.00  0.00     0.013 C 
HETATM   14  C1  UNL     1      21.833  -1.661  54.576  1.00  0.00    -0.009 C 
HETATM   15  C19 UNL     1      22.933  -1.047  54.289  1.00  0.00     0.100 C 
HETATM   16  H17 UNL     1      24.139   0.542  53.955  1.00  0.00     0.165 HD
ENDBRANCH   1   7
BRANCH   6  17
HETATM   17  N3  UNL     1      25.214   2.990  50.549  1.00  0.00    -0.370 N 
HETATM   18  H9  UNL     1      24.968   2.289  49.822  1.00  0.00     0.161 HD
BRANCH  17  19
HETATM   19  C12 UNL     1      26.589   2.924  50.918  1.00  0.00     0.160 C 
BRANCH  19  20
HETATM   20  C13 UNL     1      26.892   1.789  51.835  1.00  0.00    -0.041 A 
HETATM   21  C14 UNL     1      26.448   0.486  51.776  1.00  0.00     0.009 A 
HETATM   22  C15 UNL     1      26.855  -0.425  52.729  1.00  0.00     0.001 A 
HETATM   23  C16 UNL     1      27.703  -0.111  53.771  1.00  0.00     0.000 A 
HETATM   24  C17 UNL     1      28.165   1.185  53.857  1.00  0.00     0.001 A 
HETATM   25  C18 UNL     1      27.751   2.089  52.899  1.00  0.00     0.009 A 
ENDBRANCH  19  20
ENDBRANCH  17  19
ENDBRANCH   6  17
TORSDOF 4
ENDMDL
MODEL 7
REMARK VINA RESULT:      -8.1      1.803      5.514
REMARK  4 active torsions:
REMARK  status: ('A' for Active; 'I' for Inactive)
REMARK    1  A    between atoms: C7_7  and  C8_8 
REMARK    2  A    between atoms: C11_13  and  N3_14 
REMARK    3  A    between atoms: N3_14  and  C12_15 
REMARK    4  A    between atoms: C12_15  and  C13_16 
ROOT
HETATM    1  C8  UNL     1      22.751   0.589  52.796  1.00  0.00     0.029 A 
HETATM    2  C9  UNL     1      21.353   0.644  52.888  1.00  0.00     0.133 A 
HETATM    3  N1  UNL     1      20.634  -0.072  53.771  1.00  0.00    -0.253 NA
HETATM    4  C10 UNL     1      21.303  -0.884  54.609  1.00  0.00     0.234 A 
HETATM    5  N2  UNL     1      22.642  -0.969  54.556  1.00  0.00    -0.224 NA
HETATM    6  C11 UNL     1      23.376  -0.263  53.681  1.00  0.00     0.137 A 
ENDROOT
BRANCH   1   7
HETATM    7  C7  UNL     1      23.508   1.349  51.838  1.00  0.00     0.042 C 
HETATM    8  C6  UNL     1      23.986   2.574  51.716  1.00  0.00     0.013 C 
HETATM    9  C5  UNL     1      23.794   3.624  52.756  1.00  0.00     0.084 C 
HETATM   10  N4  UNL     1      24.686   2.701  50.469  1.00  0.00    -0.368 N 
HETATM   11  C4  UNL     1      23.232   4.876  52.246  1.00  0.00    -0.021 C 
HETATM   12  C3  UNL     1      23.170   5.721  51.247  1.00  0.00    -0.003 C 
HETATM   13  C2  UNL     1      23.912   5.513  49.998  1.00  0.00     0.013 C 
HETATM   14  C1  UNL     1      24.854   4.927  49.368  1.00  0.00    -0.009 C 
HETATM   15  C19 UNL     1      25.186   3.701  49.599  1.00  0.00     0.100 C 
HETATM   16  H17 UNL     1      24.895   1.755  50.073  1.00  0.00     0.165 HD
ENDBRANCH   1   7
BRANCH   6  17
HETATM   17  N3  UNL     1      24.751  -0.540  53.753  1.00  0.00    -0.370 N 
HETATM   18  H9  UNL     1      25.164  -0.838  52.847  1.00  0.00     0.161 HD
BRANCH  17  19
HETATM   19  C12 UNL     1      25.711  -0.529  54.806  1.00  0.00     0.160 C 
BRANCH  19  20
HETATM   20  C13 UNL     1      26.900   0.317  54.501  1.00  0.00    -0.041 A 
HETATM   21  C14 UNL     1      28.222   0.100  54.821  1.00  0.00     0.009 A 
HETATM   22  C15 UNL     1      29.184   1.012  54.437  1.00  0.00     0.001 A 
HETATM   23  C16 UNL     1      28.903   2.163  53.731  1.00  0.00     0.000 A 
HETATM   24  C17 UNL     1      27.589   2.409  53.395  1.00  0.00     0.001 A 
HETATM   25  C18 UNL     1      26.634   1.490  53.785  1.00  0.00     0.009 A 
ENDBRANCH  19  20
ENDBRANCH  17  19
ENDBRANCH   6  17
TORSDOF 4
ENDMDL
MODEL 8
REMARK VINA RESULT:      -8.1      2.019      6.198
REMARK  4 active torsions:
REMARK  status: ('A' for Active; 'I' for Inactive)
REMARK    1  A    between atoms: C7_7  and  C8_8 
REMARK    2  A    between atoms: C11_13  and  N3_14 
REMARK    3  A    between atoms: N3_14  and  C12_15 
REMARK    4  A    between atoms: C12_15  and  C13_16 
ROOT
HETATM    1  C8  UNL     1      26.383   1.297  52.784  1.00  0.00     0.029 A 
HETATM    2  C9  UNL     1      27.632   1.739  53.240  1.00  0.00     0.133 A 
HETATM    3  N1  UNL     1      28.285   1.189  54.279  1.00  0.00    -0.253 NA
HETATM    4  C10 UNL     1      27.698   0.157  54.911  1.00  0.00     0.234 A 
HETATM    5  N2  UNL     1      26.501  -0.300  54.509  1.00  0.00    -0.224 NA
HETATM    6  C11 UNL     1      25.834   0.238  53.474  1.00  0.00     0.137 A 
ENDROOT
BRANCH   1   7
HETATM    7  C7  UNL     1      25.688   1.902  51.680  1.00  0.00     0.042 C 
HETATM    8  C6  UNL     1      24.797   2.859  51.489  1.00  0.00     0.013 C 
HETATM    9  C5  UNL     1      24.217   3.658  52.604  1.00  0.00     0.084 C 
HETATM   10  N4  UNL     1      24.509   2.981  50.088  1.00  0.00    -0.368 N 
HETATM   11  C4  UNL     1      22.753   3.687  52.622  1.00  0.00    -0.021 C 
HETATM   12  C3  UNL     1      21.650   3.698  51.916  1.00  0.00    -0.003 C 
HETATM   13  C2  UNL     1      21.659   3.676  50.449  1.00  0.00     0.013 C 
HETATM   14  C1  UNL     1      22.293   3.848  49.355  1.00  0.00    -0.009 C 
HETATM   15  C19 UNL     1      23.543   3.550  49.222  1.00  0.00     0.100 C 
HETATM   16  H17 UNL     1      25.243   2.496  49.522  1.00  0.00     0.165 HD
ENDBRANCH   1   7
BRANCH   6  17
HETATM   17  N3  UNL     1      24.578  -0.349  53.254  1.00  0.00    -0.370 N 
HETATM   18  H9  UNL     1      24.445  -0.698  52.283  1.00  0.00     0.161 HD
BRANCH  17  19
HETATM   19  C12 UNL     1      23.423  -0.555  54.064  1.00  0.00     0.160 C 
BRANCH  19  20
HETATM   20  C13 UNL     1      22.151  -0.244  53.353  1.00  0.00    -0.041 A 
HETATM   21  C14 UNL     1      20.877  -0.133  53.867  1.00  0.00     0.009 A 
HETATM   22  C15 UNL     1      19.821   0.173  53.033  1.00  0.00     0.001 A 
HETATM   23  C16 UNL     1      19.957   0.381  51.676  1.00  0.00     0.000 A 
HETATM   24  C17 UNL     1      21.219   0.277  51.132  1.00  0.00     0.001 A 
HETATM   25  C18 UNL     1      22.269  -0.029  51.975  1.00  0.00     0.009 A 
ENDBRANCH  19  20
ENDBRANCH  17  19
ENDBRANCH   6  17
TORSDOF 4
ENDMDL
MODEL 9
REMARK VINA RESULT:      -8.0      1.810      5.734
REMARK  4 active torsions:
REMARK  status: ('A' for Active; 'I' for Inactive)
REMARK    1  A    between atoms: C7_7  and  C8_8 
REMARK    2  A    between atoms: C11_13  and  N3_14 
REMARK    3  A    between atoms: N3_14  and  C12_15 
REMARK    4  A    between atoms: C12_15  and  C13_16 
ROOT
HETATM    1  C8  UNL     1      23.076   1.769  52.630  1.00  0.00     0.029 A 
HETATM    2  C9  UNL     1      21.871   1.077  52.445  1.00  0.00     0.133 A 
HETATM    3  N1  UNL     1      21.688  -0.210  52.792  1.00  0.00    -0.253 NA
HETATM    4  C10 UNL     1      22.725  -0.862  53.344  1.00  0.00     0.234 A 
HETATM    5  N2  UNL     1      23.900  -0.240  53.539  1.00  0.00    -0.224 NA
HETATM    6  C11 UNL     1      24.101   1.044  53.199  1.00  0.00     0.137 A 
ENDROOT
BRANCH   1   7
HETATM    7  C7  UNL     1      23.264   3.141  52.243  1.00  0.00     0.042 C 
HETATM    8  C6  UNL     1      23.656   3.813  51.175  1.00  0.00     0.013 C 
HETATM    9  C5  UNL     1      24.066   3.149  49.907  1.00  0.00     0.084 C 
HETATM   10  N4  UNL     1      23.614   5.222  51.447  1.00  0.00    -0.368 N 
HETATM   11  C4  UNL     1      25.377   3.568  49.409  1.00  0.00    -0.021 C 
HETATM   12  C3  UNL     1      26.239   4.546  49.284  1.00  0.00    -0.003 C 
HETATM   13  C2  UNL     1      25.974   5.894  49.800  1.00  0.00     0.013 C 
HETATM   14  C1  UNL     1      25.137   6.762  50.218  1.00  0.00    -0.009 C 
HETATM   15  C19 UNL     1      24.104   6.446  50.926  1.00  0.00     0.100 C 
HETATM   16  H17 UNL     1      23.041   5.411  52.301  1.00  0.00     0.165 HD
ENDBRANCH   1   7
BRANCH   6  17
HETATM   17  N3  UNL     1      25.413   1.485  53.435  1.00  0.00    -0.370 N 
HETATM   18  H9  UNL     1      25.590   1.756  54.423  1.00  0.00     0.161 HD
BRANCH  17  19
HETATM   19  C12 UNL     1      26.562   1.668  52.611  1.00  0.00     0.160 C 
BRANCH  19  20
HETATM   20  C13 UNL     1      27.676   0.738  52.951  1.00  0.00    -0.041 A 
HETATM   21  C14 UNL     1      28.937   1.033  53.421  1.00  0.00     0.009 A 
HETATM   22  C15 UNL     1      29.831   0.015  53.683  1.00  0.00     0.001 A 
HETATM   23  C16 UNL     1      29.540  -1.321  53.501  1.00  0.00     0.000 A 
HETATM   24  C17 UNL     1      28.285  -1.649  53.032  1.00  0.00     0.001 A 
HETATM   25  C18 UNL     1      27.398  -0.622  52.772  1.00  0.00     0.009 A 
ENDBRANCH  19  20
ENDBRANCH  17  19
ENDBRANCH   6  17
TORSDOF 4
ENDMDL
