MODEL 1
REMARK VINA RESULT:      -6.7      0.000      0.000
REMARK  7 active torsions:
REMARK  status: ('A' for Active; 'I' for Inactive)
REMARK    1  A    between atoms: C2_2  and  C3_3 
REMARK    2  A    between atoms: C3_3  and  C14_19 
REMARK    3  A    between atoms: C4_4  and  C5_5 
REMARK    4  A    between atoms: C7_7  and  N1_8 
REMARK    5  A    between atoms: N1_8  and  C8_9 
REMARK    6  A    between atoms: C8_9  and  C10_11 
REMARK    7  A    between atoms: C11_12  and  C12_14 
ROOT
HETATM    1  C5  UNL     1      25.432  -0.161  52.713  1.00  0.00     0.062 A 
HETATM    2  C6  UNL     1      25.405   1.048  52.003  1.00  0.00     0.081 A 
HETATM    3  C7  UNL     1      24.287   1.901  51.962  1.00  0.00     0.127 A 
HETATM    4  N2  UNL     1      23.173   1.551  52.634  1.00  0.00    -0.225 NA
HETATM    5  C13 UNL     1      23.194   0.405  53.306  1.00  0.00     0.235 A 
HETATM    6  N3  UNL     1      24.271  -0.378  53.324  1.00  0.00    -0.242 NA
ENDROOT
BRANCH   3   7
HETATM    7  N1  UNL     1      24.400   3.113  51.203  1.00  0.00    -0.367 N 
HETATM    8  H6  UNL     1      24.608   3.688  52.071  1.00  0.00     0.161 HD
BRANCH   7   9
HETATM    9  C8  UNL     1      24.369   3.874  49.989  1.00  0.00     0.103 C 
HETATM   10  C9  UNL     1      23.517   3.136  48.966  1.00  0.00     0.036 C 
BRANCH   9  11
HETATM   11  C10 UNL     1      25.765   4.034  49.438  1.00  0.00     0.019 C 
HETATM   12  C11 UNL     1      26.486   5.108  49.117  1.00  0.00     0.038 C 
HETATM   13 CL1  UNL     1      28.139   5.010  48.469  1.00  0.00    -0.087 Cl
BRANCH  12  14
HETATM   14  C12 UNL     1      26.254   6.577  49.199  1.00  0.00     0.273 C 
HETATM   15  F1  UNL     1      25.804   6.853  50.494  1.00  0.00    -0.250 F 
ENDBRANCH  12  14
ENDBRANCH   9  11
ENDBRANCH   7   9
ENDBRANCH   3   7
BRANCH   1  16
HETATM   16  C4  UNL     1      26.714  -0.834  52.598  1.00  0.00     0.041 C 
HETATM   17  C3  UNL     1      27.703  -0.611  53.427  1.00  0.00    -0.031 C 
BRANCH  17  18
HETATM   18  C2  UNL     1      28.991  -1.315  53.269  1.00  0.00    -0.017 C 
HETATM   19  C1  UNL     1      30.139  -0.853  53.735  1.00  0.00     0.031 C 
ENDBRANCH  17  18
BRANCH  17  20
HETATM   20  C14 UNL     1      27.641   0.317  54.596  1.00  0.00     0.260 C 
HETATM   21  F2  UNL     1      26.721  -0.083  55.542  1.00  0.00    -0.251 F 
ENDBRANCH  17  20
ENDBRANCH   1  16
TORSDOF 7
ENDMDL
MODEL 2
REMARK VINA RESULT:      -6.7      3.576      5.051
REMARK  7 active torsions:
REMARK  status: ('A' for Active; 'I' for Inactive)
REMARK    1  A    between atoms: C2_2  and  C3_3 
REMARK    2  A    between atoms: C3_3  and  C14_19 
REMARK    3  A    between atoms: C4_4  and  C5_5 
REMARK    4  A    between atoms: C7_7  and  N1_8 
REMARK    5  A    between atoms: N1_8  and  C8_9 
REMARK    6  A    between atoms: C8_9  and  C10_11 
REMARK    7  A    between atoms: C11_12  and  C12_14 
ROOT
HETATM    1  C5  UNL     1      24.592  -0.474  53.688  1.00  0.00     0.062 A 
HETATM    2  C6  UNL     1      23.255  -0.391  53.272  1.00  0.00     0.081 A 
HETATM    3  C7  UNL     1      22.167  -0.809  54.061  1.00  0.00     0.127 A 
HETATM    4  N2  UNL     1      22.406  -1.320  55.285  1.00  0.00    -0.225 NA
HETATM    5  C13 UNL     1      23.672  -1.402  55.682  1.00  0.00     0.235 A 
HETATM    6  N3  UNL     1      24.677  -0.995  54.908  1.00  0.00    -0.242 NA
ENDROOT
BRANCH   3   7
HETATM    7  N1  UNL     1      20.850  -0.659  53.515  1.00  0.00    -0.367 N 
HETATM    8  H6  UNL     1      20.550  -1.617  53.862  1.00  0.00     0.161 HD
BRANCH   7   9
HETATM    9  C8  UNL     1      19.831   0.051  52.800  1.00  0.00     0.103 C 
HETATM   10  C9  UNL     1      18.527  -0.729  52.896  1.00  0.00     0.036 C 
BRANCH   9  11
HETATM   11  C10 UNL     1      20.213   0.189  51.347  1.00  0.00     0.019 C 
HETATM   12  C11 UNL     1      21.040   1.018  50.711  1.00  0.00     0.038 C 
HETATM   13 CL1  UNL     1      21.305   0.966  48.953  1.00  0.00    -0.087 Cl
BRANCH  12  14
HETATM   14  C12 UNL     1      21.954   2.110  51.147  1.00  0.00     0.273 C 
HETATM   15  F1  UNL     1      23.237   1.780  50.696  1.00  0.00    -0.250 F 
ENDBRANCH  12  14
ENDBRANCH   9  11
ENDBRANCH   7   9
ENDBRANCH   3   7
BRANCH   1  16
HETATM   16  C4  UNL     1      25.509   0.040  52.686  1.00  0.00     0.041 C 
HETATM   17  C3  UNL     1      25.914   1.286  52.676  1.00  0.00    -0.031 C 
BRANCH  17  18
HETATM   18  C2  UNL     1      26.844   1.765  51.635  1.00  0.00    -0.017 C 
HETATM   19  C1  UNL     1      26.558   2.743  50.792  1.00  0.00     0.031 C 
ENDBRANCH  17  18
BRANCH  17  20
HETATM   20  C14 UNL     1      25.527   2.314  53.687  1.00  0.00     0.260 C 
HETATM   21  F2  UNL     1      24.294   2.875  53.429  1.00  0.00    -0.251 F 
ENDBRANCH  17  20
ENDBRANCH   1  16
TORSDOF 7
ENDMDL
MODEL 3
REMARK VINA RESULT:      -6.7      2.716      3.258
REMARK  7 active torsions:
REMARK  status: ('A' for Active; 'I' for Inactive)
REMARK    1  A    between atoms: C2_2  and  C3_3 
REMARK    2  A    between atoms: C3_3  and  C14_19 
REMARK    3  A    between atoms: C4_4  and  C5_5 
REMARK    4  A    between atoms: C7_7  and  N1_8 
REMARK    5  A    between atoms: N1_8  and  C8_9 
REMARK    6  A    between atoms: C8_9  and  C10_11 
REMARK    7  A    between atoms: C11_12  and  C12_14 
ROOT
HETATM    1  C5  UNL     1      25.392  -0.461  54.624  1.00  0.00     0.062 A 
HETATM    2  C6  UNL     1      24.522  -0.030  53.611  1.00  0.00     0.081 A 
HETATM    3  C7  UNL     1      23.153  -0.350  53.573  1.00  0.00     0.127 A 
HETATM    4  N2  UNL     1      22.632  -1.112  54.555  1.00  0.00    -0.225 NA
HETATM    5  C13 UNL     1      23.453  -1.524  55.516  1.00  0.00     0.235 A 
HETATM    6  N3  UNL     1      24.745  -1.201  55.520  1.00  0.00    -0.242 NA
ENDROOT
BRANCH   3   7
HETATM    7  N1  UNL     1      22.377   0.166  52.482  1.00  0.00    -0.367 N 
HETATM    8  H6  UNL     1      21.984  -0.794  52.252  1.00  0.00     0.161 HD
BRANCH   7   9
HETATM    9  C8  UNL     1      21.913   1.212  51.621  1.00  0.00     0.103 C 
HETATM   10  C9  UNL     1      21.039   0.602  50.533  1.00  0.00     0.036 C 
BRANCH   9  11
HETATM   11  C10 UNL     1      23.082   1.913  50.973  1.00  0.00     0.019 C 
HETATM   12  C11 UNL     1      23.791   2.985  51.324  1.00  0.00     0.038 C 
HETATM   13 CL1  UNL     1      25.143   3.614  50.354  1.00  0.00    -0.087 Cl
BRANCH  12  14
HETATM   14  C12 UNL     1      23.771   3.907  52.493  1.00  0.00     0.273 C 
HETATM   15  F1  UNL     1      24.380   3.237  53.559  1.00  0.00    -0.250 F 
ENDBRANCH  12  14
ENDBRANCH   9  11
ENDBRANCH   7   9
ENDBRANCH   3   7
BRANCH   1  16
HETATM   16  C4  UNL     1      26.746   0.025  54.426  1.00  0.00     0.041 C 
HETATM   17  C3  UNL     1      27.614  -0.597  53.667  1.00  0.00    -0.031 C 
BRANCH  17  18
HETATM   18  C2  UNL     1      28.981  -0.067  53.499  1.00  0.00    -0.017 C 
HETATM   19  C1  UNL     1      30.069  -0.813  53.583  1.00  0.00     0.031 C 
ENDBRANCH  17  18
BRANCH  17  20
HETATM   20  C14 UNL     1      27.328  -1.841  52.892  1.00  0.00     0.260 C 
HETATM   21  F2  UNL     1      26.702  -1.585  51.690  1.00  0.00    -0.251 F 
ENDBRANCH  17  20
ENDBRANCH   1  16
TORSDOF 7
ENDMDL
MODEL 4
REMARK VINA RESULT:      -6.6      4.118      6.126
REMARK  7 active torsions:
REMARK  status: ('A' for Active; 'I' for Inactive)
REMARK    1  A    between atoms: C2_2  and  C3_3 
REMARK    2  A    between atoms: C3_3  and  C14_19 
REMARK    3  A    between atoms: C4_4  and  C5_5 
REMARK    4  A    between atoms: C7_7  and  N1_8 
REMARK    5  A    between atoms: N1_8  and  C8_9 
REMARK    6  A    between atoms: C8_9  and  C10_11 
REMARK    7  A    between atoms: C11_12  and  C12_14 
ROOT
HETATM    1  C5  UNL     1      25.467   0.679  52.173  1.00  0.00     0.062 A 
HETATM    2  C6  UNL     1      24.367   0.266  52.939  1.00  0.00     0.081 A 
HETATM    3  C7  UNL     1      23.177   1.008  53.055  1.00  0.00     0.127 A 
HETATM    4  N2  UNL     1      23.072   2.181  52.401  1.00  0.00    -0.225 NA
HETATM    5  C13 UNL     1      24.113   2.578  51.676  1.00  0.00     0.235 A 
HETATM    6  N3  UNL     1      25.224   1.849  51.588  1.00  0.00    -0.242 NA
ENDROOT
BRANCH   3   7
HETATM    7  N1  UNL     1      22.127   0.462  53.865  1.00  0.00    -0.367 N 
HETATM    8  H6  UNL     1      22.605   0.765  54.764  1.00  0.00     0.161 HD
BRANCH   7   9
HETATM    9  C8  UNL     1      20.886  -0.225  54.064  1.00  0.00     0.103 C 
HETATM   10  C9  UNL     1      21.173  -1.702  54.298  1.00  0.00     0.036 C 
BRANCH   9  11
HETATM   11  C10 UNL     1      20.009  -0.084  52.844  1.00  0.00     0.019 C 
HETATM   12  C11 UNL     1      18.773  -0.504  52.574  1.00  0.00     0.038 C 
HETATM   13 CL1  UNL     1      17.963  -0.199  51.020  1.00  0.00    -0.087 Cl
BRANCH  12  14
HETATM   14  C12 UNL     1      17.732  -1.235  53.347  1.00  0.00     0.273 C 
HETATM   15  F1  UNL     1      16.494  -0.683  52.999  1.00  0.00    -0.250 F 
ENDBRANCH  12  14
ENDBRANCH   9  11
ENDBRANCH   7   9
ENDBRANCH   3   7
BRANCH   1  16
HETATM   16  C4  UNL     1      26.556  -0.281  52.216  1.00  0.00     0.041 C 
HETATM   17  C3  UNL     1      27.478  -0.258  53.146  1.00  0.00    -0.031 C 
BRANCH  17  18
HETATM   18  C2  UNL     1      28.568  -1.253  53.148  1.00  0.00    -0.017 C 
HETATM   19  C1  UNL     1      29.750  -1.041  53.701  1.00  0.00     0.031 C 
ENDBRANCH  17  18
BRANCH  17  20
HETATM   20  C14 UNL     1      27.517   0.711  54.281  1.00  0.00     0.260 C 
HETATM   21  F2  UNL     1      26.918   0.217  55.422  1.00  0.00    -0.251 F 
ENDBRANCH  17  20
ENDBRANCH   1  16
TORSDOF 7
ENDMDL
MODEL 5
REMARK VINA RESULT:      -6.6      2.406      6.404
REMARK  7 active torsions:
REMARK  status: ('A' for Active; 'I' for Inactive)
REMARK    1  A    between atoms: C2_2  and  C3_3 
REMARK    2  A    between atoms: C3_3  and  C14_19 
REMARK    3  A    between atoms: C4_4  and  C5_5 
REMARK    4  A    between atoms: C7_7  and  N1_8 
REMARK    5  A    between atoms: N1_8  and  C8_9 
REMARK    6  A    between atoms: C8_9  and  C10_11 
REMARK    7  A    between atoms: C11_12  and  C12_14 
ROOT
HETATM    1  C5  UNL     1      25.741   3.486  49.770  1.00  0.00     0.062 A 
HETATM    2  C6  UNL     1      26.183   2.572  50.737  1.00  0.00     0.081 A 
HETATM    3  C7  UNL     1      25.317   1.789  51.523  1.00  0.00     0.127 A 
HETATM    4  N2  UNL     1      23.987   1.913  51.349  1.00  0.00    -0.225 NA
HETATM    5  C13 UNL     1      23.563   2.779  50.434  1.00  0.00     0.235 A 
HETATM    6  N3  UNL     1      24.412   3.504  49.708  1.00  0.00    -0.242 NA
ENDROOT
BRANCH   3   7
HETATM    7  N1  UNL     1      25.907   0.888  52.470  1.00  0.00    -0.367 N 
HETATM    8  H6  UNL     1      26.531   1.649  52.870  1.00  0.00     0.161 HD
BRANCH   7   9
HETATM    9  C8  UNL     1      26.075  -0.394  53.087  1.00  0.00     0.103 C 
HETATM   10  C9  UNL     1      25.552  -0.325  54.515  1.00  0.00     0.036 C 
BRANCH   9  11
HETATM   11  C10 UNL     1      27.537  -0.770  53.119  1.00  0.00     0.019 C 
HETATM   12  C11 UNL     1      28.606  -0.171  53.644  1.00  0.00     0.038 C 
HETATM   13 CL1  UNL     1      30.248  -0.844  53.529  1.00  0.00    -0.087 Cl
BRANCH  12  14
HETATM   14  C12 UNL     1      28.816   1.070  54.440  1.00  0.00     0.273 C 
HETATM   15  F1  UNL     1      28.611   2.153  53.579  1.00  0.00    -0.250 F 
ENDBRANCH  12  14
ENDBRANCH   9  11
ENDBRANCH   7   9
ENDBRANCH   3   7
BRANCH   1  16
HETATM   16  C4  UNL     1      26.844   4.148  49.096  1.00  0.00     0.041 C 
HETATM   17  C3  UNL     1      26.924   5.450  48.988  1.00  0.00    -0.031 C 
BRANCH  17  18
HETATM   18  C2  UNL     1      28.063   6.079  48.292  1.00  0.00    -0.017 C 
HETATM   19  C1  UNL     1      29.260   5.523  48.198  1.00  0.00     0.031 C 
ENDBRANCH  17  18
BRANCH  17  20
HETATM   20  C14 UNL     1      25.936   6.413  49.559  1.00  0.00     0.260 C 
HETATM   21  F2  UNL     1      26.530   7.556  50.051  1.00  0.00    -0.251 F 
ENDBRANCH  17  20
ENDBRANCH   1  16
TORSDOF 7
ENDMDL
MODEL 6
REMARK VINA RESULT:      -6.4      1.434      1.652
REMARK  7 active torsions:
REMARK  status: ('A' for Active; 'I' for Inactive)
REMARK    1  A    between atoms: C2_2  and  C3_3 
REMARK    2  A    between atoms: C3_3  and  C14_19 
REMARK    3  A    between atoms: C4_4  and  C5_5 
REMARK    4  A    between atoms: C7_7  and  N1_8 
REMARK    5  A    between atoms: N1_8  and  C8_9 
REMARK    6  A    between atoms: C8_9  and  C10_11 
REMARK    7  A    between atoms: C11_12  and  C12_14 
ROOT
HETATM    1  C5  UNL     1      24.889   0.326  53.619  1.00  0.00     0.062 A 
HETATM    2  C6  UNL     1      24.568   1.331  52.695  1.00  0.00     0.081 A 
HETATM    3  C7  UNL     1      23.309   1.446  52.076  1.00  0.00     0.127 A 
HETATM    4  N2  UNL     1      22.350   0.549  52.375  1.00  0.00    -0.225 NA
HETATM    5  C13 UNL     1      22.651  -0.407  53.249  1.00  0.00     0.235 A 
HETATM    6  N3  UNL     1      23.853  -0.484  53.817  1.00  0.00    -0.242 NA
ENDROOT
BRANCH   3   7
HETATM    7  N1  UNL     1      23.115   2.529  51.156  1.00  0.00    -0.367 N 
HETATM    8  H6  UNL     1      22.616   3.116  51.886  1.00  0.00     0.161 HD
BRANCH   7   9
HETATM    9  C8  UNL     1      23.230   3.160  49.875  1.00  0.00     0.103 C 
HETATM   10  C9  UNL     1      22.552   2.283  48.831  1.00  0.00     0.036 C 
BRANCH   9  11
HETATM   11  C10 UNL     1      24.683   3.327  49.504  1.00  0.00     0.019 C 
HETATM   12  C11 UNL     1      25.499   4.381  49.524  1.00  0.00     0.038 C 
HETATM   13 CL1  UNL     1      27.202   4.300  49.018  1.00  0.00    -0.087 Cl
BRANCH  12  14
HETATM   14  C12 UNL     1      25.352   5.801  49.949  1.00  0.00     0.273 C 
HETATM   15  F1  UNL     1      24.599   5.804  51.128  1.00  0.00    -0.250 F 
ENDBRANCH  12  14
ENDBRANCH   9  11
ENDBRANCH   7   9
ENDBRANCH   3   7
BRANCH   1  16
HETATM   16  C4  UNL     1      26.249   0.452  54.114  1.00  0.00     0.041 C 
HETATM   17  C3  UNL     1      27.230  -0.295  53.673  1.00  0.00    -0.031 C 
BRANCH  17  18
HETATM   18  C2  UNL     1      28.596  -0.135  54.208  1.00  0.00    -0.017 C 
HETATM   19  C1  UNL     1      29.644  -0.797  53.748  1.00  0.00     0.031 C 
ENDBRANCH  17  18
BRANCH  17  20
HETATM   20  C14 UNL     1      27.098  -1.329  52.604  1.00  0.00     0.260 C 
HETATM   21  F2  UNL     1      26.859  -0.781  51.361  1.00  0.00    -0.251 F 
ENDBRANCH  17  20
ENDBRANCH   1  16
TORSDOF 7
ENDMDL
MODEL 7
REMARK VINA RESULT:      -6.3      2.461      6.274
REMARK  7 active torsions:
REMARK  status: ('A' for Active; 'I' for Inactive)
REMARK    1  A    between atoms: C2_2  and  C3_3 
REMARK    2  A    between atoms: C3_3  and  C14_19 
REMARK    3  A    between atoms: C4_4  and  C5_5 
REMARK    4  A    between atoms: C7_7  and  N1_8 
REMARK    5  A    between atoms: N1_8  and  C8_9 
REMARK    6  A    between atoms: C8_9  and  C10_11 
REMARK    7  A    between atoms: C11_12  and  C12_14 
ROOT
HETATM    1  C5  UNL     1      24.914   3.607  50.680  1.00  0.00     0.062 A 
HETATM    2  C6  UNL     1      24.696   2.319  51.193  1.00  0.00     0.081 A 
HETATM    3  C7  UNL     1      23.549   1.955  51.922  1.00  0.00     0.127 A 
HETATM    4  N2  UNL     1      22.598   2.882  52.149  1.00  0.00    -0.225 NA
HETATM    5  C13 UNL     1      22.801   4.104  51.667  1.00  0.00     0.235 A 
HETATM    6  N3  UNL     1      23.899   4.413  50.980  1.00  0.00    -0.242 NA
ENDROOT
BRANCH   3   7
HETATM    7  N1  UNL     1      23.453   0.599  52.380  1.00  0.00    -0.367 N 
HETATM    8  H6  UNL     1      22.818   0.326  51.573  1.00  0.00     0.161 HD
BRANCH   7   9
HETATM    9  C8  UNL     1      23.740  -0.471  53.288  1.00  0.00     0.103 C 
HETATM   10  C9  UNL     1      22.584  -0.607  54.270  1.00  0.00     0.036 C 
BRANCH   9  11
HETATM   11  C10 UNL     1      25.004  -0.178  54.058  1.00  0.00     0.019 C 
HETATM   12  C11 UNL     1      26.290  -0.406  53.792  1.00  0.00     0.038 C 
HETATM   13 CL1  UNL     1      27.605   0.047  54.901  1.00  0.00    -0.087 Cl
BRANCH  12  14
HETATM   14  C12 UNL     1      27.024  -0.992  52.636  1.00  0.00     0.273 C 
HETATM   15  F1  UNL     1      26.790  -0.163  51.534  1.00  0.00    -0.250 F 
ENDBRANCH  12  14
ENDBRANCH   9  11
ENDBRANCH   7   9
ENDBRANCH   3   7
BRANCH   1  16
HETATM   16  C4  UNL     1      26.169   3.703  49.957  1.00  0.00     0.041 C 
HETATM   17  C3  UNL     1      26.526   4.782  49.305  1.00  0.00    -0.031 C 
BRANCH  17  18
HETATM   18  C2  UNL     1      27.810   4.833  48.580  1.00  0.00    -0.017 C 
HETATM   19  C1  UNL     1      28.418   5.959  48.248  1.00  0.00     0.031 C 
ENDBRANCH  17  18
BRANCH  17  20
HETATM   20  C14 UNL     1      25.727   6.043  49.247  1.00  0.00     0.260 C 
HETATM   21  F2  UNL     1      25.938   6.856  50.340  1.00  0.00    -0.251 F 
ENDBRANCH  17  20
ENDBRANCH   1  16
TORSDOF 7
ENDMDL
MODEL 8
REMARK VINA RESULT:      -6.1      3.140      7.017
REMARK  7 active torsions:
REMARK  status: ('A' for Active; 'I' for Inactive)
REMARK    1  A    between atoms: C2_2  and  C3_3 
REMARK    2  A    between atoms: C3_3  and  C14_19 
REMARK    3  A    between atoms: C4_4  and  C5_5 
REMARK    4  A    between atoms: C7_7  and  N1_8 
REMARK    5  A    between atoms: N1_8  and  C8_9 
REMARK    6  A    between atoms: C8_9  and  C10_11 
REMARK    7  A    between atoms: C11_12  and  C12_14 
ROOT
HETATM    1  C5  UNL     1      25.887   3.463  49.678  1.00  0.00     0.062 A 
HETATM    2  C6  UNL     1      26.184   2.712  50.824  1.00  0.00     0.081 A 
HETATM    3  C7  UNL     1      25.212   2.037  51.586  1.00  0.00     0.127 A 
HETATM    4  N2  UNL     1      23.921   2.108  51.208  1.00  0.00    -0.225 NA
HETATM    5  C13 UNL     1      23.635   2.821  50.123  1.00  0.00     0.235 A 
HETATM    6  N3  UNL     1      24.582   3.446  49.425  1.00  0.00    -0.242 NA
ENDROOT
BRANCH   3   7
HETATM    7  N1  UNL     1      25.658   1.298  52.732  1.00  0.00    -0.367 N 
HETATM    8  H6  UNL     1      25.366   2.072  53.398  1.00  0.00     0.161 HD
BRANCH   7   9
HETATM    9  C8  UNL     1      26.247   0.161  53.375  1.00  0.00     0.103 C 
HETATM   10  C9  UNL     1      26.624  -0.864  52.315  1.00  0.00     0.036 C 
BRANCH   9  11
HETATM   11  C10 UNL     1      25.263  -0.465  54.333  1.00  0.00     0.019 C 
HETATM   12  C11 UNL     1      23.950  -0.684  54.255  1.00  0.00     0.038 C 
HETATM   13 CL1  UNL     1      23.015  -1.452  55.559  1.00  0.00    -0.087 Cl
BRANCH  12  14
HETATM   14  C12 UNL     1      22.919  -0.454  53.205  1.00  0.00     0.273 C 
HETATM   15  F1  UNL     1      22.668  -1.688  52.595  1.00  0.00    -0.250 F 
ENDBRANCH  12  14
ENDBRANCH   9  11
ENDBRANCH   7   9
ENDBRANCH   3   7
BRANCH   1  16
HETATM   16  C4  UNL     1      27.078   4.039  49.077  1.00  0.00     0.041 C 
HETATM   17  C3  UNL     1      27.181   5.315  48.802  1.00  0.00    -0.031 C 
BRANCH  17  18
HETATM   18  C2  UNL     1      28.410   5.855  48.188  1.00  0.00    -0.017 C 
HETATM   19  C1  UNL     1      28.567   7.127  47.865  1.00  0.00     0.031 C 
ENDBRANCH  17  18
BRANCH  17  20
HETATM   20  C14 UNL     1      26.130   6.335  49.093  1.00  0.00     0.260 C 
HETATM   21  F2  UNL     1      25.245   6.499  48.048  1.00  0.00    -0.251 F 
ENDBRANCH  17  20
ENDBRANCH   1  16
TORSDOF 7
ENDMDL
MODEL 9
REMARK VINA RESULT:      -6.1      3.353      3.902
REMARK  7 active torsions:
REMARK  status: ('A' for Active; 'I' for Inactive)
REMARK    1  A    between atoms: C2_2  and  C3_3 
REMARK    2  A    between atoms: C3_3  and  C14_19 
REMARK    3  A    between atoms: C4_4  and  C5_5 
REMARK    4  A    between atoms: C7_7  and  N1_8 
REMARK    5  A    between atoms: N1_8  and  C8_9 
REMARK    6  A    between atoms: C8_9  and  C10_11 
REMARK    7  A    between atoms: C11_12  and  C12_14 
ROOT
HETATM    1  C5  UNL     1      23.742  -0.497  53.529  1.00  0.00     0.062 A 
HETATM    2  C6  UNL     1      22.974   0.517  52.938  1.00  0.00     0.081 A 
HETATM    3  C7  UNL     1      21.678   0.861  53.365  1.00  0.00     0.127 A 
HETATM    4  N2  UNL     1      21.130   0.189  54.396  1.00  0.00    -0.225 NA
HETATM    5  C13 UNL     1      21.854  -0.774  54.958  1.00  0.00     0.235 A 
HETATM    6  N3  UNL     1      23.079  -1.072  54.528  1.00  0.00    -0.242 NA
ENDROOT
BRANCH   3   7
HETATM    7  N1  UNL     1      21.009   1.926  52.675  1.00  0.00    -0.367 N 
HETATM    8  H6  UNL     1      20.093   1.389  52.647  1.00  0.00     0.161 HD
BRANCH   7   9
HETATM    9  C8  UNL     1      20.952   3.216  52.054  1.00  0.00     0.103 C 
HETATM   10  C9  UNL     1      19.514   3.502  51.644  1.00  0.00     0.036 C 
BRANCH   9  11
HETATM   11  C10 UNL     1      21.827   3.243  50.824  1.00  0.00     0.019 C 
HETATM   12  C11 UNL     1      21.868   2.475  49.736  1.00  0.00     0.038 C 
HETATM   13 CL1  UNL     1      23.028   2.730  48.412  1.00  0.00    -0.087 Cl
BRANCH  12  14
HETATM   14  C12 UNL     1      21.068   1.317  49.250  1.00  0.00     0.273 C 
HETATM   15  F1  UNL     1      21.488   0.194  49.971  1.00  0.00    -0.250 F 
ENDBRANCH  12  14
ENDBRANCH   9  11
ENDBRANCH   7   9
ENDBRANCH   3   7
BRANCH   1  16
HETATM   16  C4  UNL     1      25.046  -0.631  52.903  1.00  0.00     0.041 C 
HETATM   17  C3  UNL     1      26.141  -0.166  53.451  1.00  0.00    -0.031 C 
BRANCH  17  18
HETATM   18  C2  UNL     1      27.444  -0.323  52.776  1.00  0.00    -0.017 C 
HETATM   19  C1  UNL     1      28.463  -0.983  53.299  1.00  0.00     0.031 C 
ENDBRANCH  17  18
BRANCH  17  20
HETATM   20  C14 UNL     1      26.205   0.518  54.777  1.00  0.00     0.260 C 
HETATM   21  F2  UNL     1      26.018  -0.350  55.832  1.00  0.00    -0.251 F 
ENDBRANCH  17  20
ENDBRANCH   1  16
TORSDOF 7
ENDMDL
