MODEL 1
REMARK VINA RESULT:      -8.1      0.000      0.000
REMARK  5 active torsions:
REMARK  status: ('A' for Active; 'I' for Inactive)
REMARK    1  A    between atoms: C2_2  and  N1_3 
REMARK    2  A    between atoms: N1_3  and  C3_4 
REMARK    3  A    between atoms: C8_10  and  N2_11 
REMARK    4  A    between atoms: N2_11  and  C9_12 
REMARK    5  A    between atoms: C14_19  and  O1_20 
ROOT
HETATM    1  N2  UNL     1      25.604   0.787  53.818  1.00  0.00    -0.338 N 
HETATM    2  H10 UNL     1      25.367   0.684  54.845  1.00  0.00     0.167 HD
ENDROOT
BRANCH   1   3
HETATM    3  C8  UNL     1      24.511   0.960  52.940  1.00  0.00     0.061 A 
HETATM    4  C3  UNL     1      24.321   1.890  51.940  1.00  0.00     0.072 A 
HETATM    5  C4  UNL     1      23.198   1.922  51.172  1.00  0.00     0.039 A 
HETATM    6 BR1  UNL     1      23.031   3.248  49.814  1.00  0.00    -0.049 Br
HETATM    7  C5  UNL     1      22.248   0.962  51.452  1.00  0.00     0.021 A 
HETATM    8  C6  UNL     1      22.349   0.007  52.417  1.00  0.00     0.004 A 
HETATM    9  C7  UNL     1      23.518   0.004  53.188  1.00  0.00     0.032 A 
BRANCH   4  10
HETATM   10  N1  UNL     1      25.399   2.803  51.785  1.00  0.00    -0.387 N 
HETATM   11  H6  UNL     1      25.433   3.680  52.319  1.00  0.00     0.159 HD
BRANCH  10  12
HETATM   12  C2  UNL     1      26.503   2.577  50.887  1.00  0.00     0.115 C 
HETATM   13  C1  UNL     1      26.654   3.646  49.830  1.00  0.00     0.026 C 
ENDBRANCH  10  12
ENDBRANCH   4  10
ENDBRANCH   1   3
BRANCH   1  14
HETATM   14  C9  UNL     1      27.007   0.690  53.843  1.00  0.00     0.141 A 
HETATM   15  N3  UNL     1      27.699   1.776  54.301  1.00  0.00    -0.224 NA
HETATM   16  C10 UNL     1      29.050   1.758  54.356  1.00  0.00     0.235 A 
HETATM   17  N4  UNL     1      29.734   0.671  53.963  1.00  0.00    -0.241 NA
HETATM   18  C11 UNL     1      29.021  -0.378  53.519  1.00  0.00     0.071 A 
HETATM   19  C12 UNL     1      27.648  -0.458  53.423  1.00  0.00     0.037 A 
HETATM   20  C15 UNL     1      29.562  -1.524  53.096  1.00  0.00     0.041 A 
HETATM   21  C13 UNL     1      27.263  -1.619  52.951  1.00  0.00     0.026 A 
HETATM   22  C14 UNL     1      28.469  -2.461  52.678  1.00  0.00     0.167 A 
BRANCH  22  23
HETATM   23  O1  UNL     1      28.556  -3.563  53.505  1.00  0.00    -0.388 OA
HETATM   24  H14 UNL     1      28.465  -3.244  54.444  1.00  0.00     0.210 HD
ENDBRANCH  22  23
ENDBRANCH   1  14
TORSDOF 5
ENDMDL
MODEL 2
REMARK VINA RESULT:      -8.1      1.807      2.430
REMARK  5 active torsions:
REMARK  status: ('A' for Active; 'I' for Inactive)
REMARK    1  A    between atoms: C2_2  and  N1_3 
REMARK    2  A    between atoms: N1_3  and  C3_4 
REMARK    3  A    between atoms: C8_10  and  N2_11 
REMARK    4  A    between atoms: N2_11  and  C9_12 
REMARK    5  A    between atoms: C14_19  and  O1_20 
ROOT
HETATM    1  N2  UNL     1      25.178   0.339  53.038  1.00  0.00    -0.338 N 
HETATM    2  H10 UNL     1      25.183   0.768  52.070  1.00  0.00     0.167 HD
ENDROOT
BRANCH   1   3
HETATM    3  C8  UNL     1      23.923  -0.092  53.522  1.00  0.00     0.061 A 
HETATM    4  C3  UNL     1      22.659   0.122  53.014  1.00  0.00     0.072 A 
HETATM    5  C4  UNL     1      21.537  -0.370  53.605  1.00  0.00     0.039 A 
HETATM    6 BR1  UNL     1      19.835  -0.017  52.824  1.00  0.00    -0.049 Br
HETATM    7  C5  UNL     1      21.735  -1.105  54.755  1.00  0.00     0.021 A 
HETATM    8  C6  UNL     1      22.941  -1.368  55.329  1.00  0.00     0.004 A 
HETATM    9  C7  UNL     1      24.074  -0.846  54.693  1.00  0.00     0.032 A 
BRANCH   4  10
HETATM   10  N1  UNL     1      22.637   0.898  51.823  1.00  0.00    -0.387 N 
HETATM   11  H6  UNL     1      22.648   0.452  50.898  1.00  0.00     0.159 HD
BRANCH  10  12
HETATM   12  C2  UNL     1      22.600   2.339  51.819  1.00  0.00     0.115 C 
HETATM   13  C1  UNL     1      23.651   2.970  50.935  1.00  0.00     0.026 C 
ENDBRANCH  10  12
ENDBRANCH   4  10
ENDBRANCH   1   3
BRANCH   1  14
HETATM   14  C9  UNL     1      26.538   0.420  53.389  1.00  0.00     0.141 A 
HETATM   15  N3  UNL     1      26.966   1.583  53.963  1.00  0.00    -0.224 NA
HETATM   16  C10 UNL     1      28.258   1.736  54.329  1.00  0.00     0.235 A 
HETATM   17  N4  UNL     1      29.143   0.743  54.136  1.00  0.00    -0.241 NA
HETATM   18  C11 UNL     1      28.687  -0.387  53.570  1.00  0.00     0.071 A 
HETATM   19  C12 UNL     1      27.394  -0.639  53.162  1.00  0.00     0.037 A 
HETATM   20  C15 UNL     1      29.447  -1.456  53.316  1.00  0.00     0.041 A 
HETATM   21  C13 UNL     1      27.274  -1.839  52.647  1.00  0.00     0.026 A 
HETATM   22  C14 UNL     1      28.605  -2.522  52.684  1.00  0.00     0.167 A 
BRANCH  22  23
HETATM   23  O1  UNL     1      28.630  -3.605  53.540  1.00  0.00    -0.388 OA
HETATM   24  H14 UNL     1      28.496  -4.426  52.992  1.00  0.00     0.210 HD
ENDBRANCH  22  23
ENDBRANCH   1  14
TORSDOF 5
ENDMDL
MODEL 3
REMARK VINA RESULT:      -7.9      1.344      2.884
REMARK  5 active torsions:
REMARK  status: ('A' for Active; 'I' for Inactive)
REMARK    1  A    between atoms: C2_2  and  N1_3 
REMARK    2  A    between atoms: N1_3  and  C3_4 
REMARK    3  A    between atoms: C8_10  and  N2_11 
REMARK    4  A    between atoms: N2_11  and  C9_12 
REMARK    5  A    between atoms: C14_19  and  O1_20 
ROOT
HETATM    1  N2  UNL     1      25.655   0.858  53.445  1.00  0.00    -0.338 N 
HETATM    2  H10 UNL     1      25.272   0.532  54.377  1.00  0.00     0.167 HD
ENDROOT
BRANCH   1   3
HETATM    3  C8  UNL     1      24.700   1.250  52.481  1.00  0.00     0.061 A 
HETATM    4  C3  UNL     1      23.447   0.737  52.219  1.00  0.00     0.072 A 
HETATM    5  C4  UNL     1      22.640   1.235  51.245  1.00  0.00     0.039 A 
HETATM    6 BR1  UNL     1      20.924   0.456  50.961  1.00  0.00    -0.049 Br
HETATM    7  C5  UNL     1      23.149   2.295  50.523  1.00  0.00     0.021 A 
HETATM    8  C6  UNL     1      24.370   2.865  50.710  1.00  0.00     0.004 A 
HETATM    9  C7  UNL     1      25.174   2.327  51.722  1.00  0.00     0.032 A 
BRANCH   4  10
HETATM   10  N1  UNL     1      23.080  -0.351  53.057  1.00  0.00    -0.387 N 
HETATM   11  H6  UNL     1      23.377  -1.310  52.843  1.00  0.00     0.159 HD
BRANCH  10  12
HETATM   12  C2  UNL     1      22.279  -0.198  54.246  1.00  0.00     0.115 C 
HETATM   13  C1  UNL     1      21.285  -1.316  54.455  1.00  0.00     0.026 C 
ENDBRANCH  10  12
ENDBRANCH   4  10
ENDBRANCH   1   3
BRANCH   1  14
HETATM   14  C9  UNL     1      27.041   0.727  53.650  1.00  0.00     0.141 A 
HETATM   15  N3  UNL     1      27.693   1.794  54.199  1.00  0.00    -0.224 NA
HETATM   16  C10 UNL     1      29.025   1.743  54.428  1.00  0.00     0.235 A 
HETATM   17  N4  UNL     1      29.728   0.640  54.120  1.00  0.00    -0.241 NA
HETATM   18  C11 UNL     1      29.053  -0.390  53.582  1.00  0.00     0.071 A 
HETATM   19  C12 UNL     1      27.702  -0.436  53.310  1.00  0.00     0.037 A 
HETATM   20  C15 UNL     1      29.616  -1.548  53.225  1.00  0.00     0.041 A 
HETATM   21  C13 UNL     1      27.353  -1.586  52.785  1.00  0.00     0.026 A 
HETATM   22  C14 UNL     1      28.564  -2.456  52.664  1.00  0.00     0.167 A 
BRANCH  22  23
HETATM   23  O1  UNL     1      28.517  -3.563  53.490  1.00  0.00    -0.388 OA
HETATM   24  H14 UNL     1      28.616  -3.244  54.428  1.00  0.00     0.210 HD
ENDBRANCH  22  23
ENDBRANCH   1  14
TORSDOF 5
ENDMDL
MODEL 4
REMARK VINA RESULT:      -7.9      2.378      3.184
REMARK  5 active torsions:
REMARK  status: ('A' for Active; 'I' for Inactive)
REMARK    1  A    between atoms: C2_2  and  N1_3 
REMARK    2  A    between atoms: N1_3  and  C3_4 
REMARK    3  A    between atoms: C8_10  and  N2_11 
REMARK    4  A    between atoms: N2_11  and  C9_12 
REMARK    5  A    between atoms: C14_19  and  O1_20 
ROOT
HETATM    1  N2  UNL     1      25.193  -0.360  52.582  1.00  0.00    -0.338 N 
HETATM    2  H10 UNL     1      25.265  -0.260  51.530  1.00  0.00     0.167 HD
ENDROOT
BRANCH   1   3
HETATM    3  C8  UNL     1      23.910  -0.166  53.140  1.00  0.00     0.061 A 
HETATM    4  C3  UNL     1      22.882   0.656  52.727  1.00  0.00     0.072 A 
HETATM    5  C4  UNL     1      21.692   0.727  53.381  1.00  0.00     0.039 A 
HETATM    6 BR1  UNL     1      20.334   1.895  52.730  1.00  0.00    -0.049 Br
HETATM    7  C5  UNL     1      21.567  -0.078  54.495  1.00  0.00     0.021 A 
HETATM    8  C6  UNL     1      22.524  -0.918  54.975  1.00  0.00     0.004 A 
HETATM    9  C7  UNL     1      23.736  -0.965  54.277  1.00  0.00     0.032 A 
BRANCH   4  10
HETATM   10  N1  UNL     1      23.179   1.414  51.562  1.00  0.00    -0.387 N 
HETATM   11  H6  UNL     1      22.763   1.177  50.654  1.00  0.00     0.159 HD
BRANCH  10  12
HETATM   12  C2  UNL     1      24.068   2.549  51.564  1.00  0.00     0.115 C 
HETATM   13  C1  UNL     1      23.963   3.399  52.808  1.00  0.00     0.026 C 
ENDBRANCH  10  12
ENDBRANCH   4  10
ENDBRANCH   1   3
BRANCH   1  14
HETATM   14  C9  UNL     1      26.522  -0.663  52.928  1.00  0.00     0.141 A 
HETATM   15  N3  UNL     1      26.902  -1.974  52.858  1.00  0.00    -0.224 NA
HETATM   16  C10 UNL     1      28.164  -2.343  53.173  1.00  0.00     0.235 A 
HETATM   17  N4  UNL     1      29.066  -1.425  53.558  1.00  0.00    -0.241 NA
HETATM   18  C11 UNL     1      28.658  -0.146  53.615  1.00  0.00     0.071 A 
HETATM   19  C12 UNL     1      27.399   0.330  53.316  1.00  0.00     0.037 A 
HETATM   20  C15 UNL     1      29.441   0.874  53.980  1.00  0.00     0.041 A 
HETATM   21  C13 UNL     1      27.324   1.630  53.471  1.00  0.00     0.026 A 
HETATM   22  C14 UNL     1      28.652   2.146  53.925  1.00  0.00     0.167 A 
BRANCH  22  23
HETATM   23  O1  UNL     1      29.266   2.952  52.987  1.00  0.00    -0.388 OA
HETATM   24  H14 UNL     1      29.137   2.529  52.095  1.00  0.00     0.210 HD
ENDBRANCH  22  23
ENDBRANCH   1  14
TORSDOF 5
ENDMDL
MODEL 5
REMARK VINA RESULT:      -7.5      3.567      6.040
REMARK  5 active torsions:
REMARK  status: ('A' for Active; 'I' for Inactive)
REMARK    1  A    between atoms: C2_2  and  N1_3 
REMARK    2  A    between atoms: N1_3  and  C3_4 
REMARK    3  A    between atoms: C8_10  and  N2_11 
REMARK    4  A    between atoms: N2_11  and  C9_12 
REMARK    5  A    between atoms: C14_19  and  O1_20 
ROOT
HETATM    1  N2  UNL     1      24.737   2.113  51.035  1.00  0.00    -0.338 N 
HETATM    2  H10 UNL     1      24.777   1.751  50.041  1.00  0.00     0.167 HD
ENDROOT
BRANCH   1   3
HETATM    3  C8  UNL     1      24.726   1.136  52.055  1.00  0.00     0.061 A 
HETATM    4  C3  UNL     1      23.668   0.620  52.772  1.00  0.00     0.072 A 
HETATM    5  C4  UNL     1      23.826  -0.330  53.732  1.00  0.00     0.039 A 
HETATM    6 BR1  UNL     1      22.298  -0.980  54.668  1.00  0.00    -0.049 Br
HETATM    7  C5  UNL     1      25.120  -0.755  53.953  1.00  0.00     0.021 A 
HETATM    8  C6  UNL     1      26.223  -0.304  53.296  1.00  0.00     0.004 A 
HETATM    9  C7  UNL     1      26.023   0.674  52.315  1.00  0.00     0.032 A 
BRANCH   4  10
HETATM   10  N1  UNL     1      22.405   1.167  52.416  1.00  0.00    -0.387 N 
HETATM   11  H6  UNL     1      22.011   1.968  52.923  1.00  0.00     0.159 HD
BRANCH  10  12
HETATM   12  C2  UNL     1      21.595   0.651  51.340  1.00  0.00     0.115 C 
HETATM   13  C1  UNL     1      20.169   0.356  51.743  1.00  0.00     0.026 C 
ENDBRANCH  10  12
ENDBRANCH   4  10
ENDBRANCH   1   3
BRANCH   1  14
HETATM   14  C9  UNL     1      24.713   3.504  50.826  1.00  0.00     0.141 A 
HETATM   15  N3  UNL     1      23.715   4.209  51.436  1.00  0.00    -0.224 NA
HETATM   16  C10 UNL     1      23.627   5.550  51.284  1.00  0.00     0.235 A 
HETATM   17  N4  UNL     1      24.522   6.211  50.531  1.00  0.00    -0.241 NA
HETATM   18  C11 UNL     1      25.490   5.485  49.947  1.00  0.00     0.071 A 
HETATM   19  C12 UNL     1      25.665   4.120  50.039  1.00  0.00     0.037 A 
HETATM   20  C15 UNL     1      26.448   6.002  49.171  1.00  0.00     0.041 A 
HETATM   21  C13 UNL     1      26.706   3.719  49.350  1.00  0.00     0.026 A 
HETATM   22  C14 UNL     1      27.347   4.901  48.697  1.00  0.00     0.167 A 
BRANCH  22  23
HETATM   23  O1  UNL     1      28.606   5.176  49.196  1.00  0.00    -0.388 OA
HETATM   24  H14 UNL     1      28.629   4.866  50.142  1.00  0.00     0.210 HD
ENDBRANCH  22  23
ENDBRANCH   1  14
TORSDOF 5
ENDMDL
MODEL 6
REMARK VINA RESULT:      -7.4      2.311      3.898
REMARK  5 active torsions:
REMARK  status: ('A' for Active; 'I' for Inactive)
REMARK    1  A    between atoms: C2_2  and  N1_3 
REMARK    2  A    between atoms: N1_3  and  C3_4 
REMARK    3  A    between atoms: C8_10  and  N2_11 
REMARK    4  A    between atoms: N2_11  and  C9_12 
REMARK    5  A    between atoms: C14_19  and  O1_20 
ROOT
HETATM    1  N2  UNL     1      25.421   1.489  51.546  1.00  0.00    -0.338 N 
HETATM    2  H10 UNL     1      25.095   0.696  50.924  1.00  0.00     0.167 HD
ENDROOT
BRANCH   1   3
HETATM    3  C8  UNL     1      25.398   2.780  50.973  1.00  0.00     0.061 A 
HETATM    4  C3  UNL     1      24.526   3.826  51.187  1.00  0.00     0.072 A 
HETATM    5  C4  UNL     1      24.644   5.021  50.549  1.00  0.00     0.039 A 
HETATM    6 BR1  UNL     1      23.385   6.405  50.914  1.00  0.00    -0.049 Br
HETATM    7  C5  UNL     1      25.697   5.133  49.666  1.00  0.00     0.021 A 
HETATM    8  C6  UNL     1      26.606   4.157  49.392  1.00  0.00     0.004 A 
HETATM    9  C7  UNL     1      26.454   2.940  50.066  1.00  0.00     0.032 A 
BRANCH   4  10
HETATM   10  N1  UNL     1      23.501   3.542  52.129  1.00  0.00    -0.387 N 
HETATM   11  H6  UNL     1      23.601   3.802  53.117  1.00  0.00     0.159 HD
BRANCH  10  12
HETATM   12  C2  UNL     1      22.268   2.880  51.781  1.00  0.00     0.115 C 
HETATM   13  C1  UNL     1      21.032   3.629  52.224  1.00  0.00     0.026 C 
ENDBRANCH  10  12
ENDBRANCH   4  10
ENDBRANCH   1   3
BRANCH   1  14
HETATM   14  C9  UNL     1      25.742   0.803  52.731  1.00  0.00     0.141 A 
HETATM   15  N3  UNL     1      24.757   0.045  53.299  1.00  0.00    -0.224 NA
HETATM   16  C10 UNL     1      24.990  -0.645  54.438  1.00  0.00     0.235 A 
HETATM   17  N4  UNL     1      26.195  -0.598  55.030  1.00  0.00    -0.241 NA
HETATM   18  C11 UNL     1      27.139   0.157  54.443  1.00  0.00     0.071 A 
HETATM   19  C12 UNL     1      27.002   0.896  53.287  1.00  0.00     0.037 A 
HETATM   20  C15 UNL     1      28.382   0.301  54.915  1.00  0.00     0.041 A 
HETATM   21  C13 UNL     1      28.112   1.522  52.979  1.00  0.00     0.026 A 
HETATM   22  C14 UNL     1      29.152   1.210  54.007  1.00  0.00     0.167 A 
BRANCH  22  23
HETATM   23  O1  UNL     1      30.203   0.468  53.503  1.00  0.00    -0.388 OA
HETATM   24  H14 UNL     1      30.445   0.852  52.616  1.00  0.00     0.210 HD
ENDBRANCH  22  23
ENDBRANCH   1  14
TORSDOF 5
ENDMDL
MODEL 7
REMARK VINA RESULT:      -7.4      2.464      3.332
REMARK  5 active torsions:
REMARK  status: ('A' for Active; 'I' for Inactive)
REMARK    1  A    between atoms: C2_2  and  N1_3 
REMARK    2  A    between atoms: N1_3  and  C3_4 
REMARK    3  A    between atoms: C8_10  and  N2_11 
REMARK    4  A    between atoms: N2_11  and  C9_12 
REMARK    5  A    between atoms: C14_19  and  O1_20 
ROOT
HETATM    1  N2  UNL     1      24.714   1.825  51.972  1.00  0.00    -0.338 N 
HETATM    2  H10 UNL     1      24.840   1.221  51.111  1.00  0.00     0.167 HD
ENDROOT
BRANCH   1   3
HETATM    3  C8  UNL     1      24.093   3.077  51.769  1.00  0.00     0.061 A 
HETATM    4  C3  UNL     1      24.600   4.237  51.222  1.00  0.00     0.072 A 
HETATM    5  C4  UNL     1      23.862   5.371  51.095  1.00  0.00     0.039 A 
HETATM    6 BR1  UNL     1      24.656   6.924  50.324  1.00  0.00    -0.049 Br
HETATM    7  C5  UNL     1      22.561   5.299  51.548  1.00  0.00     0.021 A 
HETATM    8  C6  UNL     1      21.976   4.201  52.100  1.00  0.00     0.004 A 
HETATM    9  C7  UNL     1      22.766   3.051  52.216  1.00  0.00     0.032 A 
BRANCH   4  10
HETATM   10  N1  UNL     1      25.956   4.136  50.806  1.00  0.00    -0.387 N 
HETATM   11  H6  UNL     1      26.726   4.369  51.444  1.00  0.00     0.159 HD
BRANCH  10  12
HETATM   12  C2  UNL     1      26.347   3.710  49.485  1.00  0.00     0.115 C 
HETATM   13  C1  UNL     1      27.357   4.623  48.829  1.00  0.00     0.026 C 
ENDBRANCH  10  12
ENDBRANCH   4  10
ENDBRANCH   1   3
BRANCH   1  14
HETATM   14  C9  UNL     1      25.276   1.010  52.972  1.00  0.00     0.141 A 
HETATM   15  N3  UNL     1      24.477   0.039  53.506  1.00  0.00    -0.224 NA
HETATM   16  C10 UNL     1      24.947  -0.785  54.470  1.00  0.00     0.235 A 
HETATM   17  N4  UNL     1      26.207  -0.662  54.917  1.00  0.00    -0.241 NA
HETATM   18  C11 UNL     1      26.964   0.303  54.369  1.00  0.00     0.071 A 
HETATM   19  C12 UNL     1      26.580   1.190  53.385  1.00  0.00     0.037 A 
HETATM   20  C15 UNL     1      28.234   0.544  54.711  1.00  0.00     0.041 A 
HETATM   21  C13 UNL     1      27.553   2.010  53.067  1.00  0.00     0.026 A 
HETATM   22  C14 UNL     1      28.756   1.688  53.896  1.00  0.00     0.167 A 
BRANCH  22  23
HETATM   23  O1  UNL     1      29.808   1.193  53.150  1.00  0.00    -0.388 OA
HETATM   24  H14 UNL     1      29.447   0.921  52.262  1.00  0.00     0.210 HD
ENDBRANCH  22  23
ENDBRANCH   1  14
TORSDOF 5
ENDMDL
MODEL 8
REMARK VINA RESULT:      -7.4      2.252      3.826
REMARK  5 active torsions:
REMARK  status: ('A' for Active; 'I' for Inactive)
REMARK    1  A    between atoms: C2_2  and  N1_3 
REMARK    2  A    between atoms: N1_3  and  C3_4 
REMARK    3  A    between atoms: C8_10  and  N2_11 
REMARK    4  A    between atoms: N2_11  and  C9_12 
REMARK    5  A    between atoms: C14_19  and  O1_20 
ROOT
HETATM    1  N2  UNL     1      24.951   2.293  52.577  1.00  0.00    -0.338 N 
HETATM    2  H10 UNL     1      25.137   3.163  53.151  1.00  0.00     0.167 HD
ENDROOT
BRANCH   1   3
HETATM    3  C8  UNL     1      24.320   2.492  51.329  1.00  0.00     0.061 A 
HETATM    4  C3  UNL     1      23.168   1.930  50.822  1.00  0.00     0.072 A 
HETATM    5  C4  UNL     1      22.686   2.233  49.587  1.00  0.00     0.039 A 
HETATM    6 BR1  UNL     1      21.084   1.400  48.977  1.00  0.00    -0.049 Br
HETATM    7  C5  UNL     1      23.422   3.145  48.859  1.00  0.00     0.021 A 
HETATM    8  C6  UNL     1      24.568   3.749  49.277  1.00  0.00     0.004 A 
HETATM    9  C7  UNL     1      25.034   3.414  50.553  1.00  0.00     0.032 A 
BRANCH   4  10
HETATM   10  N1  UNL     1      22.534   1.013  51.704  1.00  0.00    -0.387 N 
HETATM   11  H6  UNL     1      22.819   0.027  51.740  1.00  0.00     0.159 HD
BRANCH  10  12
HETATM   12  C2  UNL     1      21.465   1.386  52.597  1.00  0.00     0.115 C 
HETATM   13  C1  UNL     1      20.944   0.238  53.430  1.00  0.00     0.026 C 
ENDBRANCH  10  12
ENDBRANCH   4  10
ENDBRANCH   1   3
BRANCH   1  14
HETATM   14  C9  UNL     1      25.468   1.288  53.415  1.00  0.00     0.141 A 
HETATM   15  N3  UNL     1      24.597   0.330  53.850  1.00  0.00    -0.224 NA
HETATM   16  C10 UNL     1      25.019  -0.670  54.657  1.00  0.00     0.235 A 
HETATM   17  N4  UNL     1      26.304  -0.737  55.043  1.00  0.00    -0.241 NA
HETATM   18  C11 UNL     1      27.133   0.222  54.595  1.00  0.00     0.071 A 
HETATM   19  C12 UNL     1      26.800   1.279  53.774  1.00  0.00     0.037 A 
HETATM   20  C15 UNL     1      28.434   0.286  54.894  1.00  0.00     0.041 A 
HETATM   21  C13 UNL     1      27.838   2.039  53.520  1.00  0.00     0.026 A 
HETATM   22  C14 UNL     1      29.036   1.483  54.223  1.00  0.00     0.167 A 
BRANCH  22  23
HETATM   23  O1  UNL     1      29.998   1.005  53.353  1.00  0.00    -0.388 OA
HETATM   24  H14 UNL     1      30.880   1.077  53.811  1.00  0.00     0.210 HD
ENDBRANCH  22  23
ENDBRANCH   1  14
TORSDOF 5
ENDMDL
MODEL 9
REMARK VINA RESULT:      -7.2      3.451      5.920
REMARK  5 active torsions:
REMARK  status: ('A' for Active; 'I' for Inactive)
REMARK    1  A    between atoms: C2_2  and  N1_3 
REMARK    2  A    between atoms: N1_3  and  C3_4 
REMARK    3  A    between atoms: C8_10  and  N2_11 
REMARK    4  A    between atoms: N2_11  and  C9_12 
REMARK    5  A    between atoms: C14_19  and  O1_20 
ROOT
HETATM    1  N2  UNL     1      24.424   2.665  50.914  1.00  0.00    -0.338 N 
HETATM    2  H10 UNL     1      25.379   2.287  50.657  1.00  0.00     0.167 HD
ENDROOT
BRANCH   1   3
HETATM    3  C8  UNL     1      23.475   1.715  51.354  1.00  0.00     0.061 A 
HETATM    4  C3  UNL     1      23.427   0.993  52.528  1.00  0.00     0.072 A 
HETATM    5  C4  UNL     1      22.432   0.108  52.804  1.00  0.00     0.039 A 
HETATM    6 BR1  UNL     1      22.457  -0.842  54.456  1.00  0.00    -0.049 Br
HETATM    7  C5  UNL     1      21.460  -0.029  51.835  1.00  0.00     0.021 A 
HETATM    8  C6  UNL     1      21.425   0.639  50.650  1.00  0.00     0.004 A 
HETATM    9  C7  UNL     1      22.465   1.542  50.399  1.00  0.00     0.032 A 
BRANCH   4  10
HETATM   10  N1  UNL     1      24.505   1.258  53.415  1.00  0.00    -0.387 N 
HETATM   11  H6  UNL     1      24.421   1.963  54.157  1.00  0.00     0.159 HD
BRANCH  10  12
HETATM   12  C2  UNL     1      25.773   0.575  53.345  1.00  0.00     0.115 C 
HETATM   13  C1  UNL     1      26.197  -0.051  54.653  1.00  0.00     0.026 C 
ENDBRANCH  10  12
ENDBRANCH   4  10
ENDBRANCH   1   3
BRANCH   1  14
HETATM   14  C9  UNL     1      24.590   4.040  50.668  1.00  0.00     0.141 A 
HETATM   15  N3  UNL     1      23.672   4.888  51.220  1.00  0.00    -0.224 NA
HETATM   16  C10 UNL     1      23.766   6.223  51.030  1.00  0.00     0.235 A 
HETATM   17  N4  UNL     1      24.766   6.738  50.294  1.00  0.00    -0.241 NA
HETATM   18  C11 UNL     1      25.650   5.874  49.767  1.00  0.00     0.071 A 
HETATM   19  C12 UNL     1      25.641   4.502  49.902  1.00  0.00     0.037 A 
HETATM   20  C15 UNL     1      26.694   6.238  49.015  1.00  0.00     0.041 A 
HETATM   21  C13 UNL     1      26.643   3.947  49.264  1.00  0.00     0.026 A 
HETATM   22  C14 UNL     1      27.456   5.015  48.605  1.00  0.00     0.167 A 
BRANCH  22  23
HETATM   23  O1  UNL     1      28.722   5.139  49.144  1.00  0.00    -0.388 OA
HETATM   24  H14 UNL     1      28.641   5.666  49.986  1.00  0.00     0.210 HD
ENDBRANCH  22  23
ENDBRANCH   1  14
TORSDOF 5
ENDMDL
