MODEL 1
REMARK VINA RESULT:      -7.5      0.000      0.000
REMARK  5 active torsions:
REMARK  status: ('A' for Active; 'I' for Inactive)
REMARK    1  A    between atoms: C2_2  and  C3_4 
REMARK    2  A    between atoms: C4_5  and  C5_6 
REMARK    3  A    between atoms: C5_6  and  N1_8 
REMARK    4  A    between atoms: N4_19  and  C13_20 
REMARK    5  A    between atoms: C13_20  and  C15_22 
ROOT
HETATM    1  N1  UNL     1      21.971   2.500  51.294  1.00  0.00    -0.218 NA
HETATM    2  C7  UNL     1      20.860   2.210  52.091  1.00  0.00     0.135 C 
HETATM    3  C8  UNL     1      20.907   0.861  52.797  1.00  0.00     0.031 A 
HETATM    4  C9  UNL     1      21.400  -0.151  53.464  1.00  0.00     0.176 A 
HETATM    5  C10 UNL     1      22.937   0.311  53.432  1.00  0.00     0.110 A 
HETATM    6  C11 UNL     1      23.422   1.459  52.836  1.00  0.00     0.143 A 
HETATM    7  N2  UNL     1      24.798   1.382  53.115  1.00  0.00    -0.213 NA
HETATM    8  P1  UNL     1      25.483   0.124  53.982  1.00  0.00     0.211 P 
HETATM    9  N3  UNL     1      24.277  -0.991  54.440  1.00  0.00    -0.228 NA
HETATM   10  C12 UNL     1      23.031  -0.815  54.121  1.00  0.00     0.070 A 
HETATM   11  S1  UNL     1      21.266  -0.830  53.837  1.00  0.00    -0.210 SA
HETATM   12  N4  UNL     1      23.163   2.616  52.096  1.00  0.00    -0.286 N 
ENDROOT
BRANCH  12  13
HETATM   13  C13 UNL     1      23.981   3.772  52.228  1.00  0.00     0.133 C 
HETATM   14  C14 UNL     1      23.361   5.018  52.752  1.00  0.00     0.039 C 
BRANCH  13  15
HETATM   15  C15 UNL     1      24.869   4.049  51.052  1.00  0.00    -0.034 A 
HETATM   16  C16 UNL     1      24.831   5.333  50.463  1.00  0.00     0.009 A 
HETATM   17  C17 UNL     1      25.698   5.564  49.403  1.00  0.00     0.001 A 
HETATM   18  C18 UNL     1      26.527   4.569  48.987  1.00  0.00     0.000 A 
HETATM   19  C19 UNL     1      26.635   3.312  49.486  1.00  0.00     0.001 A 
HETATM   20  C20 UNL     1      25.736   3.126  50.559  1.00  0.00     0.009 A 
ENDBRANCH  13  15
ENDBRANCH  12  13
BRANCH   1  21
HETATM   21  C5  UNL     1      22.299   1.662  50.187  1.00  0.00     0.098 C 
HETATM   22  C6  UNL     1      21.349   0.561  49.891  1.00  0.00     0.032 C 
BRANCH  21  23
HETATM   23  C4  UNL     1      22.440   2.572  48.996  1.00  0.00    -0.002 C 
HETATM   24  C3  UNL     1      21.934   3.785  48.715  1.00  0.00     0.047 C 
BRANCH  24  25
HETATM   25  C2  UNL     1      22.267   4.436  47.457  1.00  0.00     0.145 C 
HETATM   26  C1  UNL     1      22.739   5.807  47.367  1.00  0.00     0.096 C 
HETATM   27  O1  UNL     1      22.108   3.700  46.437  1.00  0.00    -0.294 OA
ENDBRANCH  24  25
ENDBRANCH  21  23
ENDBRANCH   1  21
TORSDOF 5
ENDMDL
MODEL 2
REMARK VINA RESULT:      -7.4      3.471      5.907
REMARK  5 active torsions:
REMARK  status: ('A' for Active; 'I' for Inactive)
REMARK    1  A    between atoms: C2_2  and  C3_4 
REMARK    2  A    between atoms: C4_5  and  C5_6 
REMARK    3  A    between atoms: C5_6  and  N1_8 
REMARK    4  A    between atoms: N4_19  and  C13_20 
REMARK    5  A    between atoms: C13_20  and  C15_22 
ROOT
HETATM    1  N1  UNL     1      23.176   1.790  51.277  1.00  0.00    -0.218 NA
HETATM    2  C7  UNL     1      22.498   1.573  50.074  1.00  0.00     0.135 C 
HETATM    3  C8  UNL     1      21.608   2.721  49.619  1.00  0.00     0.031 A 
HETATM    4  C9  UNL     1      21.228   3.951  49.380  1.00  0.00     0.176 A 
HETATM    5  C10 UNL     1      22.454   4.689  50.107  1.00  0.00     0.110 A 
HETATM    6  C11 UNL     1      23.508   4.064  50.746  1.00  0.00     0.143 A 
HETATM    7  N2  UNL     1      24.283   5.155  51.179  1.00  0.00    -0.213 NA
HETATM    8  P1  UNL     1      23.859   6.748  50.884  1.00  0.00     0.211 P 
HETATM    9  N3  UNL     1      22.395   6.809  50.012  1.00  0.00    -0.228 NA
HETATM   10  C12 UNL     1      21.763   5.729  49.667  1.00  0.00     0.070 A 
HETATM   11  S1  UNL     1      20.696   4.431  49.059  1.00  0.00    -0.210 SA
HETATM   12  N4  UNL     1      24.118   2.874  51.148  1.00  0.00    -0.286 N 
ENDROOT
BRANCH  12  13
HETATM   13  C13 UNL     1      25.529   2.790  51.314  1.00  0.00     0.133 C 
HETATM   14  C14 UNL     1      26.386   2.865  50.102  1.00  0.00     0.039 C 
BRANCH  13  15
HETATM   15  C15 UNL     1      25.985   1.711  52.249  1.00  0.00    -0.034 A 
HETATM   16  C16 UNL     1      26.017   1.985  53.635  1.00  0.00     0.009 A 
HETATM   17  C17 UNL     1      26.405   0.948  54.473  1.00  0.00     0.001 A 
HETATM   18  C18 UNL     1      26.729  -0.259  53.938  1.00  0.00     0.000 A 
HETATM   19  C19 UNL     1      26.730  -0.616  52.629  1.00  0.00     0.001 A 
HETATM   20  C20 UNL     1      26.329   0.468  51.819  1.00  0.00     0.009 A 
ENDBRANCH  13  15
ENDBRANCH  12  13
BRANCH   1  21
HETATM   21  C5  UNL     1      22.448   2.020  52.481  1.00  0.00     0.098 C 
HETATM   22  C6  UNL     1      21.010   2.357  52.326  1.00  0.00     0.032 C 
BRANCH  21  23
HETATM   23  C4  UNL     1      22.610   0.778  53.317  1.00  0.00    -0.002 C 
HETATM   24  C3  UNL     1      21.771   0.115  54.130  1.00  0.00     0.047 C 
BRANCH  24  25
HETATM   25  C2  UNL     1      22.221  -1.093  54.808  1.00  0.00     0.145 C 
HETATM   26  C1  UNL     1      23.563  -1.259  55.339  1.00  0.00     0.096 C 
HETATM   27  O1  UNL     1      21.335  -1.995  54.896  1.00  0.00    -0.294 OA
ENDBRANCH  24  25
ENDBRANCH  21  23
ENDBRANCH   1  21
TORSDOF 5
ENDMDL
MODEL 3
REMARK VINA RESULT:      -7.1      4.390      7.319
REMARK  5 active torsions:
REMARK  status: ('A' for Active; 'I' for Inactive)
REMARK    1  A    between atoms: C2_2  and  C3_4 
REMARK    2  A    between atoms: C4_5  and  C5_6 
REMARK    3  A    between atoms: C5_6  and  N1_8 
REMARK    4  A    between atoms: N4_19  and  C13_20 
REMARK    5  A    between atoms: C13_20  and  C15_22 
ROOT
HETATM    1  N1  UNL     1      25.205   5.811  50.101  1.00  0.00    -0.218 NA
HETATM    2  C7  UNL     1      25.669   7.129  50.116  1.00  0.00     0.135 C 
HETATM    3  C8  UNL     1      25.783   7.789  48.748  1.00  0.00     0.031 A 
HETATM    4  C9  UNL     1      25.463   8.127  47.525  1.00  0.00     0.176 A 
HETATM    5  C10 UNL     1      24.191   7.161  47.371  1.00  0.00     0.110 A 
HETATM    6  C11 UNL     1      23.714   6.295  48.337  1.00  0.00     0.143 A 
HETATM    7  N2  UNL     1      22.600   5.721  47.700  1.00  0.00    -0.213 NA
HETATM    8  P1  UNL     1      22.129   6.129  46.145  1.00  0.00     0.211 P 
HETATM    9  N3  UNL     1      23.188   7.303  45.506  1.00  0.00    -0.228 NA
HETATM   10  C12 UNL     1      24.191   7.760  46.192  1.00  0.00     0.070 A 
HETATM   11  S1  UNL     1      25.624   8.566  46.893  1.00  0.00    -0.210 SA
HETATM   12  N4  UNL     1      23.849   5.748  49.616  1.00  0.00    -0.286 N 
ENDROOT
BRANCH  12  13
HETATM   13  C13 UNL     1      22.717   5.274  50.336  1.00  0.00     0.133 C 
HETATM   14  C14 UNL     1      22.102   6.170  51.351  1.00  0.00     0.039 C 
BRANCH  13  15
HETATM   15  C15 UNL     1      22.842   3.868  50.842  1.00  0.00    -0.034 A 
HETATM   16  C16 UNL     1      23.184   3.664  52.198  1.00  0.00     0.009 A 
HETATM   17  C17 UNL     1      23.249   2.350  52.640  1.00  0.00     0.001 A 
HETATM   18  C18 UNL     1      22.985   1.338  51.770  1.00  0.00     0.000 A 
HETATM   19  C19 UNL     1      22.652   1.433  50.459  1.00  0.00     0.001 A 
HETATM   20  C20 UNL     1      22.598   2.785  50.058  1.00  0.00     0.009 A 
ENDBRANCH  13  15
ENDBRANCH  12  13
BRANCH   1  21
HETATM   21  C5  UNL     1      25.936   4.800  49.408  1.00  0.00     0.098 C 
HETATM   22  C6  UNL     1      27.124   5.255  48.643  1.00  0.00     0.032 C 
BRANCH  21  23
HETATM   23  C4  UNL     1      26.334   3.782  50.443  1.00  0.00    -0.002 C 
HETATM   24  C3  UNL     1      26.410   2.441  50.416  1.00  0.00     0.047 C 
BRANCH  24  25
HETATM   25  C2  UNL     1      26.852   1.715  51.598  1.00  0.00     0.145 C 
HETATM   26  C1  UNL     1      26.399   0.375  51.927  1.00  0.00     0.096 C 
HETATM   27  O1  UNL     1      27.671   2.357  52.321  1.00  0.00    -0.294 OA
ENDBRANCH  24  25
ENDBRANCH  21  23
ENDBRANCH   1  21
TORSDOF 5
ENDMDL
MODEL 4
REMARK VINA RESULT:      -7.0      3.517      6.701
REMARK  5 active torsions:
REMARK  status: ('A' for Active; 'I' for Inactive)
REMARK    1  A    between atoms: C2_2  and  C3_4 
REMARK    2  A    between atoms: C4_5  and  C5_6 
REMARK    3  A    between atoms: C5_6  and  N1_8 
REMARK    4  A    between atoms: N4_19  and  C13_20 
REMARK    5  A    between atoms: C13_20  and  C15_22 
ROOT
HETATM    1  N1  UNL     1      23.723   2.465  51.807  1.00  0.00    -0.218 NA
HETATM    2  C7  UNL     1      23.497   3.761  52.279  1.00  0.00     0.135 C 
HETATM    3  C8  UNL     1      23.615   4.859  51.230  1.00  0.00     0.031 A 
HETATM    4  C9  UNL     1      23.479   5.468  50.080  1.00  0.00     0.176 A 
HETATM    5  C10 UNL     1      22.885   4.224  49.257  1.00  0.00     0.110 A 
HETATM    6  C11 UNL     1      22.653   2.960  49.764  1.00  0.00     0.143 A 
HETATM    7  N2  UNL     1      22.127   2.284  48.649  1.00  0.00    -0.213 NA
HETATM    8  P1  UNL     1      21.909   3.017  47.158  1.00  0.00     0.211 P 
HETATM    9  N3  UNL     1      22.414   4.643  47.230  1.00  0.00    -0.228 NA
HETATM   10  C12 UNL     1      22.889   5.161  48.323  1.00  0.00     0.070 A 
HETATM   11  S1  UNL     1      23.562   6.130  49.664  1.00  0.00    -0.210 SA
HETATM   12  N4  UNL     1      22.715   2.083  50.850  1.00  0.00    -0.286 N 
ENDROOT
BRANCH  12  13
HETATM   13  C13 UNL     1      21.801   1.000  50.974  1.00  0.00     0.133 C 
HETATM   14  C14 UNL     1      20.457   1.138  50.355  1.00  0.00     0.039 C 
BRANCH  13  15
HETATM   15  C15 UNL     1      21.719   0.405  52.348  1.00  0.00    -0.034 A 
HETATM   16  C16 UNL     1      20.894   1.033  53.309  1.00  0.00     0.009 A 
HETATM   17  C17 UNL     1      20.811   0.430  54.557  1.00  0.00     0.001 A 
HETATM   18  C18 UNL     1      21.509  -0.712  54.796  1.00  0.00     0.000 A 
HETATM   19  C19 UNL     1      22.323  -1.385  53.943  1.00  0.00     0.001 A 
HETATM   20  C20 UNL     1      22.375  -0.734  52.691  1.00  0.00     0.009 A 
ENDBRANCH  13  15
ENDBRANCH  12  13
BRANCH   1  21
HETATM   21  C5  UNL     1      24.984   2.117  51.237  1.00  0.00     0.098 C 
HETATM   22  C6  UNL     1      26.045   3.153  51.305  1.00  0.00     0.032 C 
BRANCH  21  23
HETATM   23  C4  UNL     1      25.430   0.860  51.935  1.00  0.00    -0.002 C 
HETATM   24  C3  UNL     1      25.690   0.579  53.223  1.00  0.00     0.047 C 
BRANCH  24  25
HETATM   25  C2  UNL     1      26.101  -0.764  53.605  1.00  0.00     0.145 C 
HETATM   26  C1  UNL     1      26.824  -1.661  52.719  1.00  0.00     0.096 C 
HETATM   27  O1  UNL     1      25.770  -1.089  54.784  1.00  0.00    -0.294 OA
ENDBRANCH  24  25
ENDBRANCH  21  23
ENDBRANCH   1  21
TORSDOF 5
ENDMDL
MODEL 5
REMARK VINA RESULT:      -6.9      3.789      6.420
REMARK  5 active torsions:
REMARK  status: ('A' for Active; 'I' for Inactive)
REMARK    1  A    between atoms: C2_2  and  C3_4 
REMARK    2  A    between atoms: C4_5  and  C5_6 
REMARK    3  A    between atoms: C5_6  and  N1_8 
REMARK    4  A    between atoms: N4_19  and  C13_20 
REMARK    5  A    between atoms: C13_20  and  C15_22 
ROOT
HETATM    1  N1  UNL     1      21.951   5.070  49.108  1.00  0.00    -0.218 NA
HETATM    2  C7  UNL     1      21.855   6.033  48.100  1.00  0.00     0.135 C 
HETATM    3  C8  UNL     1      23.009   7.025  48.043  1.00  0.00     0.031 A 
HETATM    4  C9  UNL     1      24.239   7.469  48.074  1.00  0.00     0.176 A 
HETATM    5  C10 UNL     1      24.938   6.107  48.557  1.00  0.00     0.110 A 
HETATM    6  C11 UNL     1      24.287   4.916  48.818  1.00  0.00     0.143 A 
HETATM    7  N2  UNL     1      25.350   4.069  49.180  1.00  0.00    -0.213 NA
HETATM    8  P1  UNL     1      26.946   4.575  49.218  1.00  0.00     0.211 P 
HETATM    9  N3  UNL     1      27.048   6.215  48.763  1.00  0.00    -0.228 NA
HETATM   10  C12 UNL     1      25.991   6.901  48.449  1.00  0.00     0.070 A 
HETATM   11  S1  UNL     1      24.731   8.073  47.966  1.00  0.00    -0.210 SA
HETATM   12  N4  UNL     1      23.085   4.207  48.889  1.00  0.00    -0.286 N 
ENDROOT
BRANCH  12  13
HETATM   13  C13 UNL     1      23.047   2.801  48.678  1.00  0.00     0.133 C 
HETATM   14  C14 UNL     1      22.392   2.291  47.445  1.00  0.00     0.039 C 
BRANCH  13  15
HETATM   15  C15 UNL     1      22.658   1.998  49.883  1.00  0.00    -0.034 A 
HETATM   16  C16 UNL     1      21.548   1.129  49.789  1.00  0.00     0.009 A 
HETATM   17  C17 UNL     1      21.245   0.371  50.912  1.00  0.00     0.001 A 
HETATM   18  C18 UNL     1      22.011   0.493  52.028  1.00  0.00     0.000 A 
HETATM   19  C19 UNL     1      23.089   1.296  52.215  1.00  0.00     0.001 A 
HETATM   20  C20 UNL     1      23.357   2.044  51.048  1.00  0.00     0.009 A 
ENDBRANCH  13  15
ENDBRANCH  12  13
BRANCH   1  21
HETATM   21  C5  UNL     1      21.994   5.466  50.478  1.00  0.00     0.098 C 
HETATM   22  C6  UNL     1      21.789   6.910  50.752  1.00  0.00     0.032 C 
BRANCH  21  23
HETATM   23  C4  UNL     1      20.953   4.641  51.188  1.00  0.00    -0.002 C 
HETATM   24  C3  UNL     1      19.779   4.123  50.792  1.00  0.00     0.047 C 
BRANCH  24  25
HETATM   25  C2  UNL     1      18.980   3.340  51.723  1.00  0.00     0.145 C 
HETATM   26  C1  UNL     1      17.565   3.072  51.532  1.00  0.00     0.096 C 
HETATM   27  O1  UNL     1      19.628   2.910  52.723  1.00  0.00    -0.294 OA
ENDBRANCH  24  25
ENDBRANCH  21  23
ENDBRANCH   1  21
TORSDOF 5
ENDMDL
MODEL 6
REMARK VINA RESULT:      -6.7      2.366      4.392
REMARK  5 active torsions:
REMARK  status: ('A' for Active; 'I' for Inactive)
REMARK    1  A    between atoms: C2_2  and  C3_4 
REMARK    2  A    between atoms: C4_5  and  C5_6 
REMARK    3  A    between atoms: C5_6  and  N1_8 
REMARK    4  A    between atoms: N4_19  and  C13_20 
REMARK    5  A    between atoms: C13_20  and  C15_22 
ROOT
HETATM    1  N1  UNL     1      23.307   2.407  51.259  1.00  0.00    -0.218 NA
HETATM    2  C7  UNL     1      24.532   1.737  51.194  1.00  0.00     0.135 C 
HETATM    3  C8  UNL     1      24.872   0.892  52.415  1.00  0.00     0.031 A 
HETATM    4  C9  UNL     1      24.698   0.063  53.412  1.00  0.00     0.176 A 
HETATM    5  C10 UNL     1      23.101  -0.061  53.301  1.00  0.00     0.110 A 
HETATM    6  C11 UNL     1      22.305   0.585  52.374  1.00  0.00     0.143 A 
HETATM    7  N2  UNL     1      21.021   0.119  52.709  1.00  0.00    -0.213 NA
HETATM    8  P1  UNL     1      20.740  -0.960  53.959  1.00  0.00     0.211 P 
HETATM    9  N3  UNL     1      22.211  -1.369  54.716  1.00  0.00    -0.228 NA
HETATM   10  C12 UNL     1      23.343  -0.871  54.319  1.00  0.00     0.070 A 
HETATM   11  S1  UNL     1      25.023  -0.359  53.990  1.00  0.00    -0.210 SA
HETATM   12  N4  UNL     1      22.211   1.471  51.298  1.00  0.00    -0.286 N 
ENDROOT
BRANCH  12  13
HETATM   13  C13 UNL     1      21.167   1.354  50.338  1.00  0.00     0.133 C 
HETATM   14  C14 UNL     1      21.507   0.834  48.988  1.00  0.00     0.039 C 
BRANCH  13  15
HETATM   15  C15 UNL     1      20.253   2.539  50.262  1.00  0.00    -0.034 A 
HETATM   16  C16 UNL     1      19.472   2.867  51.393  1.00  0.00     0.009 A 
HETATM   17  C17 UNL     1      18.669   3.995  51.298  1.00  0.00     0.001 A 
HETATM   18  C18 UNL     1      18.668   4.722  50.149  1.00  0.00     0.000 A 
HETATM   19  C19 UNL     1      19.378   4.488  49.016  1.00  0.00     0.001 A 
HETATM   20  C20 UNL     1      20.177   3.333  49.161  1.00  0.00     0.009 A 
ENDBRANCH  13  15
ENDBRANCH  12  13
BRANCH   1  21
HETATM   21  C5  UNL     1      23.065   3.365  52.288  1.00  0.00     0.098 C 
HETATM   22  C6  UNL     1      24.190   3.626  53.221  1.00  0.00     0.032 C 
BRANCH  21  23
HETATM   23  C4  UNL     1      22.651   4.635  51.593  1.00  0.00    -0.002 C 
HETATM   24  C3  UNL     1      23.017   5.192  50.426  1.00  0.00     0.047 C 
BRANCH  24  25
HETATM   25  C2  UNL     1      22.419   6.450  50.004  1.00  0.00     0.145 C 
HETATM   26  C1  UNL     1      21.487   7.207  50.822  1.00  0.00     0.096 C 
HETATM   27  O1  UNL     1      22.782   6.833  48.851  1.00  0.00    -0.294 OA
ENDBRANCH  24  25
ENDBRANCH  21  23
ENDBRANCH   1  21
TORSDOF 5
ENDMDL
MODEL 7
REMARK VINA RESULT:      -6.5      2.392      4.217
REMARK  5 active torsions:
REMARK  status: ('A' for Active; 'I' for Inactive)
REMARK    1  A    between atoms: C2_2  and  C3_4 
REMARK    2  A    between atoms: C4_5  and  C5_6 
REMARK    3  A    between atoms: C5_6  and  N1_8 
REMARK    4  A    between atoms: N4_19  and  C13_20 
REMARK    5  A    between atoms: C13_20  and  C15_22 
ROOT
HETATM    1  N1  UNL     1      23.873   2.990  51.006  1.00  0.00    -0.218 NA
HETATM    2  C7  UNL     1      24.797   1.966  51.232  1.00  0.00     0.135 C 
HETATM    3  C8  UNL     1      24.407   0.971  52.317  1.00  0.00     0.031 A 
HETATM    4  C9  UNL     1      23.650   0.173  53.026  1.00  0.00     0.176 A 
HETATM    5  C10 UNL     1      22.245   0.582  52.367  1.00  0.00     0.110 A 
HETATM    6  C11 UNL     1      22.066   1.515  51.363  1.00  0.00     0.143 A 
HETATM    7  N2  UNL     1      20.676   1.468  51.157  1.00  0.00    -0.213 NA
HETATM    8  P1  UNL     1      19.661   0.451  52.018  1.00  0.00     0.211 P 
HETATM    9  N3  UNL     1      20.566  -0.466  53.134  1.00  0.00    -0.228 NA
HETATM   10  C12 UNL     1      21.853  -0.334  53.237  1.00  0.00     0.070 A 
HETATM   11  S1  UNL     1      23.605  -0.372  53.591  1.00  0.00    -0.210 SA
HETATM   12  N4  UNL     1      22.631   2.459  50.502  1.00  0.00    -0.286 N 
ENDROOT
BRANCH  12  13
HETATM   13  C13 UNL     1      22.035   2.756  49.244  1.00  0.00     0.133 C 
HETATM   14  C14 UNL     1      22.618   2.137  48.025  1.00  0.00     0.039 C 
BRANCH  13  15
HETATM   15  C15 UNL     1      21.716   4.205  49.030  1.00  0.00    -0.034 A 
HETATM   16  C16 UNL     1      22.400   4.906  48.011  1.00  0.00     0.009 A 
HETATM   17  C17 UNL     1      22.047   6.234  47.815  1.00  0.00     0.001 A 
HETATM   18  C18 UNL     1      21.081   6.791  48.592  1.00  0.00     0.000 A 
HETATM   19  C19 UNL     1      20.373   6.204  49.590  1.00  0.00     0.001 A 
HETATM   20  C20 UNL     1      20.766   4.858  49.750  1.00  0.00     0.009 A 
ENDBRANCH  13  15
ENDBRANCH  12  13
BRANCH   1  21
HETATM   21  C5  UNL     1      23.537   3.898  52.053  1.00  0.00     0.098 C 
HETATM   22  C6  UNL     1      24.148   3.628  53.379  1.00  0.00     0.032 C 
BRANCH  21  23
HETATM   23  C4  UNL     1      23.924   5.268  51.563  1.00  0.00    -0.002 C 
HETATM   24  C3  UNL     1      24.803   5.687  50.639  1.00  0.00     0.047 C 
BRANCH  24  25
HETATM   25  C2  UNL     1      24.951   7.110  50.369  1.00  0.00     0.145 C 
HETATM   26  C1  UNL     1      23.864   8.065  50.498  1.00  0.00     0.096 C 
HETATM   27  O1  UNL     1      26.118   7.448  50.008  1.00  0.00    -0.294 OA
ENDBRANCH  24  25
ENDBRANCH  21  23
ENDBRANCH   1  21
TORSDOF 5
ENDMDL
MODEL 8
REMARK VINA RESULT:      -6.4      3.243      5.040
REMARK  5 active torsions:
REMARK  status: ('A' for Active; 'I' for Inactive)
REMARK    1  A    between atoms: C2_2  and  C3_4 
REMARK    2  A    between atoms: C4_5  and  C5_6 
REMARK    3  A    between atoms: C5_6  and  N1_8 
REMARK    4  A    between atoms: N4_19  and  C13_20 
REMARK    5  A    between atoms: C13_20  and  C15_22 
ROOT
HETATM    1  N1  UNL     1      21.983   1.441  51.052  1.00  0.00    -0.218 NA
HETATM    2  C7  UNL     1      21.321   0.215  50.937  1.00  0.00     0.135 C 
HETATM    3  C8  UNL     1      19.845   0.241  51.309  1.00  0.00     0.031 A 
HETATM    4  C9  UNL     1      18.612   0.673  51.383  1.00  0.00     0.176 A 
HETATM    5  C10 UNL     1      18.862   2.121  50.738  1.00  0.00     0.110 A 
HETATM    6  C11 UNL     1      20.077   2.606  50.293  1.00  0.00     0.143 A 
HETATM    7  N2  UNL     1      19.731   3.884  49.819  1.00  0.00    -0.213 NA
HETATM    8  P1  UNL     1      18.167   4.482  49.867  1.00  0.00     0.211 P 
HETATM    9  N3  UNL     1      17.123   3.326  50.559  1.00  0.00    -0.228 NA
HETATM   10  C12 UNL     1      17.560   2.172  50.965  1.00  0.00     0.070 A 
HETATM   11  S1  UNL     1      17.869   0.529  51.595  1.00  0.00    -0.210 SA
HETATM   12  N4  UNL     1      21.449   2.404  50.121  1.00  0.00    -0.286 N 
ENDROOT
BRANCH  12  13
HETATM   13  C13 UNL     1      22.161   3.047  49.072  1.00  0.00     0.133 C 
HETATM   14  C14 UNL     1      22.534   2.243  47.878  1.00  0.00     0.039 C 
BRANCH  13  15
HETATM   15  C15 UNL     1      23.292   3.919  49.526  1.00  0.00    -0.034 A 
HETATM   16  C16 UNL     1      24.615   3.533  49.210  1.00  0.00     0.009 A 
HETATM   17  C17 UNL     1      25.633   4.388  49.612  1.00  0.00     0.001 A 
HETATM   18  C18 UNL     1      25.322   5.533  50.275  1.00  0.00     0.000 A 
HETATM   19  C19 UNL     1      24.091   5.987  50.623  1.00  0.00     0.001 A 
HETATM   20  C20 UNL     1      23.092   5.086  50.194  1.00  0.00     0.009 A 
ENDBRANCH  13  15
ENDBRANCH  12  13
BRANCH   1  21
HETATM   21  C5  UNL     1      22.067   2.095  52.317  1.00  0.00     0.098 C 
HETATM   22  C6  UNL     1      21.417   1.405  53.459  1.00  0.00     0.032 C 
BRANCH  21  23
HETATM   23  C4  UNL     1      23.534   2.299  52.590  1.00  0.00    -0.002 C 
HETATM   24  C3  UNL     1      24.579   1.455  52.612  1.00  0.00     0.047 C 
BRANCH  24  25
HETATM   25  C2  UNL     1      25.913   1.960  52.902  1.00  0.00     0.145 C 
HETATM   26  C1  UNL     1      26.973   2.032  51.911  1.00  0.00     0.096 C 
HETATM   27  O1  UNL     1      26.074   2.332  54.103  1.00  0.00    -0.294 OA
ENDBRANCH  24  25
ENDBRANCH  21  23
ENDBRANCH   1  21
TORSDOF 5
ENDMDL
MODEL 9
REMARK VINA RESULT:      -6.3      7.258     10.114
REMARK  5 active torsions:
REMARK  status: ('A' for Active; 'I' for Inactive)
REMARK    1  A    between atoms: C2_2  and  C3_4 
REMARK    2  A    between atoms: C4_5  and  C5_6 
REMARK    3  A    between atoms: C5_6  and  N1_8 
REMARK    4  A    between atoms: N4_19  and  C13_20 
REMARK    5  A    between atoms: C13_20  and  C15_22 
ROOT
HETATM    1  N1  UNL     1      30.452   7.963  47.290  1.00  0.00    -0.218 NA
HETATM    2  C7  UNL     1      29.879   9.113  47.841  1.00  0.00     0.135 C 
HETATM    3  C8  UNL     1      28.359   9.099  47.929  1.00  0.00     0.031 A 
HETATM    4  C9  UNL     1      27.153   8.638  48.142  1.00  0.00     0.176 A 
HETATM    5  C10 UNL     1      27.558   7.103  48.379  1.00  0.00     0.110 A 
HETATM    6  C11 UNL     1      28.841   6.591  48.334  1.00  0.00     0.143 A 
HETATM    7  N2  UNL     1      28.629   5.232  48.623  1.00  0.00    -0.213 NA
HETATM    8  P1  UNL     1      27.112   4.589  48.926  1.00  0.00     0.211 P 
HETATM    9  N3  UNL     1      25.931   5.814  48.824  1.00  0.00    -0.228 NA
HETATM   10  C12 UNL     1      26.247   7.043  48.545  1.00  0.00     0.070 A 
HETATM   11  S1  UNL     1      26.383   8.789  48.195  1.00  0.00    -0.210 SA
HETATM   12  N4  UNL     1      30.204   6.814  48.125  1.00  0.00    -0.286 N 
ENDROOT
BRANCH  12  13
HETATM   13  C13 UNL     1      31.187   6.008  48.763  1.00  0.00     0.133 C 
HETATM   14  C14 UNL     1      31.943   6.589  49.904  1.00  0.00     0.039 C 
BRANCH  13  15
HETATM   15  C15 UNL     1      32.088   5.260  47.826  1.00  0.00    -0.034 A 
HETATM   16  C16 UNL     1      33.435   5.673  47.708  1.00  0.00     0.009 A 
HETATM   17  C17 UNL     1      34.248   4.930  46.862  1.00  0.00     0.001 A 
HETATM   18  C18 UNL     1      33.727   3.863  46.200  1.00  0.00     0.000 A 
HETATM   19  C19 UNL     1      32.455   3.394  46.246  1.00  0.00     0.001 A 
HETATM   20  C20 UNL     1      31.669   4.179  47.117  1.00  0.00     0.009 A 
ENDBRANCH  13  15
ENDBRANCH  12  13
BRANCH   1  21
HETATM   21  C5  UNL     1      30.138   7.574  45.954  1.00  0.00     0.098 C 
HETATM   22  C6  UNL     1      29.268   8.500  45.186  1.00  0.00     0.032 C 
BRANCH  21  23
HETATM   23  C4  UNL     1      31.456   7.385  45.249  1.00  0.00    -0.002 C 
HETATM   24  C3  UNL     1      32.513   8.194  45.067  1.00  0.00     0.047 C 
BRANCH  24  25
HETATM   25  C2  UNL     1      33.677   7.714  44.337  1.00  0.00     0.145 C 
HETATM   26  C1  UNL     1      33.681   6.490  43.554  1.00  0.00     0.096 C 
HETATM   27  O1  UNL     1      34.697   8.459  44.444  1.00  0.00    -0.294 OA
ENDBRANCH  24  25
ENDBRANCH  21  23
ENDBRANCH   1  21
TORSDOF 5
ENDMDL
