MODEL 1
REMARK VINA RESULT:      -8.6      0.000      0.000
REMARK  2 active torsions:
REMARK  status: ('A' for Active; 'I' for Inactive)
REMARK    1  A    between atoms: C2_2  and  C3_3 
REMARK    2  A    between atoms: N1_8  and  C7_9 
ROOT
HETATM    1  C7  UNL     1      23.725   1.196  52.860  1.00  0.00     0.135 A 
HETATM    2  N2  UNL     1      23.016   2.267  52.718  1.00  0.00    -0.243 NA
HETATM    3  C8  UNL     1      23.440   3.387  51.959  1.00  0.00     0.117 A 
HETATM    4  C9  UNL     1      24.602   3.425  51.333  1.00  0.00     0.022 A 
HETATM    5  C10 UNL     1      25.598   2.325  51.341  1.00  0.00     0.145 A 
HETATM    6  N3  UNL     1      26.820   2.840  51.923  1.00  0.00    -0.362 N 
HETATM    7  C11 UNL     1      27.584   1.876  52.664  1.00  0.00     0.134 A 
HETATM    8  N4  UNL     1      28.701   2.169  53.250  1.00  0.00    -0.225 NA
HETATM    9  C12 UNL     1      29.379   1.122  53.964  1.00  0.00     0.229 A 
HETATM   10  N5  UNL     1      28.965  -0.099  54.073  1.00  0.00    -0.278 NA
HETATM   11  C13 UNL     1      27.759  -0.612  53.499  1.00  0.00     0.193 A 
HETATM   12  C14 UNL     1      27.073   0.493  52.764  1.00  0.00     0.019 A 
HETATM   13  C15 UNL     1      25.934   0.297  52.137  1.00  0.00    -0.000 C 
HETATM   14  C16 UNL     1      25.009   1.242  52.168  1.00  0.00     0.026 A 
HETATM   15  H16 UNL     1      27.165   3.820  51.843  1.00  0.00     0.162 HD
ENDROOT
BRANCH   1  16
HETATM   16  N1  UNL     1      23.529  -0.025  53.549  1.00  0.00    -0.356 N 
HETATM   17  C3  UNL     1      22.235  -0.494  53.152  1.00  0.00     0.109 C 
HETATM   18  C4  UNL     1      22.073  -1.891  53.758  1.00  0.00     0.193 C 
HETATM   19  O1  UNL     1      22.194  -1.847  55.129  1.00  0.00    -0.388 OA
HETATM   20  C5  UNL     1      23.340  -1.241  55.590  1.00  0.00     0.187 C 
HETATM   21  C6  UNL     1      24.282  -0.824  54.477  1.00  0.00     0.151 C 
BRANCH  17  22
HETATM   22  C2  UNL     1      21.127   0.375  53.672  1.00  0.00     0.023 C 
HETATM   23  C1  UNL     1      19.832   0.058  52.991  1.00  0.00     0.007 C 
ENDBRANCH  17  22
ENDBRANCH   1  16
TORSDOF 2
ENDMDL
MODEL 2
REMARK VINA RESULT:      -8.3      2.139      5.445
REMARK  2 active torsions:
REMARK  status: ('A' for Active; 'I' for Inactive)
REMARK    1  A    between atoms: C2_2  and  C3_3 
REMARK    2  A    between atoms: N1_8  and  C7_9 
ROOT
HETATM    1  C7  UNL     1      26.247   1.827  51.753  1.00  0.00     0.135 A 
HETATM    2  N2  UNL     1      26.879   2.418  50.794  1.00  0.00    -0.243 NA
HETATM    3  C8  UNL     1      26.346   3.512  50.066  1.00  0.00     0.117 A 
HETATM    4  C9  UNL     1      25.152   4.017  50.312  1.00  0.00     0.022 A 
HETATM    5  C10 UNL     1      24.228   3.518  51.361  1.00  0.00     0.145 A 
HETATM    6  N3  UNL     1      23.010   3.086  50.705  1.00  0.00    -0.362 N 
HETATM    7  C11 UNL     1      22.349   1.979  51.339  1.00  0.00     0.134 A 
HETATM    8  N4  UNL     1      21.249   1.468  50.884  1.00  0.00    -0.225 NA
HETATM    9  C12 UNL     1      20.677   0.362  51.601  1.00  0.00     0.229 A 
HETATM   10  N5  UNL     1      21.171  -0.172  52.672  1.00  0.00    -0.278 NA
HETATM   11  C13 UNL     1      22.373   0.252  53.322  1.00  0.00     0.193 A 
HETATM   12  C14 UNL     1      22.948   1.401  52.559  1.00  0.00     0.019 A 
HETATM   13  C15 UNL     1      24.061   1.989  52.939  1.00  0.00    -0.000 C 
HETATM   14  C16 UNL     1      24.927   2.388  52.022  1.00  0.00     0.026 A 
HETATM   15  H16 UNL     1      22.602   3.506  49.844  1.00  0.00     0.162 HD
ENDROOT
BRANCH   1  16
HETATM   16  N1  UNL     1      26.555   0.743  52.610  1.00  0.00    -0.356 N 
HETATM   17  C3  UNL     1      27.251   1.313  53.726  1.00  0.00     0.109 C 
HETATM   18  C4  UNL     1      27.448   0.181  54.739  1.00  0.00     0.193 C 
HETATM   19  O1  UNL     1      28.158  -0.858  54.180  1.00  0.00    -0.388 OA
HETATM   20  C5  UNL     1      27.644  -1.340  52.999  1.00  0.00     0.187 C 
HETATM   21  C6  UNL     1      26.339  -0.678  52.602  1.00  0.00     0.151 C 
BRANCH  17  22
HETATM   22  C2  UNL     1      28.602   1.846  53.346  1.00  0.00     0.023 C 
HETATM   23  C1  UNL     1      29.437   2.101  54.562  1.00  0.00     0.007 C 
ENDBRANCH  17  22
ENDBRANCH   1  16
TORSDOF 2
ENDMDL
MODEL 3
REMARK VINA RESULT:      -8.3      2.469      5.885
REMARK  2 active torsions:
REMARK  status: ('A' for Active; 'I' for Inactive)
REMARK    1  A    between atoms: C2_2  and  C3_3 
REMARK    2  A    between atoms: N1_8  and  C7_9 
ROOT
HETATM    1  C7  UNL     1      25.286   2.113  53.189  1.00  0.00     0.135 A 
HETATM    2  N2  UNL     1      26.315   2.314  53.945  1.00  0.00    -0.243 NA
HETATM    3  C8  UNL     1      26.970   1.280  54.661  1.00  0.00     0.117 A 
HETATM    4  C9  UNL     1      26.579   0.020  54.611  1.00  0.00     0.022 A 
HETATM    5  C10 UNL     1      25.425  -0.471  53.817  1.00  0.00     0.145 A 
HETATM    6  N3  UNL     1      24.479  -1.067  54.738  1.00  0.00    -0.362 N 
HETATM    7  C11 UNL     1      23.102  -0.931  54.353  1.00  0.00     0.134 A 
HETATM    8  N4  UNL     1      22.127  -1.405  55.061  1.00  0.00    -0.225 NA
HETATM    9  C12 UNL     1      20.788  -1.210  54.577  1.00  0.00     0.229 A 
HETATM   10  N5  UNL     1      20.471  -0.594  53.484  1.00  0.00    -0.278 NA
HETATM   11  C13 UNL     1      21.402  -0.005  52.572  1.00  0.00     0.193 A 
HETATM   12  C14 UNL     1      22.785  -0.222  53.097  1.00  0.00     0.019 A 
HETATM   13  C15 UNL     1      23.841   0.222  52.450  1.00  0.00    -0.000 C 
HETATM   14  C16 UNL     1      24.856   0.719  53.137  1.00  0.00     0.026 A 
HETATM   15  H16 UNL     1      24.721  -1.565  55.620  1.00  0.00     0.162 HD
ENDROOT
BRANCH   1  16
HETATM   16  N1  UNL     1      24.475   2.955  52.392  1.00  0.00    -0.356 N 
HETATM   17  C3  UNL     1      24.923   2.768  51.044  1.00  0.00     0.109 C 
HETATM   18  C4  UNL     1      23.953   3.546  50.151  1.00  0.00     0.193 C 
HETATM   19  O1  UNL     1      23.933   4.880  50.494  1.00  0.00    -0.388 OA
HETATM   20  C5  UNL     1      23.686   5.131  51.824  1.00  0.00     0.187 C 
HETATM   21  C6  UNL     1      23.395   3.876  52.624  1.00  0.00     0.151 C 
BRANCH  17  22
HETATM   22  C2  UNL     1      26.305   3.310  50.821  1.00  0.00     0.023 C 
HETATM   23  C1  UNL     1      26.657   3.294  49.366  1.00  0.00     0.007 C 
ENDBRANCH  17  22
ENDBRANCH   1  16
TORSDOF 2
ENDMDL
MODEL 4
REMARK VINA RESULT:      -7.9      2.806      6.257
REMARK  2 active torsions:
REMARK  status: ('A' for Active; 'I' for Inactive)
REMARK    1  A    between atoms: C2_2  and  C3_3 
REMARK    2  A    between atoms: N1_8  and  C7_9 
ROOT
HETATM    1  C7  UNL     1      24.312   2.540  52.564  1.00  0.00     0.135 A 
HETATM    2  N2  UNL     1      25.325   2.663  53.357  1.00  0.00    -0.243 NA
HETATM    3  C8  UNL     1      25.936   1.567  54.017  1.00  0.00     0.117 A 
HETATM    4  C9  UNL     1      25.516   0.324  53.872  1.00  0.00     0.022 A 
HETATM    5  C10 UNL     1      24.371  -0.082  53.019  1.00  0.00     0.145 A 
HETATM    6  N3  UNL     1      23.387  -0.714  53.875  1.00  0.00    -0.362 N 
HETATM    7  C11 UNL     1      22.024  -0.516  53.466  1.00  0.00     0.134 A 
HETATM    8  N4  UNL     1      21.020  -1.010  54.117  1.00  0.00    -0.225 NA
HETATM    9  C12 UNL     1      19.699  -0.748  53.615  1.00  0.00     0.229 A 
HETATM   10  N5  UNL     1      19.426  -0.053  52.558  1.00  0.00    -0.278 NA
HETATM   11  C13 UNL     1      20.394   0.571  51.711  1.00  0.00     0.193 A 
HETATM   12  C14 UNL     1      21.757   0.284  52.253  1.00  0.00     0.019 A 
HETATM   13  C15 UNL     1      22.840   0.742  51.664  1.00  0.00    -0.000 C 
HETATM   14  C16 UNL     1      23.849   1.165  52.407  1.00  0.00     0.026 A 
HETATM   15  H16 UNL     1      23.593  -1.275  54.727  1.00  0.00     0.162 HD
ENDROOT
BRANCH   1  16
HETATM   16  N1  UNL     1      23.543   3.455  51.806  1.00  0.00    -0.356 N 
HETATM   17  C3  UNL     1      24.105   3.441  50.488  1.00  0.00     0.109 C 
HETATM   18  C4  UNL     1      23.187   4.300  49.614  1.00  0.00     0.193 C 
HETATM   19  O1  UNL     1      23.098   5.582  50.109  1.00  0.00    -0.388 OA
HETATM   20  C5  UNL     1      22.735   5.666  51.434  1.00  0.00     0.187 C 
HETATM   21  C6  UNL     1      22.419   4.318  52.052  1.00  0.00     0.151 C 
BRANCH  17  22
HETATM   22  C2  UNL     1      25.483   4.035  50.448  1.00  0.00     0.023 C 
HETATM   23  C1  UNL     1      26.396   3.211  49.594  1.00  0.00     0.007 C 
ENDBRANCH  17  22
ENDBRANCH   1  16
TORSDOF 2
ENDMDL
MODEL 5
REMARK VINA RESULT:      -7.9      2.566      4.647
REMARK  2 active torsions:
REMARK  status: ('A' for Active; 'I' for Inactive)
REMARK    1  A    between atoms: C2_2  and  C3_3 
REMARK    2  A    between atoms: N1_8  and  C7_9 
ROOT
HETATM    1  C7  UNL     1      23.820   2.026  51.667  1.00  0.00     0.135 A 
HETATM    2  N2  UNL     1      22.817   1.313  51.272  1.00  0.00    -0.243 NA
HETATM    3  C8  UNL     1      22.341   0.179  51.977  1.00  0.00     0.117 A 
HETATM    4  C9  UNL     1      22.888  -0.242  53.102  1.00  0.00     0.022 A 
HETATM    5  C10 UNL     1      24.050   0.401  53.764  1.00  0.00     0.145 A 
HETATM    6  N3  UNL     1      25.115  -0.580  53.834  1.00  0.00    -0.362 N 
HETATM    7  C11 UNL     1      26.440  -0.033  53.738  1.00  0.00     0.134 A 
HETATM    8  N4  UNL     1      27.505  -0.768  53.782  1.00  0.00    -0.225 NA
HETATM    9  C12 UNL     1      28.779  -0.111  53.676  1.00  0.00     0.229 A 
HETATM   10  N5  UNL     1      28.954   1.163  53.538  1.00  0.00    -0.278 NA
HETATM   11  C13 UNL     1      27.906   2.135  53.469  1.00  0.00     0.193 A 
HETATM   12  C14 UNL     1      26.593   1.428  53.581  1.00  0.00     0.019 A 
HETATM   13  C15 UNL     1      25.455   2.086  53.547  1.00  0.00    -0.000 C 
HETATM   14  C16 UNL     1      24.423   1.557  52.910  1.00  0.00     0.026 A 
HETATM   15  H16 UNL     1      24.988  -1.607  53.945  1.00  0.00     0.162 HD
ENDROOT
BRANCH   1  16
HETATM   16  N1  UNL     1      24.470   3.173  51.154  1.00  0.00    -0.356 N 
HETATM   17  C3  UNL     1      23.639   4.285  51.509  1.00  0.00     0.109 C 
HETATM   18  C4  UNL     1      24.406   5.548  51.106  1.00  0.00     0.193 C 
HETATM   19  O1  UNL     1      24.687   5.541  49.758  1.00  0.00    -0.388 OA
HETATM   20  C5  UNL     1      25.330   4.410  49.308  1.00  0.00     0.187 C 
HETATM   21  C6  UNL     1      25.677   3.439  50.419  1.00  0.00     0.151 C 
BRANCH  17  22
HETATM   22  C2  UNL     1      22.329   4.276  50.777  1.00  0.00     0.023 C 
HETATM   23  C1  UNL     1      21.434   5.372  51.268  1.00  0.00     0.007 C 
ENDBRANCH  17  22
ENDBRANCH   1  16
TORSDOF 2
ENDMDL
MODEL 6
REMARK VINA RESULT:      -7.8      3.354      5.680
REMARK  2 active torsions:
REMARK  status: ('A' for Active; 'I' for Inactive)
REMARK    1  A    between atoms: C2_2  and  C3_3 
REMARK    2  A    between atoms: N1_8  and  C7_9 
ROOT
HETATM    1  C7  UNL     1      23.826   2.890  50.020  1.00  0.00     0.135 A 
HETATM    2  N2  UNL     1      23.066   2.386  49.105  1.00  0.00    -0.243 NA
HETATM    3  C8  UNL     1      21.990   1.506  49.383  1.00  0.00     0.117 A 
HETATM    4  C9  UNL     1      21.676   1.130  50.609  1.00  0.00     0.022 A 
HETATM    5  C10 UNL     1      22.394   1.567  51.832  1.00  0.00     0.145 A 
HETATM    6  N3  UNL     1      22.921   0.383  52.480  1.00  0.00    -0.362 N 
HETATM    7  C11 UNL     1      24.162   0.583  53.175  1.00  0.00     0.134 A 
HETATM    8  N4  UNL     1      24.772  -0.369  53.807  1.00  0.00    -0.225 NA
HETATM    9  C12 UNL     1      26.009  -0.053  54.467  1.00  0.00     0.229 A 
HETATM   10  N5  UNL     1      26.571   1.113  54.482  1.00  0.00    -0.278 NA
HETATM   11  C13 UNL     1      26.054   2.284  53.844  1.00  0.00     0.193 A 
HETATM   12  C14 UNL     1      24.769   1.930  53.167  1.00  0.00     0.019 A 
HETATM   13  C15 UNL     1      24.076   2.825  52.499  1.00  0.00    -0.000 C 
HETATM   14  C16 UNL     1      23.477   2.471  51.373  1.00  0.00     0.026 A 
HETATM   15  H16 UNL     1      22.479  -0.560  52.476  1.00  0.00     0.162 HD
ENDROOT
BRANCH   1  16
HETATM   16  N1  UNL     1      24.936   3.769  49.999  1.00  0.00    -0.356 N 
HETATM   17  C3  UNL     1      24.388   5.087  49.877  1.00  0.00     0.109 C 
HETATM   18  C4  UNL     1      25.562   6.061  50.016  1.00  0.00     0.193 C 
HETATM   19  O1  UNL     1      26.515   5.820  49.051  1.00  0.00    -0.388 OA
HETATM   20  C5  UNL     1      26.960   4.520  48.989  1.00  0.00     0.187 C 
HETATM   21  C6  UNL     1      26.366   3.635  50.068  1.00  0.00     0.151 C 
BRANCH  17  22
HETATM   22  C2  UNL     1      23.743   5.317  48.541  1.00  0.00     0.023 C 
HETATM   23  C1  UNL     1      22.655   6.340  48.641  1.00  0.00     0.007 C 
ENDBRANCH  17  22
ENDBRANCH   1  16
TORSDOF 2
ENDMDL
MODEL 7
REMARK VINA RESULT:      -7.7      1.798      4.013
REMARK  2 active torsions:
REMARK  status: ('A' for Active; 'I' for Inactive)
REMARK    1  A    between atoms: C2_2  and  C3_3 
REMARK    2  A    between atoms: N1_8  and  C7_9 
ROOT
HETATM    1  C7  UNL     1      24.200   0.372  52.734  1.00  0.00     0.135 A 
HETATM    2  N2  UNL     1      24.839  -0.718  53.005  1.00  0.00    -0.243 NA
HETATM    3  C8  UNL     1      26.228  -0.760  53.283  1.00  0.00     0.117 A 
HETATM    4  C9  UNL     1      26.986   0.321  53.287  1.00  0.00     0.022 A 
HETATM    5  C10 UNL     1      26.496   1.693  53.006  1.00  0.00     0.145 A 
HETATM    6  N3  UNL     1      27.213   2.189  51.848  1.00  0.00    -0.362 N 
HETATM    7  C11 UNL     1      26.458   3.079  51.012  1.00  0.00     0.134 A 
HETATM    8  N4  UNL     1      26.946   3.613  49.938  1.00  0.00    -0.225 NA
HETATM    9  C12 UNL     1      26.097   4.490  49.178  1.00  0.00     0.229 A 
HETATM   10  N5  UNL     1      24.876   4.794  49.479  1.00  0.00    -0.278 NA
HETATM   11  C13 UNL     1      24.164   4.307  50.620  1.00  0.00     0.193 A 
HETATM   12  C14 UNL     1      25.067   3.399  51.392  1.00  0.00     0.019 A 
HETATM   13  C15 UNL     1      24.664   2.809  52.496  1.00  0.00    -0.000 C 
HETATM   14  C16 UNL     1      25.041   1.564  52.738  1.00  0.00     0.026 A 
HETATM   15  H16 UNL     1      28.195   1.952  51.595  1.00  0.00     0.162 HD
ENDROOT
BRANCH   1  16
HETATM   16  N1  UNL     1      22.850   0.668  52.429  1.00  0.00    -0.356 N 
HETATM   17  C3  UNL     1      22.106   0.362  53.614  1.00  0.00     0.109 C 
HETATM   18  C4  UNL     1      20.669   0.828  53.359  1.00  0.00     0.193 C 
HETATM   19  O1  UNL     1      20.139   0.199  52.254  1.00  0.00    -0.388 OA
HETATM   20  C5  UNL     1      20.899   0.298  51.112  1.00  0.00     0.187 C 
HETATM   21  C6  UNL     1      22.130   1.166  51.288  1.00  0.00     0.151 C 
BRANCH  17  22
HETATM   22  C2  UNL     1      22.077  -1.110  53.907  1.00  0.00     0.023 C 
HETATM   23  C1  UNL     1      22.424  -1.377  55.339  1.00  0.00     0.007 C 
ENDBRANCH  17  22
ENDBRANCH   1  16
TORSDOF 2
ENDMDL
MODEL 8
REMARK VINA RESULT:      -7.5      2.894      4.889
REMARK  2 active torsions:
REMARK  status: ('A' for Active; 'I' for Inactive)
REMARK    1  A    between atoms: C2_2  and  C3_3 
REMARK    2  A    between atoms: N1_8  and  C7_9 
ROOT
HETATM    1  C7  UNL     1      22.182   1.537  52.282  1.00  0.00     0.135 A 
HETATM    2  N2  UNL     1      22.074   0.282  52.571  1.00  0.00    -0.243 NA
HETATM    3  C8  UNL     1      23.134  -0.486  53.117  1.00  0.00     0.117 A 
HETATM    4  C9  UNL     1      24.324   0.025  53.375  1.00  0.00     0.022 A 
HETATM    5  C10 UNL     1      24.703   1.439  53.133  1.00  0.00     0.145 A 
HETATM    6  N3  UNL     1      25.807   1.445  52.196  1.00  0.00    -0.362 N 
HETATM    7  C11 UNL     1      25.838   2.577  51.313  1.00  0.00     0.134 A 
HETATM    8  N4  UNL     1      26.756   2.739  50.415  1.00  0.00    -0.225 NA
HETATM    9  C12 UNL     1      26.687   3.912  49.587  1.00  0.00     0.229 A 
HETATM   10  N5  UNL     1      25.776   4.828  49.664  1.00  0.00    -0.278 NA
HETATM   11  C13 UNL     1      24.684   4.827  50.588  1.00  0.00     0.193 A 
HETATM   12  C14 UNL     1      24.779   3.600  51.436  1.00  0.00     0.019 A 
HETATM   13  C15 UNL     1      23.895   3.345  52.375  1.00  0.00    -0.000 C 
HETATM   14  C16 UNL     1      23.498   2.098  52.568  1.00  0.00     0.026 A 
HETATM   15  H16 UNL     1      26.547   0.714  52.123  1.00  0.00     0.162 HD
ENDROOT
BRANCH   1  16
HETATM   16  N1  UNL     1      21.295   2.499  51.742  1.00  0.00    -0.356 N 
HETATM   17  C3  UNL     1      20.931   2.010  50.445  1.00  0.00     0.109 C 
HETATM   18  C4  UNL     1      19.847   2.953  49.913  1.00  0.00     0.193 C 
HETATM   19  O1  UNL     1      20.312   4.247  49.850  1.00  0.00    -0.388 OA
HETATM   20  C5  UNL     1      20.848   4.727  51.024  1.00  0.00     0.187 C 
HETATM   21  C6  UNL     1      20.730   3.748  52.176  1.00  0.00     0.151 C 
BRANCH  17  22
HETATM   22  C2  UNL     1      22.083   2.027  49.483  1.00  0.00     0.023 C 
HETATM   23  C1  UNL     1      21.793   1.176  48.286  1.00  0.00     0.007 C 
ENDBRANCH  17  22
ENDBRANCH   1  16
TORSDOF 2
ENDMDL
MODEL 9
REMARK VINA RESULT:      -7.4      2.529      5.784
REMARK  2 active torsions:
REMARK  status: ('A' for Active; 'I' for Inactive)
REMARK    1  A    between atoms: C2_2  and  C3_3 
REMARK    2  A    between atoms: N1_8  and  C7_9 
ROOT
HETATM    1  C7  UNL     1      25.827   2.692  51.222  1.00  0.00     0.135 A 
HETATM    2  N2  UNL     1      26.743   2.834  50.323  1.00  0.00    -0.243 NA
HETATM    3  C8  UNL     1      26.771   3.911  49.402  1.00  0.00     0.117 A 
HETATM    4  C9  UNL     1      25.856   4.862  49.390  1.00  0.00     0.022 A 
HETATM    5  C10 UNL     1      24.700   4.928  50.319  1.00  0.00     0.145 A 
HETATM    6  N3  UNL     1      23.491   4.886  49.521  1.00  0.00    -0.362 N 
HETATM    7  C11 UNL     1      22.380   4.230  50.153  1.00  0.00     0.134 A 
HETATM    8  N4  UNL     1      21.225   4.103  49.580  1.00  0.00    -0.225 NA
HETATM    9  C12 UNL     1      20.186   3.429  50.308  1.00  0.00     0.229 A 
HETATM   10  N5  UNL     1      20.307   2.933  51.497  1.00  0.00    -0.278 NA
HETATM   11  C13 UNL     1      21.498   2.974  52.289  1.00  0.00     0.193 A 
HETATM   12  C14 UNL     1      22.562   3.679  51.511  1.00  0.00     0.019 A 
HETATM   13  C15 UNL     1      23.768   3.858  52.005  1.00  0.00    -0.000 C 
HETATM   14  C16 UNL     1      24.816   3.744  51.206  1.00  0.00     0.026 A 
HETATM   15  H16 UNL     1      23.381   5.281  48.564  1.00  0.00     0.162 HD
ENDROOT
BRANCH   1  16
HETATM   16  N1  UNL     1      25.583   1.729  52.231  1.00  0.00    -0.356 N 
HETATM   17  C3  UNL     1      26.511   2.021  53.282  1.00  0.00     0.109 C 
HETATM   18  C4  UNL     1      26.155   1.094  54.448  1.00  0.00     0.193 C 
HETATM   19  O1  UNL     1      26.228  -0.226  54.064  1.00  0.00    -0.388 OA
HETATM   20  C5  UNL     1      25.497  -0.544  52.942  1.00  0.00     0.187 C 
HETATM   21  C6  UNL     1      24.684   0.621  52.411  1.00  0.00     0.151 C 
BRANCH  17  22
HETATM   22  C2  UNL     1      27.932   1.748  52.882  1.00  0.00     0.023 C 
HETATM   23  C1  UNL     1      28.889   2.456  53.790  1.00  0.00     0.007 C 
ENDBRANCH  17  22
ENDBRANCH   1  16
TORSDOF 2
ENDMDL
