MODEL 1
REMARK VINA RESULT:      -8.6      0.000      0.000
REMARK  9 active torsions:
REMARK  status: ('A' for Active; 'I' for Inactive)
REMARK    1  A    between atoms: N1_2  and  C3_4 
REMARK    2  A    between atoms: C3_4  and  C4_5 
REMARK    3  A    between atoms: C5_6  and  C6_7 
REMARK       I    between atoms: C6_7  and  N2_9 
REMARK    4  A    between atoms: C13_19  and  N5_20 
REMARK    5  A    between atoms: N5_20  and  C14_21 
REMARK    6  A    between atoms: C14_21  and  C15_22 
REMARK    7  A    between atoms: C14_21  and  C16_24 
REMARK    8  A    between atoms: C15_22  and  O2_23 
REMARK    9  A    between atoms: C16_24  and  C17_25 
ROOT
HETATM    1  C6  UNL     1      25.352   5.257  49.887  1.00  0.00     0.243 C 
HETATM    2  O1  UNL     1      24.952   6.467  49.919  1.00  0.00    -0.268 OA
HETATM    3  N2  UNL     1      24.685   4.280  50.644  1.00  0.00    -0.344 N 
HETATM    4  C7  UNL     1      25.056   2.907  50.673  1.00  0.00     0.131 C 
HETATM    5  C8  UNL     1      24.829   2.302  52.062  1.00  0.00     0.060 C 
HETATM    6  C9  UNL     1      23.382   2.143  52.315  1.00  0.00    -0.025 A 
HETATM    7  C10 UNL     1      22.903   3.384  51.937  1.00  0.00     0.010 A 
HETATM    8  S1  UNL     1      21.054   3.209  52.202  1.00  0.00    -0.072 SA
HETATM    9  C11 UNL     1      21.137   1.522  52.779  1.00  0.00     0.114 A 
HETATM   10  N3  UNL     1      20.202   0.677  53.175  1.00  0.00    -0.234 NA
HETATM   11  C12 UNL     1      20.441  -0.570  53.583  1.00  0.00     0.236 A 
HETATM   12  N4  UNL     1      21.724  -0.876  53.552  1.00  0.00    -0.224 NA
HETATM   13  C13 UNL     1      22.727  -0.102  53.173  1.00  0.00     0.139 A 
HETATM   14  C23 UNL     1      22.532   1.181  52.744  1.00  0.00     0.053 A 
HETATM   15  C24 UNL     1      23.558   4.570  51.459  1.00  0.00     0.172 C 
ENDROOT
BRANCH  13  16
HETATM   16  N5  UNL     1      23.992  -0.711  53.290  1.00  0.00    -0.367 N 
HETATM   17  H16 UNL     1      24.560  -1.173  52.584  1.00  0.00     0.161 HD
BRANCH  16  18
HETATM   18  C14 UNL     1      24.852  -0.828  54.417  1.00  0.00     0.111 C 
BRANCH  18  19
HETATM   19  C15 UNL     1      24.189  -0.977  55.749  1.00  0.00     0.189 C 
BRANCH  19  20
HETATM   20  O2  UNL     1      23.325  -2.048  55.868  1.00  0.00    -0.399 OA
HETATM   21  H20 UNL     1      22.403  -1.704  55.814  1.00  0.00     0.209 HD
ENDBRANCH  19  20
ENDBRANCH  18  19
BRANCH  18  22
HETATM   22  C16 UNL     1      25.918   0.229  54.555  1.00  0.00     0.065 C 
BRANCH  22  23
HETATM   23  C17 UNL     1      27.251  -0.191  54.117  1.00  0.00    -0.056 A 
HETATM   24  C18 UNL     1      27.539  -1.341  53.422  1.00  0.00     0.007 A 
HETATM   25  C19 UNL     1      28.856  -1.634  53.042  1.00  0.00     0.001 A 
HETATM   26  C20 UNL     1      29.869  -0.742  53.380  1.00  0.00     0.000 A 
HETATM   27  C21 UNL     1      29.602   0.429  54.083  1.00  0.00     0.001 A 
HETATM   28  C22 UNL     1      28.290   0.669  54.433  1.00  0.00     0.007 A 
ENDBRANCH  22  23
ENDBRANCH  18  22
ENDBRANCH  16  18
ENDBRANCH  13  16
BRANCH   1  29
HETATM   29  C5  UNL     1      26.461   5.363  48.982  1.00  0.00     0.072 C 
HETATM   30  C4  UNL     1      26.975   6.582  48.884  1.00  0.00     0.008 C 
BRANCH  30  31
HETATM   31  C3  UNL     1      28.117   6.765  47.973  1.00  0.00     0.299 C 
BRANCH  31  32
HETATM   32  N1  UNL     1      28.825   8.007  48.158  1.00  0.00     0.083 N 
HETATM   33  C1  UNL     1      30.214   7.825  48.567  1.00  0.00     0.309 C 
HETATM   34  C2  UNL     1      28.139   8.828  49.178  1.00  0.00     0.309 C 
ENDBRANCH  31  32
ENDBRANCH  30  31
ENDBRANCH   1  29
TORSDOF 9
ENDMDL
MODEL 2
REMARK VINA RESULT:      -8.3      1.757      2.338
REMARK  9 active torsions:
REMARK  status: ('A' for Active; 'I' for Inactive)
REMARK    1  A    between atoms: N1_2  and  C3_4 
REMARK    2  A    between atoms: C3_4  and  C4_5 
REMARK    3  A    between atoms: C5_6  and  C6_7 
REMARK       I    between atoms: C6_7  and  N2_9 
REMARK    4  A    between atoms: C13_19  and  N5_20 
REMARK    5  A    between atoms: N5_20  and  C14_21 
REMARK    6  A    between atoms: C14_21  and  C15_22 
REMARK    7  A    between atoms: C14_21  and  C16_24 
REMARK    8  A    between atoms: C15_22  and  O2_23 
REMARK    9  A    between atoms: C16_24  and  C17_25 
ROOT
HETATM    1  C6  UNL     1      25.786   4.790  49.202  1.00  0.00     0.243 C 
HETATM    2  O1  UNL     1      25.595   5.881  48.573  1.00  0.00    -0.268 OA
HETATM    3  N2  UNL     1      24.712   4.157  49.848  1.00  0.00    -0.344 N 
HETATM    4  C7  UNL     1      24.827   2.939  50.574  1.00  0.00     0.131 C 
HETATM    5  C8  UNL     1      23.893   2.929  51.789  1.00  0.00     0.060 C 
HETATM    6  C9  UNL     1      22.489   2.791  51.349  1.00  0.00    -0.025 A 
HETATM    7  C10 UNL     1      22.425   3.741  50.346  1.00  0.00     0.010 A 
HETATM    8  S1  UNL     1      20.663   3.566  49.727  1.00  0.00    -0.072 SA
HETATM    9  C11 UNL     1      20.226   2.262  50.865  1.00  0.00     0.114 A 
HETATM   10  N3  UNL     1      19.104   1.588  51.046  1.00  0.00    -0.234 NA
HETATM   11  C12 UNL     1      18.944   0.628  51.959  1.00  0.00     0.236 A 
HETATM   12  N4  UNL     1      20.035   0.420  52.672  1.00  0.00    -0.224 NA
HETATM   13  C13 UNL     1      21.197   1.041  52.563  1.00  0.00     0.139 A 
HETATM   14  C23 UNL     1      21.411   2.028  51.642  1.00  0.00     0.053 A 
HETATM   15  C24 UNL     1      23.389   4.676  49.835  1.00  0.00     0.172 C 
ENDROOT
BRANCH  13  16
HETATM   16  N5  UNL     1      22.160   0.615  53.500  1.00  0.00    -0.367 N 
HETATM   17  H16 UNL     1      22.556   1.110  54.297  1.00  0.00     0.161 HD
BRANCH  16  18
HETATM   18  C14 UNL     1      22.834  -0.631  53.621  1.00  0.00     0.111 C 
BRANCH  18  19
HETATM   19  C15 UNL     1      22.005  -1.797  54.056  1.00  0.00     0.189 C 
BRANCH  19  20
HETATM   20  O2  UNL     1      21.021  -1.515  54.983  1.00  0.00    -0.399 OA
HETATM   21  H20 UNL     1      20.335  -2.221  54.924  1.00  0.00     0.209 HD
ENDBRANCH  19  20
ENDBRANCH  18  19
BRANCH  18  22
HETATM   22  C16 UNL     1      24.090  -0.631  54.454  1.00  0.00     0.065 C 
BRANCH  22  23
HETATM   23  C17 UNL     1      25.229   0.054  53.836  1.00  0.00    -0.056 A 
HETATM   24  C18 UNL     1      25.867   1.160  54.343  1.00  0.00     0.007 A 
HETATM   25  C19 UNL     1      26.960   1.724  53.669  1.00  0.00     0.001 A 
HETATM   26  C20 UNL     1      27.388   1.146  52.478  1.00  0.00     0.000 A 
HETATM   27  C21 UNL     1      26.757   0.026  51.946  1.00  0.00     0.001 A 
HETATM   28  C22 UNL     1      25.689  -0.489  52.648  1.00  0.00     0.007 A 
ENDBRANCH  22  23
ENDBRANCH  18  22
ENDBRANCH  16  18
ENDBRANCH  13  16
BRANCH   1  29
HETATM   29  C5  UNL     1      27.192   4.596  48.985  1.00  0.00     0.072 C 
HETATM   30  C4  UNL     1      27.811   5.633  48.436  1.00  0.00     0.008 C 
BRANCH  30  31
HETATM   31  C3  UNL     1      29.255   5.505  48.184  1.00  0.00     0.299 C 
BRANCH  31  32
HETATM   32  N1  UNL     1      29.896   6.734  47.788  1.00  0.00     0.083 N 
HETATM   33  C1  UNL     1      29.076   7.553  46.899  1.00  0.00     0.309 C 
HETATM   34  C2  UNL     1      31.173   6.437  47.107  1.00  0.00     0.309 C 
ENDBRANCH  31  32
ENDBRANCH  30  31
ENDBRANCH   1  29
TORSDOF 9
ENDMDL
MODEL 3
REMARK VINA RESULT:      -8.3      1.913      2.239
REMARK  9 active torsions:
REMARK  status: ('A' for Active; 'I' for Inactive)
REMARK    1  A    between atoms: N1_2  and  C3_4 
REMARK    2  A    between atoms: C3_4  and  C4_5 
REMARK    3  A    between atoms: C5_6  and  C6_7 
REMARK       I    between atoms: C6_7  and  N2_9 
REMARK    4  A    between atoms: C13_19  and  N5_20 
REMARK    5  A    between atoms: N5_20  and  C14_21 
REMARK    6  A    between atoms: C14_21  and  C15_22 
REMARK    7  A    between atoms: C14_21  and  C16_24 
REMARK    8  A    between atoms: C15_22  and  O2_23 
REMARK    9  A    between atoms: C16_24  and  C17_25 
ROOT
HETATM    1  C6  UNL     1      24.105   6.982  50.840  1.00  0.00     0.243 C 
HETATM    2  O1  UNL     1      23.456   8.068  50.694  1.00  0.00    -0.268 OA
HETATM    3  N2  UNL     1      23.438   5.819  51.260  1.00  0.00    -0.344 N 
HETATM    4  C7  UNL     1      24.077   4.562  51.451  1.00  0.00     0.131 C 
HETATM    5  C8  UNL     1      23.454   3.799  52.625  1.00  0.00     0.060 C 
HETATM    6  C9  UNL     1      22.110   3.309  52.256  1.00  0.00    -0.025 A 
HETATM    7  C10 UNL     1      21.550   4.446  51.704  1.00  0.00     0.010 A 
HETATM    8  S1  UNL     1      19.849   3.852  51.179  1.00  0.00    -0.072 SA
HETATM    9  C11 UNL     1      20.084   2.178  51.752  1.00  0.00     0.114 A 
HETATM   10  N3  UNL     1      19.295   1.118  51.730  1.00  0.00    -0.234 NA
HETATM   11  C12 UNL     1      19.633  -0.079  52.211  1.00  0.00     0.236 A 
HETATM   12  N4  UNL     1      20.852  -0.097  52.717  1.00  0.00    -0.224 NA
HETATM   13  C13 UNL     1      21.710   0.907  52.782  1.00  0.00     0.139 A 
HETATM   14  C23 UNL     1      21.411   2.151  52.302  1.00  0.00     0.053 A 
HETATM   15  C24 UNL     1      22.044   5.784  51.532  1.00  0.00     0.172 C 
ENDROOT
BRANCH  13  16
HETATM   16  N5  UNL     1      22.923   0.578  53.419  1.00  0.00    -0.367 N 
HETATM   17  H16 UNL     1      23.714   1.172  53.658  1.00  0.00     0.161 HD
BRANCH  16  18
HETATM   18  C14 UNL     1      23.380  -0.665  53.936  1.00  0.00     0.111 C 
BRANCH  18  19
HETATM   19  C15 UNL     1      22.755  -1.126  55.213  1.00  0.00     0.189 C 
BRANCH  19  20
HETATM   20  O2  UNL     1      21.588  -1.853  55.077  1.00  0.00    -0.399 OA
HETATM   21  H20 UNL     1      20.872  -1.232  54.805  1.00  0.00     0.209 HD
ENDBRANCH  19  20
ENDBRANCH  18  19
BRANCH  18  22
HETATM   22  C16 UNL     1      24.873  -0.819  54.080  1.00  0.00     0.065 C 
BRANCH  22  23
HETATM   23  C17 UNL     1      25.658   0.214  53.398  1.00  0.00    -0.056 A 
HETATM   24  C18 UNL     1      25.889   0.279  52.045  1.00  0.00     0.007 A 
HETATM   25  C19 UNL     1      26.648   1.325  51.501  1.00  0.00     0.001 A 
HETATM   26  C20 UNL     1      27.163   2.297  52.353  1.00  0.00     0.000 A 
HETATM   27  C21 UNL     1      26.942   2.252  53.726  1.00  0.00     0.001 A 
HETATM   28  C22 UNL     1      26.191   1.203  54.209  1.00  0.00     0.007 A 
ENDBRANCH  22  23
ENDBRANCH  18  22
ENDBRANCH  16  18
ENDBRANCH  13  16
BRANCH   1  29
HETATM   29  C5  UNL     1      25.428   7.406  50.476  1.00  0.00     0.072 C 
HETATM   30  C4  UNL     1      25.889   6.862  49.357  1.00  0.00     0.008 C 
BRANCH  30  31
HETATM   31  C3  UNL     1      27.240   7.251  48.921  1.00  0.00     0.299 C 
BRANCH  31  32
HETATM   32  N1  UNL     1      27.858   6.317  48.014  1.00  0.00     0.083 N 
HETATM   33  C1  UNL     1      27.940   4.960  48.547  1.00  0.00     0.309 C 
HETATM   34  C2  UNL     1      29.224   6.772  47.680  1.00  0.00     0.309 C 
ENDBRANCH  31  32
ENDBRANCH  30  31
ENDBRANCH   1  29
TORSDOF 9
ENDMDL
MODEL 4
REMARK VINA RESULT:      -8.2      3.211      9.080
REMARK  9 active torsions:
REMARK  status: ('A' for Active; 'I' for Inactive)
REMARK    1  A    between atoms: N1_2  and  C3_4 
REMARK    2  A    between atoms: C3_4  and  C4_5 
REMARK    3  A    between atoms: C5_6  and  C6_7 
REMARK       I    between atoms: C6_7  and  N2_9 
REMARK    4  A    between atoms: C13_19  and  N5_20 
REMARK    5  A    between atoms: N5_20  and  C14_21 
REMARK    6  A    between atoms: C14_21  and  C15_22 
REMARK    7  A    between atoms: C14_21  and  C16_24 
REMARK    8  A    between atoms: C15_22  and  O2_23 
REMARK    9  A    between atoms: C16_24  and  C17_25 
ROOT
HETATM    1  C6  UNL     1      19.905  -0.132  52.541  1.00  0.00     0.243 C 
HETATM    2  O1  UNL     1      19.350  -0.821  53.457  1.00  0.00    -0.268 OA
HETATM    3  N2  UNL     1      21.244   0.269  52.681  1.00  0.00    -0.344 N 
HETATM    4  C7  UNL     1      21.949   1.039  51.714  1.00  0.00     0.131 C 
HETATM    5  C8  UNL     1      22.929   2.006  52.386  1.00  0.00     0.060 C 
HETATM    6  C9  UNL     1      24.074   1.259  52.948  1.00  0.00    -0.025 A 
HETATM    7  C10 UNL     1      23.427   0.240  53.622  1.00  0.00     0.010 A 
HETATM    8  S1  UNL     1      24.853  -0.762  54.316  1.00  0.00    -0.072 SA
HETATM    9  C11 UNL     1      26.127   0.284  53.633  1.00  0.00     0.114 A 
HETATM   10  N3  UNL     1      27.446   0.223  53.693  1.00  0.00    -0.234 NA
HETATM   11  C12 UNL     1      28.265   1.104  53.116  1.00  0.00     0.236 A 
HETATM   12  N4  UNL     1      27.614   2.055  52.472  1.00  0.00    -0.224 NA
HETATM   13  C13 UNL     1      26.305   2.197  52.357  1.00  0.00     0.139 A 
HETATM   14  C23 UNL     1      25.425   1.320  52.928  1.00  0.00     0.053 A 
HETATM   15  C24 UNL     1      22.036  -0.064  53.813  1.00  0.00     0.172 C 
ENDROOT
BRANCH  13  16
HETATM   16  N5  UNL     1      25.918   3.343  51.634  1.00  0.00    -0.367 N 
HETATM   17  H16 UNL     1      25.812   4.306  51.947  1.00  0.00     0.161 HD
BRANCH  16  18
HETATM   18  C14 UNL     1      25.593   3.492  50.258  1.00  0.00     0.111 C 
BRANCH  18  19
HETATM   19  C15 UNL     1      26.742   3.643  49.314  1.00  0.00     0.189 C 
BRANCH  19  20
HETATM   20  O2  UNL     1      27.616   4.674  49.599  1.00  0.00    -0.399 OA
HETATM   21  H20 UNL     1      27.101   5.401  50.022  1.00  0.00     0.209 HD
ENDBRANCH  19  20
ENDBRANCH  18  19
BRANCH  18  22
HETATM   22  C16 UNL     1      24.587   4.565  49.923  1.00  0.00     0.065 C 
BRANCH  22  23
HETATM   23  C17 UNL     1      23.626   4.193  48.882  1.00  0.00    -0.056 A 
HETATM   24  C18 UNL     1      23.047   5.057  47.983  1.00  0.00     0.007 A 
HETATM   25  C19 UNL     1      22.147   4.583  47.017  1.00  0.00     0.001 A 
HETATM   26  C20 UNL     1      21.849   3.224  46.984  1.00  0.00     0.000 A 
HETATM   27  C21 UNL     1      22.423   2.331  47.883  1.00  0.00     0.001 A 
HETATM   28  C22 UNL     1      23.300   2.849  48.812  1.00  0.00     0.007 A 
ENDBRANCH  22  23
ENDBRANCH  18  22
ENDBRANCH  16  18
ENDBRANCH  13  16
BRANCH   1  29
HETATM   29  C5  UNL     1      18.827  -0.013  51.600  1.00  0.00     0.072 C 
HETATM   30  C4  UNL     1      17.628  -0.272  52.106  1.00  0.00     0.008 C 
BRANCH  30  31
HETATM   31  C3  UNL     1      16.474  -0.170  51.198  1.00  0.00     0.299 C 
BRANCH  31  32
HETATM   32  N1  UNL     1      15.232  -0.628  51.771  1.00  0.00     0.083 N 
HETATM   33  C1  UNL     1      14.788   0.174  52.907  1.00  0.00     0.309 C 
HETATM   34  C2  UNL     1      15.371  -2.031  52.213  1.00  0.00     0.309 C 
ENDBRANCH  31  32
ENDBRANCH  30  31
ENDBRANCH   1  29
TORSDOF 9
ENDMDL
MODEL 5
REMARK VINA RESULT:      -8.2      2.517      5.128
REMARK  9 active torsions:
REMARK  status: ('A' for Active; 'I' for Inactive)
REMARK    1  A    between atoms: N1_2  and  C3_4 
REMARK    2  A    between atoms: C3_4  and  C4_5 
REMARK    3  A    between atoms: C5_6  and  C6_7 
REMARK       I    between atoms: C6_7  and  N2_9 
REMARK    4  A    between atoms: C13_19  and  N5_20 
REMARK    5  A    between atoms: N5_20  and  C14_21 
REMARK    6  A    between atoms: C14_21  and  C15_22 
REMARK    7  A    between atoms: C14_21  and  C16_24 
REMARK    8  A    between atoms: C15_22  and  O2_23 
REMARK    9  A    between atoms: C16_24  and  C17_25 
ROOT
HETATM    1  C6  UNL     1      25.942   4.735  49.441  1.00  0.00     0.243 C 
HETATM    2  O1  UNL     1      27.117   5.020  49.040  1.00  0.00    -0.268 OA
HETATM    3  N2  UNL     1      25.745   3.656  50.319  1.00  0.00    -0.344 N 
HETATM    4  C7  UNL     1      24.474   3.262  50.821  1.00  0.00     0.131 C 
HETATM    5  C8  UNL     1      24.389   1.740  50.976  1.00  0.00     0.060 C 
HETATM    6  C9  UNL     1      25.221   1.299  52.115  1.00  0.00    -0.025 A 
HETATM    7  C10 UNL     1      26.401   1.975  51.866  1.00  0.00     0.010 A 
HETATM    8  S1  UNL     1      27.475   1.475  53.321  1.00  0.00    -0.072 SA
HETATM    9  C11 UNL     1      26.238   0.437  54.080  1.00  0.00     0.114 A 
HETATM   10  N3  UNL     1      26.251  -0.288  55.184  1.00  0.00    -0.234 NA
HETATM   11  C12 UNL     1      25.221  -1.020  55.614  1.00  0.00     0.236 A 
HETATM   12  N4  UNL     1      24.176  -0.944  54.811  1.00  0.00    -0.224 NA
HETATM   13  C13 UNL     1      24.071  -0.249  53.692  1.00  0.00     0.139 A 
HETATM   14  C23 UNL     1      25.096   0.517  53.213  1.00  0.00     0.053 A 
HETATM   15  C24 UNL     1      26.811   2.849  50.801  1.00  0.00     0.172 C 
ENDROOT
BRANCH  13  16
HETATM   16  N5  UNL     1      22.832  -0.407  53.039  1.00  0.00    -0.367 N 
HETATM   17  H16 UNL     1      22.552  -1.079  52.328  1.00  0.00     0.161 HD
BRANCH  16  18
HETATM   18  C14 UNL     1      21.612   0.305  53.203  1.00  0.00     0.111 C 
BRANCH  18  19
HETATM   19  C15 UNL     1      20.878   0.083  54.486  1.00  0.00     0.189 C 
BRANCH  19  20
HETATM   20  O2  UNL     1      20.941  -1.200  54.994  1.00  0.00    -0.399 OA
HETATM   21  H20 UNL     1      21.715  -1.249  55.603  1.00  0.00     0.209 HD
ENDBRANCH  19  20
ENDBRANCH  18  19
BRANCH  18  22
HETATM   22  C16 UNL     1      20.612   0.180  52.081  1.00  0.00     0.065 C 
BRANCH  22  23
HETATM   23  C17 UNL     1      20.825   1.113  50.971  1.00  0.00    -0.056 A 
HETATM   24  C18 UNL     1      20.670   2.477  51.033  1.00  0.00     0.007 A 
HETATM   25  C19 UNL     1      20.915   3.274  49.905  1.00  0.00     0.001 A 
HETATM   26  C20 UNL     1      21.319   2.662  48.723  1.00  0.00     0.000 A 
HETATM   27  C21 UNL     1      21.483   1.283  48.637  1.00  0.00     0.001 A 
HETATM   28  C22 UNL     1      21.228   0.546  49.773  1.00  0.00     0.007 A 
ENDBRANCH  22  23
ENDBRANCH  18  22
ENDBRANCH  16  18
ENDBRANCH  13  16
BRANCH   1  29
HETATM   29  C5  UNL     1      25.174   5.743  48.767  1.00  0.00     0.072 C 
HETATM   30  C4  UNL     1      25.879   6.792  48.365  1.00  0.00     0.008 C 
BRANCH  30  31
HETATM   31  C3  UNL     1      25.156   7.868  47.666  1.00  0.00     0.299 C 
BRANCH  31  32
HETATM   32  N1  UNL     1      24.882   9.022  48.484  1.00  0.00     0.083 N 
HETATM   33  C1  UNL     1      25.699   9.083  49.692  1.00  0.00     0.309 C 
HETATM   34  C2  UNL     1      23.459   9.030  48.880  1.00  0.00     0.309 C 
ENDBRANCH  31  32
ENDBRANCH  30  31
ENDBRANCH   1  29
TORSDOF 9
ENDMDL
MODEL 6
REMARK VINA RESULT:      -8.1      2.728      5.628
REMARK  9 active torsions:
REMARK  status: ('A' for Active; 'I' for Inactive)
REMARK    1  A    between atoms: N1_2  and  C3_4 
REMARK    2  A    between atoms: C3_4  and  C4_5 
REMARK    3  A    between atoms: C5_6  and  C6_7 
REMARK       I    between atoms: C6_7  and  N2_9 
REMARK    4  A    between atoms: C13_19  and  N5_20 
REMARK    5  A    between atoms: N5_20  and  C14_21 
REMARK    6  A    between atoms: C14_21  and  C15_22 
REMARK    7  A    between atoms: C14_21  and  C16_24 
REMARK    8  A    between atoms: C15_22  and  O2_23 
REMARK    9  A    between atoms: C16_24  and  C17_25 
ROOT
HETATM    1  C6  UNL     1      25.639   5.022  49.479  1.00  0.00     0.243 C 
HETATM    2  O1  UNL     1      26.786   5.353  49.035  1.00  0.00    -0.268 OA
HETATM    3  N2  UNL     1      25.510   3.904  50.320  1.00  0.00    -0.344 N 
HETATM    4  C7  UNL     1      24.274   3.457  50.864  1.00  0.00     0.131 C 
HETATM    5  C8  UNL     1      24.233   1.928  50.960  1.00  0.00     0.060 C 
HETATM    6  C9  UNL     1      25.129   1.464  52.039  1.00  0.00    -0.025 A 
HETATM    7  C10 UNL     1      26.279   2.179  51.763  1.00  0.00     0.010 A 
HETATM    8  S1  UNL     1      27.433   1.649  53.144  1.00  0.00    -0.072 SA
HETATM    9  C11 UNL     1      26.259   0.550  53.916  1.00  0.00     0.114 A 
HETATM   10  N3  UNL     1      26.342  -0.219  54.988  1.00  0.00    -0.234 NA
HETATM   11  C12 UNL     1      25.352  -0.993  55.435  1.00  0.00     0.236 A 
HETATM   12  N4  UNL     1      24.268  -0.912  54.686  1.00  0.00    -0.224 NA
HETATM   13  C13 UNL     1      24.092  -0.176  53.603  1.00  0.00     0.139 A 
HETATM   14  C23 UNL     1      25.075   0.635  53.108  1.00  0.00     0.053 A 
HETATM   15  C24 UNL     1      26.616   3.105  50.718  1.00  0.00     0.172 C 
ENDROOT
BRANCH  13  16
HETATM   16  N5  UNL     1      22.828  -0.338  53.002  1.00  0.00    -0.367 N 
HETATM   17  H16 UNL     1      22.527  -0.996  52.286  1.00  0.00     0.161 HD
BRANCH  16  18
HETATM   18  C14 UNL     1      21.604   0.345  53.242  1.00  0.00     0.111 C 
BRANCH  18  19
HETATM   19  C15 UNL     1      20.940   0.081  54.556  1.00  0.00     0.189 C 
BRANCH  19  20
HETATM   20  O2  UNL     1      21.083  -1.202  55.048  1.00  0.00    -0.399 OA
HETATM   21  H20 UNL     1      20.308  -1.393  55.627  1.00  0.00     0.209 HD
ENDBRANCH  19  20
ENDBRANCH  18  19
BRANCH  18  22
HETATM   22  C16 UNL     1      20.552   0.223  52.169  1.00  0.00     0.065 C 
BRANCH  22  23
HETATM   23  C17 UNL     1      20.731   1.136  51.037  1.00  0.00    -0.056 A 
HETATM   24  C18 UNL     1      20.527   2.495  51.066  1.00  0.00     0.007 A 
HETATM   25  C19 UNL     1      20.744   3.273  49.919  1.00  0.00     0.001 A 
HETATM   26  C20 UNL     1      21.170   2.648  48.752  1.00  0.00     0.000 A 
HETATM   27  C21 UNL     1      21.383   1.274  48.699  1.00  0.00     0.001 A 
HETATM   28  C22 UNL     1      21.154   0.555  49.853  1.00  0.00     0.007 A 
ENDBRANCH  22  23
ENDBRANCH  18  22
ENDBRANCH  16  18
ENDBRANCH  13  16
BRANCH   1  29
HETATM   29  C5  UNL     1      24.815   6.036  48.884  1.00  0.00     0.072 C 
HETATM   30  C4  UNL     1      23.731   5.575  48.276  1.00  0.00     0.008 C 
BRANCH  30  31
HETATM   31  C3  UNL     1      22.838   6.559  47.643  1.00  0.00     0.299 C 
BRANCH  31  32
HETATM   32  N1  UNL     1      21.452   6.423  48.014  1.00  0.00     0.083 N 
HETATM   33  C1  UNL     1      20.537   7.076  47.083  1.00  0.00     0.309 C 
HETATM   34  C2  UNL     1      21.235   6.990  49.361  1.00  0.00     0.309 C 
ENDBRANCH  31  32
ENDBRANCH  30  31
ENDBRANCH   1  29
TORSDOF 9
ENDMDL
MODEL 7
REMARK VINA RESULT:      -8.0      3.438      9.127
REMARK  9 active torsions:
REMARK  status: ('A' for Active; 'I' for Inactive)
REMARK    1  A    between atoms: N1_2  and  C3_4 
REMARK    2  A    between atoms: C3_4  and  C4_5 
REMARK    3  A    between atoms: C5_6  and  C6_7 
REMARK       I    between atoms: C6_7  and  N2_9 
REMARK    4  A    between atoms: C13_19  and  N5_20 
REMARK    5  A    between atoms: N5_20  and  C14_21 
REMARK    6  A    between atoms: C14_21  and  C15_22 
REMARK    7  A    between atoms: C14_21  and  C16_24 
REMARK    8  A    between atoms: C15_22  and  O2_23 
REMARK    9  A    between atoms: C16_24  and  C17_25 
ROOT
HETATM    1  C6  UNL     1      17.980  -0.501  52.389  1.00  0.00     0.243 C 
HETATM    2  O1  UNL     1      17.317  -0.896  53.402  1.00  0.00    -0.268 OA
HETATM    3  N2  UNL     1      19.342  -0.185  52.524  1.00  0.00    -0.344 N 
HETATM    4  C7  UNL     1      20.163   0.264  51.452  1.00  0.00     0.131 C 
HETATM    5  C8  UNL     1      21.196   1.287  51.938  1.00  0.00     0.060 C 
HETATM    6  C9  UNL     1      22.235   0.614  52.746  1.00  0.00    -0.025 A 
HETATM    7  C10 UNL     1      21.462  -0.152  53.598  1.00  0.00     0.010 A 
HETATM    8  S1  UNL     1      22.750  -1.061  54.615  1.00  0.00    -0.072 SA
HETATM    9  C11 UNL     1      24.150  -0.320  53.793  1.00  0.00     0.114 A 
HETATM   10  N3  UNL     1      25.453  -0.468  53.961  1.00  0.00    -0.234 NA
HETATM   11  C12 UNL     1      26.379   0.175  53.248  1.00  0.00     0.236 A 
HETATM   12  N4  UNL     1      25.854   0.985  52.348  1.00  0.00    -0.224 NA
HETATM   13  C13 UNL     1      24.572   1.198  52.108  1.00  0.00     0.139 A 
HETATM   14  C23 UNL     1      23.586   0.561  52.809  1.00  0.00     0.053 A 
HETATM   15  C24 UNL     1      20.041  -0.289  53.757  1.00  0.00     0.172 C 
ENDROOT
BRANCH  13  16
HETATM   16  N5  UNL     1      24.331   2.156  51.103  1.00  0.00    -0.367 N 
HETATM   17  H16 UNL     1      24.031   2.027  50.139  1.00  0.00     0.161 HD
BRANCH  16  18
HETATM   18  C14 UNL     1      24.410   3.575  51.151  1.00  0.00     0.111 C 
BRANCH  18  19
HETATM   19  C15 UNL     1      23.526   4.258  52.145  1.00  0.00     0.189 C 
BRANCH  19  20
HETATM   20  O2  UNL     1      24.008   5.450  52.650  1.00  0.00    -0.399 OA
HETATM   21  H20 UNL     1      24.327   5.284  53.568  1.00  0.00     0.209 HD
ENDBRANCH  19  20
ENDBRANCH  18  19
BRANCH  18  22
HETATM   22  C16 UNL     1      24.257   4.296  49.836  1.00  0.00     0.065 C 
BRANCH  22  23
HETATM   23  C17 UNL     1      25.499   4.867  49.308  1.00  0.00    -0.056 A 
HETATM   24  C18 UNL     1      26.700   4.208  49.201  1.00  0.00     0.007 A 
HETATM   25  C19 UNL     1      27.823   4.855  48.665  1.00  0.00     0.001 A 
HETATM   26  C20 UNL     1      27.702   6.175  48.244  1.00  0.00     0.000 A 
HETATM   27  C21 UNL     1      26.497   6.863  48.343  1.00  0.00     0.001 A 
HETATM   28  C22 UNL     1      25.424   6.181  48.877  1.00  0.00     0.007 A 
ENDBRANCH  22  23
ENDBRANCH  18  22
ENDBRANCH  16  18
ENDBRANCH  13  16
BRANCH   1  29
HETATM   29  C5  UNL     1      16.966  -0.534  51.372  1.00  0.00     0.072 C 
HETATM   30  C4  UNL     1      15.735  -0.324  51.819  1.00  0.00     0.008 C 
BRANCH  30  31
HETATM   31  C3  UNL     1      14.643  -0.344  50.832  1.00  0.00     0.299 C 
BRANCH  31  32
HETATM   32  N1  UNL     1      13.348  -0.024  51.379  1.00  0.00     0.083 N 
HETATM   33  C1  UNL     1      13.412   0.866  52.535  1.00  0.00     0.309 C 
HETATM   34  C2  UNL     1      12.653  -1.265  51.780  1.00  0.00     0.309 C 
ENDBRANCH  31  32
ENDBRANCH  30  31
ENDBRANCH   1  29
TORSDOF 9
ENDMDL
MODEL 8
REMARK VINA RESULT:      -7.8      3.800      8.866
REMARK  9 active torsions:
REMARK  status: ('A' for Active; 'I' for Inactive)
REMARK    1  A    between atoms: N1_2  and  C3_4 
REMARK    2  A    between atoms: C3_4  and  C4_5 
REMARK    3  A    between atoms: C5_6  and  C6_7 
REMARK       I    between atoms: C6_7  and  N2_9 
REMARK    4  A    between atoms: C13_19  and  N5_20 
REMARK    5  A    between atoms: N5_20  and  C14_21 
REMARK    6  A    between atoms: C14_21  and  C15_22 
REMARK    7  A    between atoms: C14_21  and  C16_24 
REMARK    8  A    between atoms: C15_22  and  O2_23 
REMARK    9  A    between atoms: C16_24  and  C17_25 
ROOT
HETATM    1  C6  UNL     1      18.270  -0.310  51.826  1.00  0.00     0.243 C 
HETATM    2  O1  UNL     1      17.456  -0.929  52.585  1.00  0.00    -0.268 OA
HETATM    3  N2  UNL     1      19.581  -0.059  52.263  1.00  0.00    -0.344 N 
HETATM    4  C7  UNL     1      20.560   0.623  51.489  1.00  0.00     0.131 C 
HETATM    5  C8  UNL     1      21.469   1.480  52.377  1.00  0.00     0.060 C 
HETATM    6  C9  UNL     1      22.374   0.614  53.161  1.00  0.00    -0.025 A 
HETATM    7  C10 UNL     1      21.488  -0.324  53.658  1.00  0.00     0.010 A 
HETATM    8  S1  UNL     1      22.609  -1.474  54.628  1.00  0.00    -0.072 SA
HETATM    9  C11 UNL     1      24.108  -0.579  54.260  1.00  0.00     0.114 A 
HETATM   10  N3  UNL     1      25.367  -0.784  54.606  1.00  0.00    -0.234 NA
HETATM   11  C12 UNL     1      26.383  -0.003  54.239  1.00  0.00     0.236 A 
HETATM   12  N4  UNL     1      25.997   1.011  53.486  1.00  0.00    -0.224 NA
HETATM   13  C13 UNL     1      24.769   1.296  53.091  1.00  0.00     0.139 A 
HETATM   14  C23 UNL     1      23.696   0.525  53.438  1.00  0.00     0.053 A 
HETATM   15  C24 UNL     1      20.064  -0.472  53.534  1.00  0.00     0.172 C 
ENDROOT
BRANCH  13  16
HETATM   16  N5  UNL     1      24.677   2.474  52.323  1.00  0.00    -0.367 N 
HETATM   17  H16 UNL     1      24.456   3.424  52.612  1.00  0.00     0.161 HD
BRANCH  16  18
HETATM   18  C14 UNL     1      24.896   2.682  50.933  1.00  0.00     0.111 C 
BRANCH  18  19
HETATM   19  C15 UNL     1      26.314   2.880  50.503  1.00  0.00     0.189 C 
BRANCH  19  20
HETATM   20  O2  UNL     1      27.233   3.010  51.527  1.00  0.00    -0.399 OA
HETATM   21  H20 UNL     1      27.283   3.964  51.772  1.00  0.00     0.209 HD
ENDBRANCH  19  20
ENDBRANCH  18  19
BRANCH  18  22
HETATM   22  C16 UNL     1      24.069   3.762  50.283  1.00  0.00     0.065 C 
BRANCH  22  23
HETATM   23  C17 UNL     1      22.887   3.274  49.566  1.00  0.00    -0.056 A 
HETATM   24  C18 UNL     1      22.827   2.127  48.812  1.00  0.00     0.007 A 
HETATM   25  C19 UNL     1      21.633   1.752  48.180  1.00  0.00     0.001 A 
HETATM   26  C20 UNL     1      20.509   2.559  48.329  1.00  0.00     0.000 A 
HETATM   27  C21 UNL     1      20.547   3.724  49.088  1.00  0.00     0.001 A 
HETATM   28  C22 UNL     1      21.745   4.048  49.687  1.00  0.00     0.007 A 
ENDBRANCH  22  23
ENDBRANCH  18  22
ENDBRANCH  16  18
ENDBRANCH  13  16
BRANCH   1  29
HETATM   29  C5  UNL     1      17.444  -0.078  50.675  1.00  0.00     0.072 C 
HETATM   30  C4  UNL     1      16.153  -0.312  50.871  1.00  0.00     0.008 C 
BRANCH  30  31
HETATM   31  C3  UNL     1      15.245  -0.095  49.733  1.00  0.00     0.299 C 
BRANCH  31  32
HETATM   32  N1  UNL     1      15.650  -0.761  48.520  1.00  0.00     0.083 N 
HETATM   33  C1  UNL     1      15.151  -0.114  47.310  1.00  0.00     0.309 C 
HETATM   34  C2  UNL     1      15.173  -2.160  48.533  1.00  0.00     0.309 C 
ENDBRANCH  31  32
ENDBRANCH  30  31
ENDBRANCH   1  29
TORSDOF 9
ENDMDL
MODEL 9
REMARK VINA RESULT:      -7.8      2.665      4.038
REMARK  9 active torsions:
REMARK  status: ('A' for Active; 'I' for Inactive)
REMARK    1  A    between atoms: N1_2  and  C3_4 
REMARK    2  A    between atoms: C3_4  and  C4_5 
REMARK    3  A    between atoms: C5_6  and  C6_7 
REMARK       I    between atoms: C6_7  and  N2_9 
REMARK    4  A    between atoms: C13_19  and  N5_20 
REMARK    5  A    between atoms: N5_20  and  C14_21 
REMARK    6  A    between atoms: C14_21  and  C15_22 
REMARK    7  A    between atoms: C14_21  and  C16_24 
REMARK    8  A    between atoms: C15_22  and  O2_23 
REMARK    9  A    between atoms: C16_24  and  C17_25 
ROOT
HETATM    1  C6  UNL     1      28.626   5.991  48.163  1.00  0.00     0.243 C 
HETATM    2  O1  UNL     1      28.740   7.209  47.805  1.00  0.00    -0.268 OA
HETATM    3  N2  UNL     1      27.379   5.501  48.583  1.00  0.00    -0.344 N 
HETATM    4  C7  UNL     1      27.152   4.159  49.001  1.00  0.00     0.131 C 
HETATM    5  C8  UNL     1      26.117   4.099  50.130  1.00  0.00     0.060 C 
HETATM    6  C9  UNL     1      24.770   4.394  49.598  1.00  0.00    -0.025 A 
HETATM    7  C10 UNL     1      25.017   5.530  48.851  1.00  0.00     0.010 A 
HETATM    8  S1  UNL     1      23.332   5.914  48.119  1.00  0.00    -0.072 SA
HETATM    9  C11 UNL     1      22.509   4.530  48.888  1.00  0.00     0.114 A 
HETATM   10  N3  UNL     1      21.255   4.113  48.845  1.00  0.00    -0.234 NA
HETATM   11  C12 UNL     1      20.799   3.040  49.492  1.00  0.00     0.236 A 
HETATM   12  N4  UNL     1      21.739   2.430  50.189  1.00  0.00    -0.224 NA
HETATM   13  C13 UNL     1      23.013   2.770  50.291  1.00  0.00     0.139 A 
HETATM   14  C23 UNL     1      23.528   3.859  49.646  1.00  0.00     0.053 A 
HETATM   15  C24 UNL     1      26.207   6.304  48.628  1.00  0.00     0.172 C 
ENDROOT
BRANCH  13  16
HETATM   16  N5  UNL     1      23.758   1.934  51.146  1.00  0.00    -0.367 N 
HETATM   17  H16 UNL     1      24.459   1.231  50.921  1.00  0.00     0.161 HD
BRANCH  16  18
HETATM   18  C14 UNL     1      23.771   1.852  52.566  1.00  0.00     0.111 C 
BRANCH  18  19
HETATM   19  C15 UNL     1      24.612   2.858  53.284  1.00  0.00     0.189 C 
BRANCH  19  20
HETATM   20  O2  UNL     1      24.152   4.160  53.239  1.00  0.00    -0.399 OA
HETATM   21  H20 UNL     1      24.387   4.535  52.358  1.00  0.00     0.209 HD
ENDBRANCH  19  20
ENDBRANCH  18  19
BRANCH  18  22
HETATM   22  C16 UNL     1      24.082   0.498  53.152  1.00  0.00     0.065 C 
BRANCH  22  23
HETATM   23  C17 UNL     1      25.512   0.218  53.310  1.00  0.00    -0.056 A 
HETATM   24  C18 UNL     1      26.379  -0.108  52.295  1.00  0.00     0.007 A 
HETATM   25  C19 UNL     1      27.735  -0.343  52.564  1.00  0.00     0.001 A 
HETATM   26  C20 UNL     1      28.189  -0.240  53.875  1.00  0.00     0.000 A 
HETATM   27  C21 UNL     1      27.330   0.090  54.918  1.00  0.00     0.001 A 
HETATM   28  C22 UNL     1      26.007   0.310  54.600  1.00  0.00     0.007 A 
ENDBRANCH  22  23
ENDBRANCH  18  22
ENDBRANCH  16  18
ENDBRANCH  13  16
BRANCH   1  29
HETATM   29  C5  UNL     1      29.971   5.527  47.977  1.00  0.00     0.072 C 
HETATM   30  C4  UNL     1      30.841   5.999  48.861  1.00  0.00     0.008 C 
BRANCH  30  31
HETATM   31  C3  UNL     1      32.242   5.566  48.732  1.00  0.00     0.299 C 
BRANCH  31  32
HETATM   32  N1  UNL     1      33.135   6.592  48.256  1.00  0.00     0.083 N 
HETATM   33  C1  UNL     1      34.537   6.328  48.567  1.00  0.00     0.309 C 
HETATM   34  C2  UNL     1      32.761   7.894  48.846  1.00  0.00     0.309 C 
ENDBRANCH  31  32
ENDBRANCH  30  31
ENDBRANCH   1  29
TORSDOF 9
ENDMDL
