MODEL 1
REMARK VINA RESULT:      -7.9      0.000      0.000
REMARK  3 active torsions:
REMARK  status: ('A' for Active; 'I' for Inactive)
REMARK    1  A    between atoms: C2_2  and  S1_3 
REMARK    2  A    between atoms: C8_11  and  O2_12 
REMARK    3  A    between atoms: C13_18  and  C14_19 
ROOT
HETATM    1  S1  UNL     1      22.517   0.634  52.833  1.00  0.00    -0.069 SA
HETATM    2  O1  UNL     1      21.498  -0.167  51.841  1.00  0.00    -0.163 OA
HETATM    3  N1  UNL     1      23.826  -0.313  53.462  1.00  0.00    -0.330 N 
HETATM    4  C3  UNL     1      25.152   0.130  53.682  1.00  0.00     0.067 C 
HETATM    5  C4  UNL     1      25.692   1.203  54.331  1.00  0.00     0.007 C 
HETATM    6  C5  UNL     1      26.876   1.982  53.760  1.00  0.00     0.042 C 
HETATM    7  C6  UNL     1      27.136   1.220  52.407  1.00  0.00     0.038 C 
HETATM    8  C7  UNL     1      27.466  -0.167  53.033  1.00  0.00     0.021 C 
HETATM    9  C8  UNL     1      26.210  -0.652  52.949  1.00  0.00     0.091 C 
HETATM   10  C10 UNL     1      25.747   1.009  51.848  1.00  0.00     0.002 C 
HETATM   11  C11 UNL     1      24.689   1.738  51.993  1.00  0.00     0.039 C 
HETATM   12  C12 UNL     1      24.346   2.966  52.644  1.00  0.00     0.096 C 
HETATM   13  N2  UNL     1      24.089   3.958  53.174  1.00  0.00    -0.192 NA
HETATM   14  C13 UNL     1      23.383   1.020  51.602  1.00  0.00     0.141 C 
HETATM   15  H4  UNL     1      22.426   1.959  53.165  1.00  0.00     0.126 HD
HETATM   16  H5  UNL     1      23.839  -1.333  53.766  1.00  0.00     0.174 HD
ENDROOT
BRANCH  14  17
HETATM   17  C14 UNL     1      22.774   1.967  50.631  1.00  0.00    -0.036 A 
HETATM   18  C15 UNL     1      23.286   2.370  49.419  1.00  0.00     0.009 A 
HETATM   19  C16 UNL     1      22.693   3.246  48.538  1.00  0.00     0.002 A 
HETATM   20  C17 UNL     1      21.471   3.785  48.876  1.00  0.00     0.019 A 
HETATM   21  C18 UNL     1      20.852   3.460  50.063  1.00  0.00     0.011 A 
HETATM   22 BR1  UNL     1      19.163   4.171  50.590  1.00  0.00    -0.051 Br
HETATM   23  C19 UNL     1      21.538   2.576  50.865  1.00  0.00     0.027 A 
ENDBRANCH  14  17
BRANCH   1  24
HETATM   24  C2  UNL     1      21.724   0.165  54.102  1.00  0.00     0.034 C 
HETATM   25  C1  UNL     1      21.852  -0.871  54.945  1.00  0.00     0.039 C 
ENDBRANCH   1  24
BRANCH   9  26
HETATM   26  O2  UNL     1      26.738  -1.662  52.165  1.00  0.00    -0.354 OA
HETATM   27  C9  UNL     1      27.755  -2.532  52.656  1.00  0.00     0.210 C 
ENDBRANCH   9  26
TORSDOF 3
ENDMDL
MODEL 2
REMARK VINA RESULT:      -7.1      3.353      6.758
REMARK  3 active torsions:
REMARK  status: ('A' for Active; 'I' for Inactive)
REMARK    1  A    between atoms: C2_2  and  S1_3 
REMARK    2  A    between atoms: C8_11  and  O2_12 
REMARK    3  A    between atoms: C13_18  and  C14_19 
ROOT
HETATM    1  S1  UNL     1      25.402   3.992  50.047  1.00  0.00    -0.069 SA
HETATM    2  O1  UNL     1      26.455   2.919  49.413  1.00  0.00    -0.163 OA
HETATM    3  N1  UNL     1      24.101   4.453  48.998  1.00  0.00    -0.330 N 
HETATM    4  C3  UNL     1      22.762   4.705  49.381  1.00  0.00     0.067 C 
HETATM    5  C4  UNL     1      22.189   5.487  50.342  1.00  0.00     0.007 C 
HETATM    6  C5  UNL     1      20.999   5.006  51.173  1.00  0.00     0.042 C 
HETATM    7  C6  UNL     1      20.780   3.555  50.604  1.00  0.00     0.038 C 
HETATM    8  C7  UNL     1      20.467   3.971  49.137  1.00  0.00     0.021 C 
HETATM    9  C8  UNL     1      21.734   3.847  48.692  1.00  0.00     0.091 C 
HETATM   10  C10 UNL     1      22.183   3.001  50.499  1.00  0.00     0.002 C 
HETATM   11  C11 UNL     1      23.223   3.269  51.220  1.00  0.00     0.039 C 
HETATM   12  C12 UNL     1      23.528   4.095  52.349  1.00  0.00     0.096 C 
HETATM   13  N2  UNL     1      23.755   4.764  53.261  1.00  0.00    -0.192 NA
HETATM   14  C13 UNL     1      24.550   2.809  50.588  1.00  0.00     0.141 C 
HETATM   15  H4  UNL     1      25.459   4.509  51.314  1.00  0.00     0.126 HD
HETATM   16  H5  UNL     1      24.103   4.610  47.945  1.00  0.00     0.174 HD
ENDROOT
BRANCH  14  17
HETATM   17  C14 UNL     1      25.157   1.994  51.673  1.00  0.00    -0.036 A 
HETATM   18  C15 UNL     1      24.633   0.872  52.272  1.00  0.00     0.009 A 
HETATM   19  C16 UNL     1      25.225   0.134  53.273  1.00  0.00     0.002 A 
HETATM   20  C17 UNL     1      26.458   0.536  53.739  1.00  0.00     0.019 A 
HETATM   21  C18 UNL     1      27.089   1.645  53.220  1.00  0.00     0.011 A 
HETATM   22 BR1  UNL     1      28.794   2.253  53.819  1.00  0.00    -0.051 Br
HETATM   23  C19 UNL     1      26.404   2.304  52.224  1.00  0.00     0.027 A 
ENDBRANCH  14  17
BRANCH   1  24
HETATM   24  C2  UNL     1      26.181   5.198  49.419  1.00  0.00     0.034 C 
HETATM   25  C1  UNL     1      27.282   5.296  48.657  1.00  0.00     0.039 C 
ENDBRANCH   1  24
BRANCH   9  26
HETATM   26  O2  UNL     1      21.242   2.917  47.793  1.00  0.00    -0.354 OA
HETATM   27  C9  UNL     1      20.075   3.177  47.017  1.00  0.00     0.210 C 
ENDBRANCH   9  26
TORSDOF 3
ENDMDL
MODEL 3
REMARK VINA RESULT:      -7.0      3.219      3.945
REMARK  3 active torsions:
REMARK  status: ('A' for Active; 'I' for Inactive)
REMARK    1  A    between atoms: C2_2  and  S1_3 
REMARK    2  A    between atoms: C8_11  and  O2_12 
REMARK    3  A    between atoms: C13_18  and  C14_19 
ROOT
HETATM    1  S1  UNL     1      23.014   2.729  49.817  1.00  0.00    -0.069 SA
HETATM    2  O1  UNL     1      23.180   2.518  48.207  1.00  0.00    -0.163 OA
HETATM    3  N1  UNL     1      23.438   1.356  50.786  1.00  0.00    -0.330 N 
HETATM    4  C3  UNL     1      24.085   1.384  52.045  1.00  0.00     0.067 C 
HETATM    5  C4  UNL     1      23.855   2.062  53.207  1.00  0.00     0.007 C 
HETATM    6  C5  UNL     1      24.993   2.664  54.031  1.00  0.00     0.042 C 
HETATM    7  C6  UNL     1      26.250   2.284  53.162  1.00  0.00     0.038 C 
HETATM    8  C7  UNL     1      26.082   0.739  53.252  1.00  0.00     0.021 C 
HETATM    9  C8  UNL     1      25.379   0.616  52.108  1.00  0.00     0.091 C 
HETATM   10  C10 UNL     1      25.806   2.584  51.749  1.00  0.00     0.002 C 
HETATM   11  C11 UNL     1      24.966   3.473  51.327  1.00  0.00     0.039 C 
HETATM   12  C12 UNL     1      24.159   4.505  51.903  1.00  0.00     0.096 C 
HETATM   13  N2  UNL     1      23.517   5.334  52.386  1.00  0.00    -0.192 NA
HETATM   14  C13 UNL     1      24.482   3.234  49.884  1.00  0.00     0.141 C 
HETATM   15  H4  UNL     1      22.606   3.884  50.429  1.00  0.00     0.126 HD
HETATM   16  H5  UNL     1      23.287   0.319  50.595  1.00  0.00     0.174 HD
ENDROOT
BRANCH  14  17
HETATM   17  C14 UNL     1      24.768   4.538  49.229  1.00  0.00    -0.036 A 
HETATM   18  C15 UNL     1      23.860   5.457  48.758  1.00  0.00     0.009 A 
HETATM   19  C16 UNL     1      24.158   6.661  48.160  1.00  0.00     0.002 A 
HETATM   20  C17 UNL     1      25.484   7.002  48.006  1.00  0.00     0.019 A 
HETATM   21  C18 UNL     1      26.490   6.166  48.436  1.00  0.00     0.011 A 
HETATM   22 BR1  UNL     1      28.343   6.579  48.252  1.00  0.00    -0.051 Br
HETATM   23  C19 UNL     1      26.074   4.990  49.019  1.00  0.00     0.027 A 
ENDBRANCH  14  17
BRANCH   1  24
HETATM   24  C2  UNL     1      21.569   2.120  49.795  1.00  0.00     0.034 C 
HETATM   25  C1  UNL     1      20.975   1.168  49.057  1.00  0.00     0.039 C 
ENDBRANCH   1  24
BRANCH   9  26
HETATM   26  O2  UNL     1      26.389  -0.221  51.671  1.00  0.00    -0.354 OA
HETATM   27  C9  UNL     1      26.792  -1.361  52.427  1.00  0.00     0.210 C 
ENDBRANCH   9  26
TORSDOF 3
ENDMDL
MODEL 4
REMARK VINA RESULT:      -7.0      3.559      6.279
REMARK  3 active torsions:
REMARK  status: ('A' for Active; 'I' for Inactive)
REMARK    1  A    between atoms: C2_2  and  S1_3 
REMARK    2  A    between atoms: C8_11  and  O2_12 
REMARK    3  A    between atoms: C13_18  and  C14_19 
ROOT
HETATM    1  S1  UNL     1      20.258   3.109  51.491  1.00  0.00    -0.069 SA
HETATM    2  O1  UNL     1      20.134   3.220  53.115  1.00  0.00    -0.163 OA
HETATM    3  N1  UNL     1      20.683   4.583  50.684  1.00  0.00    -0.330 N 
HETATM    4  C3  UNL     1      21.527   4.709  49.555  1.00  0.00     0.067 C 
HETATM    5  C4  UNL     1      21.567   4.096  48.335  1.00  0.00     0.007 C 
HETATM    6  C5  UNL     1      22.884   3.670  47.687  1.00  0.00     0.042 C 
HETATM    7  C6  UNL     1      23.931   4.109  48.776  1.00  0.00     0.038 C 
HETATM    8  C7  UNL     1      23.613   5.632  48.742  1.00  0.00     0.021 C 
HETATM    9  C8  UNL     1      22.722   5.604  49.755  1.00  0.00     0.091 C 
HETATM   10  C10 UNL     1      23.297   3.667  50.075  1.00  0.00     0.002 C 
HETATM   11  C11 UNL     1      22.501   2.671  50.299  1.00  0.00     0.039 C 
HETATM   12  C12 UNL     1      21.918   1.608  49.538  1.00  0.00     0.096 C 
HETATM   13  N2  UNL     1      21.459   0.756  48.910  1.00  0.00    -0.192 NA
HETATM   14  C13 UNL     1      21.764   2.758  51.648  1.00  0.00     0.141 C 
HETATM   15  H4  UNL     1      20.085   1.966  50.757  1.00  0.00     0.126 HD
HETATM   16  H5  UNL     1      20.390   5.584  50.902  1.00  0.00     0.174 HD
ENDROOT
BRANCH  14  17
HETATM   17  C14 UNL     1      22.080   1.445  52.272  1.00  0.00    -0.036 A 
HETATM   18  C15 UNL     1      21.209   0.418  52.551  1.00  0.00     0.009 A 
HETATM   19  C16 UNL     1      21.534  -0.790  53.125  1.00  0.00     0.002 A 
HETATM   20  C17 UNL     1      22.851  -1.019  53.462  1.00  0.00     0.019 A 
HETATM   21  C18 UNL     1      23.821  -0.069  53.232  1.00  0.00     0.011 A 
HETATM   22 BR1  UNL     1      25.658  -0.323  53.675  1.00  0.00    -0.051 Br
HETATM   23  C19 UNL     1      23.380   1.100  52.655  1.00  0.00     0.027 A 
ENDBRANCH  14  17
BRANCH   1  24
HETATM   24  C2  UNL     1      18.772   3.569  51.299  1.00  0.00     0.034 C 
HETATM   25  C1  UNL     1      17.584   2.996  51.547  1.00  0.00     0.039 C 
ENDBRANCH   1  24
BRANCH   9  26
HETATM   26  O2  UNL     1      23.550   6.503  50.402  1.00  0.00    -0.354 OA
HETATM   27  C9  UNL     1      23.197   7.878  50.534  1.00  0.00     0.210 C 
ENDBRANCH   9  26
TORSDOF 3
ENDMDL
MODEL 5
REMARK VINA RESULT:      -6.9     10.296     12.280
REMARK  3 active torsions:
REMARK  status: ('A' for Active; 'I' for Inactive)
REMARK    1  A    between atoms: C2_2  and  S1_3 
REMARK    2  A    between atoms: C8_11  and  O2_12 
REMARK    3  A    between atoms: C13_18  and  C14_19 
ROOT
HETATM    1  S1  UNL     1      30.326   6.539  47.984  1.00  0.00    -0.069 SA
HETATM    2  O1  UNL     1      30.420   5.774  49.423  1.00  0.00    -0.163 OA
HETATM    3  N1  UNL     1      29.748   8.172  48.057  1.00  0.00    -0.330 N 
HETATM    4  C3  UNL     1      30.197   9.258  47.267  1.00  0.00     0.067 C 
HETATM    5  C4  UNL     1      30.370   9.438  45.925  1.00  0.00     0.007 C 
HETATM    6  C5  UNL     1      31.585  10.171  45.356  1.00  0.00     0.042 C 
HETATM    7  C6  UNL     1      32.383  10.525  46.666  1.00  0.00     0.038 C 
HETATM    8  C7  UNL     1      31.289  11.419  47.319  1.00  0.00     0.021 C 
HETATM    9  C8  UNL     1      30.730  10.431  48.048  1.00  0.00     0.091 C 
HETATM   10  C10 UNL     1      32.305   9.255  47.482  1.00  0.00     0.002 C 
HETATM   11  C11 UNL     1      32.224   8.029  47.079  1.00  0.00     0.039 C 
HETATM   12  C12 UNL     1      32.200   7.340  45.824  1.00  0.00     0.096 C 
HETATM   13  N2  UNL     1      32.184   6.802  44.803  1.00  0.00    -0.192 NA
HETATM   14  C13 UNL     1      31.783   7.043  48.177  1.00  0.00     0.141 C 
HETATM   15  H4  UNL     1      30.687   6.007  46.775  1.00  0.00     0.126 HD
HETATM   16  H5  UNL     1      28.998   8.599  48.681  1.00  0.00     0.174 HD
ENDROOT
BRANCH  14  17
HETATM   17  C14 UNL     1      32.855   6.013  48.133  1.00  0.00    -0.036 A 
HETATM   18  C15 UNL     1      34.180   6.166  48.468  1.00  0.00     0.009 A 
HETATM   19  C16 UNL     1      35.148   5.188  48.422  1.00  0.00     0.002 A 
HETATM   20  C17 UNL     1      34.783   3.927  48.004  1.00  0.00     0.019 A 
HETATM   21  C18 UNL     1      33.484   3.645  47.641  1.00  0.00     0.011 A 
HETATM   22 BR1  UNL     1      32.914   1.923  47.054  1.00  0.00    -0.051 Br
HETATM   23  C19 UNL     1      32.603   4.699  47.727  1.00  0.00     0.027 A 
ENDBRANCH  14  17
BRANCH   1  24
HETATM   24  C2  UNL     1      28.819   6.138  47.817  1.00  0.00     0.034 C 
HETATM   25  C1  UNL     1      28.000   5.310  48.484  1.00  0.00     0.039 C 
ENDBRANCH   1  24
BRANCH   9  26
HETATM   26  O2  UNL     1      31.027  11.193  49.163  1.00  0.00    -0.354 OA
HETATM   27  C9  UNL     1      30.626  12.558  49.261  1.00  0.00     0.210 C 
ENDBRANCH   9  26
TORSDOF 3
ENDMDL
MODEL 6
REMARK VINA RESULT:      -6.7      9.628     11.086
REMARK  3 active torsions:
REMARK  status: ('A' for Active; 'I' for Inactive)
REMARK    1  A    between atoms: C2_2  and  S1_3 
REMARK    2  A    between atoms: C8_11  and  O2_12 
REMARK    3  A    between atoms: C13_18  and  C14_19 
ROOT
HETATM    1  S1  UNL     1      30.883   9.357  48.166  1.00  0.00    -0.069 SA
HETATM    2  O1  UNL     1      30.227   9.537  49.650  1.00  0.00    -0.163 OA
HETATM    3  N1  UNL     1      32.535   8.830  48.151  1.00  0.00    -0.330 N 
HETATM    4  C3  UNL     1      33.124   7.939  47.222  1.00  0.00     0.067 C 
HETATM    5  C4  UNL     1      33.153   7.884  45.858  1.00  0.00     0.007 C 
HETATM    6  C5  UNL     1      33.001   6.566  45.099  1.00  0.00     0.042 C 
HETATM    7  C6  UNL     1      32.812   5.540  46.277  1.00  0.00     0.038 C 
HETATM    8  C7  UNL     1      34.190   5.781  46.960  1.00  0.00     0.021 C 
HETATM    9  C8  UNL     1      33.745   6.710  47.831  1.00  0.00     0.091 C 
HETATM   10  C10 UNL     1      31.853   6.244  47.209  1.00  0.00     0.002 C 
HETATM   11  C11 UNL     1      30.920   7.095  46.930  1.00  0.00     0.039 C 
HETATM   12  C12 UNL     1      30.375   7.701  45.753  1.00  0.00     0.096 C 
HETATM   13  N2  UNL     1      29.947   8.178  44.793  1.00  0.00    -0.192 NA
HETATM   14  C13 UNL     1      30.408   7.877  48.155  1.00  0.00     0.141 C 
HETATM   15  H4  UNL     1      30.231   9.558  46.979  1.00  0.00     0.126 HD
HETATM   16  H5  UNL     1      33.332   9.081  48.811  1.00  0.00     0.174 HD
ENDROOT
BRANCH  14  17
HETATM   17  C14 UNL     1      28.940   7.650  48.090  1.00  0.00    -0.036 A 
HETATM   18  C15 UNL     1      27.979   8.509  47.608  1.00  0.00     0.009 A 
HETATM   19  C16 UNL     1      26.625   8.266  47.558  1.00  0.00     0.002 A 
HETATM   20  C17 UNL     1      26.160   7.056  48.027  1.00  0.00     0.019 A 
HETATM   21  C18 UNL     1      27.022   6.110  48.535  1.00  0.00     0.011 A 
HETATM   22 BR1  UNL     1      26.445   4.419  49.201  1.00  0.00    -0.051 Br
HETATM   23  C19 UNL     1      28.353   6.462  48.537  1.00  0.00     0.027 A 
ENDBRANCH  14  17
BRANCH   1  24
HETATM   24  C2  UNL     1      31.470  10.810  48.198  1.00  0.00     0.034 C 
HETATM   25  C1  UNL     1      32.330  11.481  47.416  1.00  0.00     0.039 C 
ENDBRANCH   1  24
BRANCH   9  26
HETATM   26  O2  UNL     1      34.183   5.864  48.834  1.00  0.00    -0.354 OA
HETATM   27  C9  UNL     1      35.571   5.683  49.103  1.00  0.00     0.210 C 
ENDBRANCH   9  26
TORSDOF 3
ENDMDL
MODEL 7
REMARK VINA RESULT:      -6.5      8.885     10.389
REMARK  3 active torsions:
REMARK  status: ('A' for Active; 'I' for Inactive)
REMARK    1  A    between atoms: C2_2  and  S1_3 
REMARK    2  A    between atoms: C8_11  and  O2_12 
REMARK    3  A    between atoms: C13_18  and  C14_19 
ROOT
HETATM    1  S1  UNL     1      28.234   9.838  48.592  1.00  0.00    -0.069 SA
HETATM    2  O1  UNL     1      27.703   9.702  50.130  1.00  0.00    -0.163 OA
HETATM    3  N1  UNL     1      29.947  10.042  48.421  1.00  0.00    -0.330 N 
HETATM    4  C3  UNL     1      30.761   9.493  47.402  1.00  0.00     0.067 C 
HETATM    5  C4  UNL     1      30.684   9.481  46.039  1.00  0.00     0.007 C 
HETATM    6  C5  UNL     1      31.017   8.234  45.221  1.00  0.00     0.042 C 
HETATM    7  C6  UNL     1      31.376   7.199  46.351  1.00  0.00     0.038 C 
HETATM    8  C7  UNL     1      32.591   7.976  46.939  1.00  0.00     0.021 C 
HETATM    9  C8  UNL     1      31.886   8.620  47.892  1.00  0.00     0.091 C 
HETATM   10  C10 UNL     1      30.303   7.425  47.392  1.00  0.00     0.002 C 
HETATM   11  C11 UNL     1      29.081   7.819  47.233  1.00  0.00     0.039 C 
HETATM   12  C12 UNL     1      28.229   8.167  46.137  1.00  0.00     0.096 C 
HETATM   13  N2  UNL     1      27.556   8.443  45.241  1.00  0.00    -0.192 NA
HETATM   14  C13 UNL     1      28.410   8.295  48.535  1.00  0.00     0.141 C 
HETATM   15  H4  UNL     1      27.450   9.774  47.472  1.00  0.00     0.126 HD
HETATM   16  H5  UNL     1      30.629  10.588  49.032  1.00  0.00     0.174 HD
ENDROOT
BRANCH  14  17
HETATM   17  C14 UNL     1      27.165   7.482  48.570  1.00  0.00    -0.036 A 
HETATM   18  C15 UNL     1      25.889   7.888  48.257  1.00  0.00     0.009 A 
HETATM   19  C16 UNL     1      24.756   7.107  48.295  1.00  0.00     0.002 A 
HETATM   20  C17 UNL     1      24.882   5.790  48.680  1.00  0.00     0.019 A 
HETATM   21  C18 UNL     1      26.108   5.262  49.020  1.00  0.00     0.011 A 
HETATM   22 BR1  UNL     1      26.352   3.451  49.562  1.00  0.00    -0.051 Br
HETATM   23  C19 UNL     1      27.170   6.135  48.945  1.00  0.00     0.027 A 
ENDBRANCH  14  17
BRANCH   1  24
HETATM   24  C2  UNL     1      28.173  11.403  48.661  1.00  0.00     0.034 C 
HETATM   25  C1  UNL     1      27.290  12.317  48.227  1.00  0.00     0.039 C 
ENDBRANCH   1  24
BRANCH   9  26
HETATM   26  O2  UNL     1      32.724   8.012  48.810  1.00  0.00    -0.354 OA
HETATM   27  C9  UNL     1      34.115   7.842  48.550  1.00  0.00     0.210 C 
ENDBRANCH   9  26
TORSDOF 3
ENDMDL
MODEL 8
REMARK VINA RESULT:      -6.5      4.617      6.453
REMARK  3 active torsions:
REMARK  status: ('A' for Active; 'I' for Inactive)
REMARK    1  A    between atoms: C2_2  and  S1_3 
REMARK    2  A    between atoms: C8_11  and  O2_12 
REMARK    3  A    between atoms: C13_18  and  C14_19 
ROOT
HETATM    1  S1  UNL     1      25.042   6.771  49.664  1.00  0.00    -0.069 SA
HETATM    2  O1  UNL     1      25.243   8.103  50.586  1.00  0.00    -0.163 OA
HETATM    3  N1  UNL     1      25.576   5.289  50.388  1.00  0.00    -0.330 N 
HETATM    4  C3  UNL     1      24.956   4.023  50.265  1.00  0.00     0.067 C 
HETATM    5  C4  UNL     1      24.529   3.282  49.200  1.00  0.00     0.007 C 
HETATM    6  C5  UNL     1      23.208   2.513  49.228  1.00  0.00     0.042 C 
HETATM    7  C6  UNL     1      22.661   2.872  50.659  1.00  0.00     0.038 C 
HETATM    8  C7  UNL     1      23.833   2.249  51.472  1.00  0.00     0.021 C 
HETATM    9  C8  UNL     1      24.548   3.389  51.569  1.00  0.00     0.091 C 
HETATM   10  C10 UNL     1      22.927   4.355  50.778  1.00  0.00     0.002 C 
HETATM   11  C11 UNL     1      22.965   5.256  49.850  1.00  0.00     0.039 C 
HETATM   12  C12 UNL     1      22.772   5.304  48.433  1.00  0.00     0.096 C 
HETATM   13  N2  UNL     1      22.611   5.325  47.290  1.00  0.00    -0.192 NA
HETATM   14  C13 UNL     1      23.633   6.572  50.290  1.00  0.00     0.141 C 
HETATM   15  H4  UNL     1      24.474   6.744  48.418  1.00  0.00     0.126 HD
HETATM   16  H5  UNL     1      26.418   5.105  51.014  1.00  0.00     0.174 HD
ENDROOT
BRANCH  14  17
HETATM   17  C14 UNL     1      22.602   7.586  49.945  1.00  0.00    -0.036 A 
HETATM   18  C15 UNL     1      21.322   7.682  50.438  1.00  0.00     0.009 A 
HETATM   19  C16 UNL     1      20.391   8.639  50.101  1.00  0.00     0.002 A 
HETATM   20  C17 UNL     1      20.750   9.605  49.186  1.00  0.00     0.019 A 
HETATM   21  C18 UNL     1      22.005   9.619  48.619  1.00  0.00     0.011 A 
HETATM   22 BR1  UNL     1      22.564  10.926  47.348  1.00  0.00    -0.051 Br
HETATM   23  C19 UNL     1      22.851   8.614  49.030  1.00  0.00     0.027 A 
ENDBRANCH  14  17
BRANCH   1  24
HETATM   24  C2  UNL     1      26.500   6.885  49.100  1.00  0.00     0.034 C 
HETATM   25  C1  UNL     1      27.314   6.035  48.453  1.00  0.00     0.039 C 
ENDBRANCH   1  24
BRANCH   9  26
HETATM   26  O2  UNL     1      24.445   3.243  52.940  1.00  0.00    -0.354 OA
HETATM   27  C9  UNL     1      25.295   2.353  53.661  1.00  0.00     0.210 C 
ENDBRANCH   9  26
TORSDOF 3
ENDMDL
MODEL 9
REMARK VINA RESULT:      -6.4      4.082      5.950
REMARK  3 active torsions:
REMARK  status: ('A' for Active; 'I' for Inactive)
REMARK    1  A    between atoms: C2_2  and  S1_3 
REMARK    2  A    between atoms: C8_11  and  O2_12 
REMARK    3  A    between atoms: C13_18  and  C14_19 
ROOT
HETATM    1  S1  UNL     1      23.437   4.055  50.686  1.00  0.00    -0.069 SA
HETATM    2  O1  UNL     1      23.585   2.486  50.261  1.00  0.00    -0.163 OA
HETATM    3  N1  UNL     1      24.927   4.937  50.773  1.00  0.00    -0.330 N 
HETATM    4  C3  UNL     1      25.128   6.286  50.393  1.00  0.00     0.067 C 
HETATM    5  C4  UNL     1      24.485   7.454  50.689  1.00  0.00     0.007 C 
HETATM    6  C5  UNL     1      24.220   8.522  49.629  1.00  0.00     0.042 C 
HETATM    7  C6  UNL     1      24.833   7.852  48.343  1.00  0.00     0.038 C 
HETATM    8  C7  UNL     1      26.297   7.752  48.862  1.00  0.00     0.021 C 
HETATM    9  C8  UNL     1      26.183   6.496  49.339  1.00  0.00     0.091 C 
HETATM   10  C10 UNL     1      24.353   6.421  48.426  1.00  0.00     0.002 C 
HETATM   11  C11 UNL     1      23.268   5.953  48.950  1.00  0.00     0.039 C 
HETATM   12  C12 UNL     1      22.110   6.482  49.605  1.00  0.00     0.096 C 
HETATM   13  N2  UNL     1      21.183   6.927  50.129  1.00  0.00    -0.192 NA
HETATM   14  C13 UNL     1      23.299   4.431  49.184  1.00  0.00     0.141 C 
HETATM   15  H4  UNL     1      22.257   4.702  50.940  1.00  0.00     0.126 HD
HETATM   16  H5  UNL     1      25.886   4.617  51.110  1.00  0.00     0.174 HD
ENDROOT
BRANCH  14  17
HETATM   17  C14 UNL     1      22.063   3.974  48.495  1.00  0.00    -0.036 A 
HETATM   18  C15 UNL     1      20.947   3.406  49.064  1.00  0.00     0.009 A 
HETATM   19  C16 UNL     1      19.814   2.998  48.397  1.00  0.00     0.002 A 
HETATM   20  C17 UNL     1      19.766   3.162  47.030  1.00  0.00     0.019 A 
HETATM   21  C18 UNL     1      20.821   3.719  46.341  1.00  0.00     0.011 A 
HETATM   22 BR1  UNL     1      20.819   3.973  44.452  1.00  0.00    -0.051 Br
HETATM   23  C19 UNL     1      21.900   4.089  47.111  1.00  0.00     0.027 A 
ENDBRANCH  14  17
BRANCH   1  24
HETATM   24  C2  UNL     1      23.685   3.717  52.197  1.00  0.00     0.034 C 
HETATM   25  C1  UNL     1      24.519   2.881  52.835  1.00  0.00     0.039 C 
ENDBRANCH   1  24
BRANCH   9  26
HETATM   26  O2  UNL     1      27.207   6.159  48.473  1.00  0.00    -0.354 OA
HETATM   27  C9  UNL     1      27.892   4.912  48.578  1.00  0.00     0.210 C 
ENDBRANCH   9  26
TORSDOF 3
ENDMDL
