MODEL 1
REMARK VINA RESULT:      -7.3      0.000      0.000
REMARK  3 active torsions:
REMARK  status: ('A' for Active; 'I' for Inactive)
REMARK    1  A    between atoms: O1_2  and  C2_3 
REMARK    2  A    between atoms: C2_3  and  C3_4 
REMARK       I    between atoms: C3_4  and  N1_6 
REMARK    3  A    between atoms: N1_6  and  C4_7 
ROOT
HETATM    1  C4  UNL     1      31.510   7.903  49.147  1.00  0.00     0.017 C 
HETATM    2  C5  UNL     1      32.789   7.717  48.979  1.00  0.00     0.027 C 
HETATM    3  C6  UNL     1      33.707   6.542  48.840  1.00  0.00     0.029 C 
HETATM    4  C7  UNL     1      35.011   6.768  48.572  1.00  0.00     0.036 C 
HETATM    5  C8  UNL     1      35.336   5.285  48.561  1.00  0.00     0.084 C 
HETATM    6  C9  UNL     1      34.562   4.662  47.406  1.00  0.00     0.094 C 
HETATM    7  C10 UNL     1      34.038   3.343  47.789  1.00  0.00     0.059 C 
HETATM    8  C11 UNL     1      32.978   2.845  46.859  1.00  0.00    -0.084 C 
HETATM    9  C12 UNL     1      32.557   1.433  47.107  1.00  0.00     0.043 C 
HETATM   10  C13 UNL     1      32.456   3.602  45.892  1.00  0.00    -0.005 C 
HETATM   11  C14 UNL     1      32.911   5.021  45.679  1.00  0.00     0.150 C 
HETATM   12  N2  UNL     1      33.458   5.556  46.927  1.00  0.00    -0.375 N 
HETATM   13  C15 UNL     1      32.663   6.797  47.222  1.00  0.00     0.014 C 
HETATM   14  C16 UNL     1      33.117   8.034  46.744  1.00  0.00     0.044 C 
HETATM   15  C17 UNL     1      34.361   8.729  47.369  1.00  0.00     0.119 C 
HETATM   16  N3  UNL     1      35.160   8.247  48.426  1.00  0.00    -0.265 NA
HETATM   17  C18 UNL     1      31.370   6.823  48.079  1.00  0.00     0.114 C 
ENDROOT
BRANCH   1  18
HETATM   18  N1  UNL     1      30.162   8.217  49.330  1.00  0.00    -0.329 N 
HETATM   19  C3  UNL     1      29.804   9.585  49.042  1.00  0.00     0.245 C 
HETATM   20  O2  UNL     1      30.845  10.203  48.675  1.00  0.00    -0.271 OA
HETATM   21  H6  UNL     1      29.494   7.467  49.655  1.00  0.00     0.168 HD
BRANCH  19  22
HETATM   22  C2  UNL     1      28.374   9.946  49.230  1.00  0.00     0.270 C 
BRANCH  22  23
HETATM   23  O1  UNL     1      27.883   9.215  50.289  1.00  0.00    -0.387 OA
HETATM   24  C1  UNL     1      26.546   8.825  50.078  1.00  0.00     0.202 C 
ENDBRANCH  22  23
ENDBRANCH  19  22
ENDBRANCH   1  18
TORSDOF 3
ENDMDL
MODEL 2
REMARK VINA RESULT:      -7.3      8.054     11.053
REMARK  3 active torsions:
REMARK  status: ('A' for Active; 'I' for Inactive)
REMARK    1  A    between atoms: O1_2  and  C2_3 
REMARK    2  A    between atoms: C2_3  and  C3_4 
REMARK       I    between atoms: C3_4  and  N1_6 
REMARK    3  A    between atoms: N1_6  and  C4_7 
ROOT
HETATM    1  C4  UNL     1      25.372   1.579  52.729  1.00  0.00     0.017 C 
HETATM    2  C5  UNL     1      24.210   2.164  52.657  1.00  0.00     0.027 C 
HETATM    3  C6  UNL     1      23.706   3.562  52.482  1.00  0.00     0.029 C 
HETATM    4  C7  UNL     1      22.376   3.761  52.354  1.00  0.00     0.036 C 
HETATM    5  C8  UNL     1      22.544   5.264  52.223  1.00  0.00     0.084 C 
HETATM    6  C9  UNL     1      23.337   5.521  50.948  1.00  0.00     0.094 C 
HETATM    7  C10 UNL     1      24.296   6.616  51.150  1.00  0.00     0.059 C 
HETATM    8  C11 UNL     1      25.344   6.676  50.085  1.00  0.00    -0.084 C 
HETATM    9  C12 UNL     1      26.220   7.885  50.153  1.00  0.00     0.043 C 
HETATM   10  C13 UNL     1      25.481   5.727  49.157  1.00  0.00    -0.005 C 
HETATM   11  C14 UNL     1      24.575   4.526  49.127  1.00  0.00     0.150 C 
HETATM   12  N2  UNL     1      24.034   4.284  50.466  1.00  0.00    -0.375 N 
HETATM   13  C15 UNL     1      24.419   2.873  50.813  1.00  0.00     0.014 C 
HETATM   14  C16 UNL     1      23.541   1.825  50.502  1.00  0.00     0.044 C 
HETATM   15  C17 UNL     1      22.222   1.620  51.301  1.00  0.00     0.119 C 
HETATM   16  N3  UNL     1      21.747   2.406  52.370  1.00  0.00    -0.265 NA
HETATM   17  C18 UNL     1      25.726   2.481  51.551  1.00  0.00     0.114 C 
ENDROOT
BRANCH   1  18
HETATM   18  N1  UNL     1      26.561   0.853  52.824  1.00  0.00    -0.329 N 
HETATM   19  C3  UNL     1      27.192   0.873  54.121  1.00  0.00     0.245 C 
HETATM   20  O2  UNL     1      26.487   1.577  54.901  1.00  0.00    -0.271 OA
HETATM   21  H6  UNL     1      26.925   0.340  51.976  1.00  0.00     0.168 HD
BRANCH  19  22
HETATM   22  C2  UNL     1      28.461   0.106  54.249  1.00  0.00     0.270 C 
BRANCH  22  23
HETATM   23  O1  UNL     1      28.242  -1.167  53.771  1.00  0.00    -0.387 OA
HETATM   24  C1  UNL     1      29.440  -1.782  53.362  1.00  0.00     0.202 C 
ENDBRANCH  22  23
ENDBRANCH  19  22
ENDBRANCH   1  18
TORSDOF 3
ENDMDL
MODEL 3
REMARK VINA RESULT:      -7.3      8.962     11.748
REMARK  3 active torsions:
REMARK  status: ('A' for Active; 'I' for Inactive)
REMARK    1  A    between atoms: O1_2  and  C2_3 
REMARK    2  A    between atoms: C2_3  and  C3_4 
REMARK       I    between atoms: C3_4  and  N1_6 
REMARK    3  A    between atoms: N1_6  and  C4_7 
ROOT
HETATM    1  C4  UNL     1      25.527   2.342  52.261  1.00  0.00     0.017 C 
HETATM    2  C5  UNL     1      25.004   2.807  51.162  1.00  0.00     0.027 C 
HETATM    3  C6  UNL     1      23.818   2.494  50.304  1.00  0.00     0.029 C 
HETATM    4  C7  UNL     1      23.546   3.298  49.254  1.00  0.00     0.036 C 
HETATM    5  C8  UNL     1      22.328   2.484  48.858  1.00  0.00     0.084 C 
HETATM    6  C9  UNL     1      21.323   2.588  49.998  1.00  0.00     0.094 C 
HETATM    7  C10 UNL     1      20.654   1.297  50.215  1.00  0.00     0.059 C 
HETATM    8  C11 UNL     1      19.943   1.224  51.528  1.00  0.00    -0.084 C 
HETATM    9  C12 UNL     1      19.098   0.003  51.701  1.00  0.00     0.043 C 
HETATM   10  C13 UNL     1      20.057   2.170  52.462  1.00  0.00    -0.005 C 
HETATM   11  C14 UNL     1      20.921   3.383  52.244  1.00  0.00     0.150 C 
HETATM   12  N2  UNL     1      21.963   3.075  51.262  1.00  0.00    -0.375 N 
HETATM   13  C15 UNL     1      23.268   3.371  51.948  1.00  0.00     0.014 C 
HETATM   14  C16 UNL     1      23.834   4.649  51.829  1.00  0.00     0.044 C 
HETATM   15  C17 UNL     1      24.473   5.122  50.492  1.00  0.00     0.119 C 
HETATM   16  N3  UNL     1      24.563   4.392  49.289  1.00  0.00    -0.265 NA
HETATM   17  C18 UNL     1      24.085   2.330  52.758  1.00  0.00     0.114 C 
ENDROOT
BRANCH   1  18
HETATM   18  N1  UNL     1      26.172   1.921  53.425  1.00  0.00    -0.329 N 
HETATM   19  C3  UNL     1      26.890   0.675  53.315  1.00  0.00     0.245 C 
HETATM   20  O2  UNL     1      26.759   0.239  52.135  1.00  0.00    -0.271 OA
HETATM   21  H6  UNL     1      26.109   2.514  54.297  1.00  0.00     0.168 HD
BRANCH  19  22
HETATM   22  C2  UNL     1      27.587   0.204  54.542  1.00  0.00     0.270 C 
BRANCH  22  23
HETATM   23  O1  UNL     1      28.299  -0.931  54.222  1.00  0.00    -0.387 OA
HETATM   24  C1  UNL     1      29.630  -0.631  53.875  1.00  0.00     0.202 C 
ENDBRANCH  22  23
ENDBRANCH  19  22
ENDBRANCH   1  18
TORSDOF 3
ENDMDL
MODEL 4
REMARK VINA RESULT:      -7.2      7.326      9.721
REMARK  3 active torsions:
REMARK  status: ('A' for Active; 'I' for Inactive)
REMARK    1  A    between atoms: O1_2  and  C2_3 
REMARK    2  A    between atoms: C2_3  and  C3_4 
REMARK       I    between atoms: C3_4  and  N1_6 
REMARK    3  A    between atoms: N1_6  and  C4_7 
ROOT
HETATM    1  C4  UNL     1      25.565   3.052  50.276  1.00  0.00     0.017 C 
HETATM    2  C5  UNL     1      24.774   2.420  51.097  1.00  0.00     0.027 C 
HETATM    3  C6  UNL     1      24.750   1.083  51.770  1.00  0.00     0.029 C 
HETATM    4  C7  UNL     1      23.770   0.824  52.663  1.00  0.00     0.036 C 
HETATM    5  C8  UNL     1      24.295  -0.573  52.938  1.00  0.00     0.084 C 
HETATM    6  C9  UNL     1      25.678  -0.422  53.559  1.00  0.00     0.094 C 
HETATM    7  C10 UNL     1      26.589  -1.455  53.046  1.00  0.00     0.059 C 
HETATM    8  C11 UNL     1      28.028  -1.150  53.318  1.00  0.00    -0.084 C 
HETATM    9  C12 UNL     1      28.966  -2.262  52.980  1.00  0.00     0.043 C 
HETATM   10  C13 UNL     1      28.432   0.018  53.820  1.00  0.00    -0.005 C 
HETATM   11  C14 UNL     1      27.451   1.112  54.146  1.00  0.00     0.150 C 
HETATM   12  N2  UNL     1      26.244   0.948  53.333  1.00  0.00    -0.375 N 
HETATM   13  C15 UNL     1      26.076   2.242  52.587  1.00  0.00     0.014 C 
HETATM   14  C16 UNL     1      25.299   3.265  53.150  1.00  0.00     0.044 C 
HETATM   15  C17 UNL     1      23.749   3.149  53.220  1.00  0.00     0.119 C 
HETATM   16  N3  UNL     1      22.958   2.074  52.767  1.00  0.00    -0.265 NA
HETATM   17  C18 UNL     1      26.672   2.524  51.183  1.00  0.00     0.114 C 
ENDROOT
BRANCH   1  18
HETATM   18  N1  UNL     1      26.335   3.816  49.398  1.00  0.00    -0.329 N 
HETATM   19  C3  UNL     1      26.098   5.239  49.451  1.00  0.00     0.245 C 
HETATM   20  O2  UNL     1      25.209   5.466  50.321  1.00  0.00    -0.271 OA
HETATM   21  H6  UNL     1      27.029   3.336  48.764  1.00  0.00     0.168 HD
BRANCH  19  22
HETATM   22  C2  UNL     1      26.907   6.076  48.525  1.00  0.00     0.270 C 
BRANCH  22  23
HETATM   23  O1  UNL     1      28.088   5.416  48.270  1.00  0.00    -0.387 OA
HETATM   24  C1  UNL     1      29.154   6.314  48.072  1.00  0.00     0.202 C 
ENDBRANCH  22  23
ENDBRANCH  19  22
ENDBRANCH   1  18
TORSDOF 3
ENDMDL
MODEL 5
REMARK VINA RESULT:      -7.1     10.166     12.722
REMARK  3 active torsions:
REMARK  status: ('A' for Active; 'I' for Inactive)
REMARK    1  A    between atoms: O1_2  and  C2_3 
REMARK    2  A    between atoms: C2_3  and  C3_4 
REMARK       I    between atoms: C3_4  and  N1_6 
REMARK    3  A    between atoms: N1_6  and  C4_7 
ROOT
HETATM    1  C4  UNL     1      23.921   1.515  52.817  1.00  0.00     0.017 C 
HETATM    2  C5  UNL     1      22.650   1.801  52.807  1.00  0.00     0.027 C 
HETATM    3  C6  UNL     1      21.763   2.788  52.114  1.00  0.00     0.029 C 
HETATM    4  C7  UNL     1      20.428   2.703  52.299  1.00  0.00     0.036 C 
HETATM    5  C8  UNL     1      20.158   3.891  51.393  1.00  0.00     0.084 C 
HETATM    6  C9  UNL     1      20.617   3.505  49.993  1.00  0.00     0.094 C 
HETATM    7  C10 UNL     1      21.264   4.647  49.330  1.00  0.00     0.059 C 
HETATM    8  C11 UNL     1      22.055   4.249  48.125  1.00  0.00    -0.084 C 
HETATM    9  C12 UNL     1      22.570   5.398  47.321  1.00  0.00     0.043 C 
HETATM   10  C13 UNL     1      22.279   2.974  47.801  1.00  0.00    -0.005 C 
HETATM   11  C14 UNL     1      21.742   1.847  48.642  1.00  0.00     0.150 C 
HETATM   12  N2  UNL     1      21.528   2.315  50.013  1.00  0.00    -0.375 N 
HETATM   13  C15 UNL     1      22.335   1.395  50.887  1.00  0.00     0.014 C 
HETATM   14  C16 UNL     1      21.733   0.244  51.414  1.00  0.00     0.044 C 
HETATM   15  C17 UNL     1      20.678   0.339  52.553  1.00  0.00     0.119 C 
HETATM   16  N3  UNL     1      20.202   1.513  53.173  1.00  0.00    -0.265 NA
HETATM   17  C18 UNL     1      23.806   1.654  51.303  1.00  0.00     0.114 C 
ENDROOT
BRANCH   1  18
HETATM   18  N1  UNL     1      25.259   1.128  52.909  1.00  0.00    -0.329 N 
HETATM   19  C3  UNL     1      25.480  -0.209  53.404  1.00  0.00     0.245 C 
HETATM   20  O2  UNL     1      24.357  -0.738  53.648  1.00  0.00    -0.271 OA
HETATM   21  H6  UNL     1      26.016   1.805  52.621  1.00  0.00     0.168 HD
BRANCH  19  22
HETATM   22  C2  UNL     1      26.898  -0.647  53.512  1.00  0.00     0.270 C 
BRANCH  22  23
HETATM   23  O1  UNL     1      27.338  -0.364  54.787  1.00  0.00    -0.387 OA
HETATM   24  C1  UNL     1      28.641   0.169  54.782  1.00  0.00     0.202 C 
ENDBRANCH  22  23
ENDBRANCH  19  22
ENDBRANCH   1  18
TORSDOF 3
ENDMDL
MODEL 6
REMARK VINA RESULT:      -7.1     10.182     12.464
REMARK  3 active torsions:
REMARK  status: ('A' for Active; 'I' for Inactive)
REMARK    1  A    between atoms: O1_2  and  C2_3 
REMARK    2  A    between atoms: C2_3  and  C3_4 
REMARK       I    between atoms: C3_4  and  N1_6 
REMARK    3  A    between atoms: N1_6  and  C4_7 
ROOT
HETATM    1  C4  UNL     1      21.316   1.300  49.498  1.00  0.00     0.017 C 
HETATM    2  C5  UNL     1      21.055   0.825  50.683  1.00  0.00     0.027 C 
HETATM    3  C6  UNL     1      21.794   0.056  51.733  1.00  0.00     0.029 C 
HETATM    4  C7  UNL     1      21.186  -0.174  52.917  1.00  0.00     0.036 C 
HETATM    5  C8  UNL     1      22.383  -0.931  53.463  1.00  0.00     0.084 C 
HETATM    6  C9  UNL     1      23.543   0.053  53.540  1.00  0.00     0.094 C 
HETATM    7  C10 UNL     1      24.799  -0.600  53.143  1.00  0.00     0.059 C 
HETATM    8  C11 UNL     1      25.892   0.375  52.841  1.00  0.00    -0.084 C 
HETATM    9  C12 UNL     1      27.230  -0.252  52.618  1.00  0.00     0.043 C 
HETATM   10  C13 UNL     1      25.684   1.691  52.778  1.00  0.00    -0.005 C 
HETATM   11  C14 UNL     1      24.318   2.279  53.009  1.00  0.00     0.150 C 
HETATM   12  N2  UNL     1      23.294   1.276  52.711  1.00  0.00    -0.375 N 
HETATM   13  C15 UNL     1      22.406   1.898  51.669  1.00  0.00     0.014 C 
HETATM   14  C16 UNL     1      21.275   2.621  52.072  1.00  0.00     0.044 C 
HETATM   15  C17 UNL     1      20.024   1.899  52.651  1.00  0.00     0.119 C 
HETATM   16  N3  UNL     1      19.861   0.513  52.848  1.00  0.00    -0.265 NA
HETATM   17  C18 UNL     1      22.623   1.755  50.139  1.00  0.00     0.114 C 
ENDROOT
BRANCH   1  18
HETATM   18  N1  UNL     1      21.486   1.845  48.224  1.00  0.00    -0.329 N 
HETATM   19  C3  UNL     1      20.513   2.841  47.847  1.00  0.00     0.245 C 
HETATM   20  O2  UNL     1      19.700   2.991  48.804  1.00  0.00    -0.271 OA
HETATM   21  H6  UNL     1      22.289   1.517  47.622  1.00  0.00     0.168 HD
BRANCH  19  22
HETATM   22  C2  UNL     1      20.671   3.438  46.493  1.00  0.00     0.270 C 
BRANCH  22  23
HETATM   23  O1  UNL     1      21.992   3.794  46.334  1.00  0.00    -0.387 OA
HETATM   24  C1  UNL     1      22.225   5.123  46.737  1.00  0.00     0.202 C 
ENDBRANCH  22  23
ENDBRANCH  19  22
ENDBRANCH   1  18
TORSDOF 3
ENDMDL
MODEL 7
REMARK VINA RESULT:      -6.7      8.869     11.277
REMARK  3 active torsions:
REMARK  status: ('A' for Active; 'I' for Inactive)
REMARK    1  A    between atoms: O1_2  and  C2_3 
REMARK    2  A    between atoms: C2_3  and  C3_4 
REMARK       I    between atoms: C3_4  and  N1_6 
REMARK    3  A    between atoms: N1_6  and  C4_7 
ROOT
HETATM    1  C4  UNL     1      23.100   4.919  52.058  1.00  0.00     0.017 C 
HETATM    2  C5  UNL     1      23.860   3.883  52.276  1.00  0.00     0.027 C 
HETATM    3  C6  UNL     1      23.689   2.512  52.853  1.00  0.00     0.029 C 
HETATM    4  C7  UNL     1      24.734   1.658  52.816  1.00  0.00     0.036 C 
HETATM    5  C8  UNL     1      23.947   0.557  53.502  1.00  0.00     0.084 C 
HETATM    6  C9  UNL     1      22.801   0.176  52.574  1.00  0.00     0.094 C 
HETATM    7  C10 UNL     1      21.577  -0.085  53.347  1.00  0.00     0.059 C 
HETATM    8  C11 UNL     1      20.345  -0.099  52.500  1.00  0.00    -0.084 C 
HETATM    9  C12 UNL     1      19.113  -0.546  53.216  1.00  0.00     0.043 C 
HETATM   10  C13 UNL     1      20.353   0.258  51.214  1.00  0.00    -0.005 C 
HETATM   11  C14 UNL     1      21.619   0.703  50.533  1.00  0.00     0.150 C 
HETATM   12  N2  UNL     1      22.557   1.223  51.530  1.00  0.00    -0.375 N 
HETATM   13  C15 UNL     1      22.884   2.623  51.089  1.00  0.00     0.014 C 
HETATM   14  C16 UNL     1      23.987   2.840  50.251  1.00  0.00     0.044 C 
HETATM   15  C17 UNL     1      25.442   2.710  50.789  1.00  0.00     0.119 C 
HETATM   16  N3  UNL     1      25.834   2.373  52.100  1.00  0.00    -0.265 NA
HETATM   17  C18 UNL     1      22.105   3.886  51.541  1.00  0.00     0.114 C 
ENDROOT
BRANCH   1  18
HETATM   18  N1  UNL     1      22.381   6.084  51.784  1.00  0.00    -0.329 N 
HETATM   19  C3  UNL     1      22.882   6.872  50.684  1.00  0.00     0.245 C 
HETATM   20  O2  UNL     1      23.900   6.293  50.206  1.00  0.00    -0.271 OA
HETATM   21  H6  UNL     1      21.536   6.322  52.371  1.00  0.00     0.168 HD
BRANCH  19  22
HETATM   22  C2  UNL     1      22.134   8.119  50.371  1.00  0.00     0.270 C 
BRANCH  22  23
HETATM   23  O1  UNL     1      20.787   7.841  50.449  1.00  0.00    -0.387 OA
HETATM   24  C1  UNL     1      20.012   8.839  49.828  1.00  0.00     0.202 C 
ENDBRANCH  22  23
ENDBRANCH  19  22
ENDBRANCH   1  18
TORSDOF 3
ENDMDL
MODEL 8
REMARK VINA RESULT:      -6.7      6.178      9.709
REMARK  3 active torsions:
REMARK  status: ('A' for Active; 'I' for Inactive)
REMARK    1  A    between atoms: O1_2  and  C2_3 
REMARK    2  A    between atoms: C2_3  and  C3_4 
REMARK       I    between atoms: C3_4  and  N1_6 
REMARK    3  A    between atoms: N1_6  and  C4_7 
ROOT
HETATM    1  C4  UNL     1      26.058   4.678  48.920  1.00  0.00     0.017 C 
HETATM    2  C5  UNL     1      24.758   4.616  48.983  1.00  0.00     0.027 C 
HETATM    3  C6  UNL     1      23.739   3.626  49.458  1.00  0.00     0.029 C 
HETATM    4  C7  UNL     1      22.436   3.981  49.447  1.00  0.00     0.036 C 
HETATM    5  C8  UNL     1      21.995   2.639  50.002  1.00  0.00     0.084 C 
HETATM    6  C9  UNL     1      22.592   2.509  51.397  1.00  0.00     0.094 C 
HETATM    7  C10 UNL     1      23.047   1.132  51.637  1.00  0.00     0.059 C 
HETATM    8  C11 UNL     1      23.962   1.016  52.814  1.00  0.00    -0.084 C 
HETATM    9  C12 UNL     1      24.292  -0.389  53.200  1.00  0.00     0.043 C 
HETATM   10  C13 UNL     1      24.439   2.081  53.460  1.00  0.00    -0.005 C 
HETATM   11  C14 UNL     1      24.079   3.480  53.036  1.00  0.00     0.150 C 
HETATM   12  N2  UNL     1      23.709   3.484  51.620  1.00  0.00    -0.375 N 
HETATM   13  C15 UNL     1      24.627   4.476  50.961  1.00  0.00     0.014 C 
HETATM   14  C16 UNL     1      24.226   5.816  50.850  1.00  0.00     0.044 C 
HETATM   15  C17 UNL     1      23.113   6.239  49.849  1.00  0.00     0.119 C 
HETATM   16  N3  UNL     1      22.392   5.399  48.976  1.00  0.00    -0.265 NA
HETATM   17  C18 UNL     1      25.999   4.115  50.335  1.00  0.00     0.114 C 
ENDROOT
BRANCH   1  18
HETATM   18  N1  UNL     1      27.438   4.850  48.800  1.00  0.00    -0.329 N 
HETATM   19  C3  UNL     1      27.860   6.159  48.364  1.00  0.00     0.245 C 
HETATM   20  O2  UNL     1      26.832   6.874  48.186  1.00  0.00    -0.271 OA
HETATM   21  H6  UNL     1      28.082   4.045  49.028  1.00  0.00     0.168 HD
BRANCH  19  22
HETATM   22  C2  UNL     1      29.327   6.367  48.228  1.00  0.00     0.270 C 
BRANCH  22  23
HETATM   23  O1  UNL     1      29.942   5.137  48.292  1.00  0.00    -0.387 OA
HETATM   24  C1  UNL     1      31.265   5.191  47.812  1.00  0.00     0.202 C 
ENDBRANCH  22  23
ENDBRANCH  19  22
ENDBRANCH   1  18
TORSDOF 3
ENDMDL
MODEL 9
REMARK VINA RESULT:      -6.6      4.484      8.563
REMARK  3 active torsions:
REMARK  status: ('A' for Active; 'I' for Inactive)
REMARK    1  A    between atoms: O1_2  and  C2_3 
REMARK    2  A    between atoms: C2_3  and  C3_4 
REMARK       I    between atoms: C3_4  and  N1_6 
REMARK    3  A    between atoms: N1_6  and  C4_7 
ROOT
HETATM    1  C4  UNL     1      27.512   6.580  48.433  1.00  0.00     0.017 C 
HETATM    2  C5  UNL     1      26.379   7.215  48.326  1.00  0.00     0.027 C 
HETATM    3  C6  UNL     1      24.987   6.888  47.884  1.00  0.00     0.029 C 
HETATM    4  C7  UNL     1      24.026   7.828  48.017  1.00  0.00     0.036 C 
HETATM    5  C8  UNL     1      22.960   6.920  47.433  1.00  0.00     0.084 C 
HETATM    6  C9  UNL     1      22.807   5.736  48.380  1.00  0.00     0.094 C 
HETATM    7  C10 UNL     1      22.612   4.492  47.621  1.00  0.00     0.059 C 
HETATM    8  C11 UNL     1      22.823   3.265  48.451  1.00  0.00    -0.084 C 
HETATM    9  C12 UNL     1      22.452   1.990  47.766  1.00  0.00     0.043 C 
HETATM   10  C13 UNL     1      23.303   3.312  49.695  1.00  0.00    -0.005 C 
HETATM   11  C14 UNL     1      23.664   4.621  50.345  1.00  0.00     0.150 C 
HETATM   12  N2  UNL     1      23.973   5.614  49.314  1.00  0.00    -0.375 N 
HETATM   13  C15 UNL     1      25.362   6.100  49.619  1.00  0.00     0.014 C 
HETATM   14  C16 UNL     1      25.533   7.220  50.445  1.00  0.00     0.044 C 
HETATM   15  C17 UNL     1      25.185   8.650  49.940  1.00  0.00     0.119 C 
HETATM   16  N3  UNL     1      24.677   9.002  48.673  1.00  0.00    -0.265 NA
HETATM   17  C18 UNL     1      26.655   5.472  49.036  1.00  0.00     0.114 C 
ENDROOT
BRANCH   1  18
HETATM   18  N1  UNL     1      28.773   6.000  48.583  1.00  0.00    -0.329 N 
HETATM   19  C3  UNL     1      29.876   6.929  48.624  1.00  0.00     0.245 C 
HETATM   20  O2  UNL     1      29.418   8.102  48.510  1.00  0.00    -0.271 OA
HETATM   21  H6  UNL     1      28.855   4.950  48.659  1.00  0.00     0.168 HD
BRANCH  19  22
HETATM   22  C2  UNL     1      31.231   6.336  48.783  1.00  0.00     0.270 C 
BRANCH  22  23
HETATM   23  O1  UNL     1      31.134   4.979  48.564  1.00  0.00    -0.387 OA
HETATM   24  C1  UNL     1      32.246   4.485  47.855  1.00  0.00     0.202 C 
ENDBRANCH  22  23
ENDBRANCH  19  22
ENDBRANCH   1  18
TORSDOF 3
ENDMDL
