MODEL 1
REMARK VINA RESULT:      -7.6      0.000      0.000
REMARK  0 active torsions:
REMARK  status: ('A' for Active; 'I' for Inactive)
ROOT
HETATM    1  O1  UNL     1      24.196   5.744  51.866  1.00  0.00    -0.274 OA
HETATM    2  C1  UNL     1      23.255   5.020  52.259  1.00  0.00     0.220 C 
HETATM    3  C2  UNL     1      21.775   5.062  51.922  1.00  0.00     0.114 C 
HETATM    4  C3  UNL     1      21.343   3.635  51.714  1.00  0.00     0.051 C 
HETATM    5  C4  UNL     1      19.902   3.336  51.759  1.00  0.00     0.042 C 
HETATM    6  C5  UNL     1      19.716   1.908  52.273  1.00  0.00     0.024 C 
HETATM    7  C6  UNL     1      20.600   0.895  52.053  1.00  0.00     0.124 C 
HETATM    8  N1  UNL     1      20.706   0.232  50.742  1.00  0.00    -0.225 NA
HETATM    9  C7  UNL     1      21.331   0.868  49.729  1.00  0.00     0.235 C 
HETATM   10  N2  UNL     1      21.859   2.233  49.497  1.00  0.00    -0.245 NA
HETATM   11  C8  UNL     1      22.116   2.972  50.590  1.00  0.00     0.058 C 
HETATM   12  C9  UNL     1      23.613   3.052  50.556  1.00  0.00     0.141 C 
HETATM   13  N3  UNL     1      24.481   2.552  51.420  1.00  0.00    -0.267 NA
HETATM   14  C10 UNL     1      24.493   2.881  52.859  1.00  0.00     0.272 C 
HETATM   15  N4  UNL     1      24.197   4.263  53.063  1.00  0.00    -0.332 N 
HETATM   16  P1  UNL     1      26.069   2.215  53.503  1.00  0.00     0.143 P 
HETATM   17  F1  UNL     1      27.384   2.504  52.436  1.00  0.00    -0.217 F 
HETATM   18  C11 UNL     1      25.809   0.401  53.700  1.00  0.00     0.040 C 
HETATM   19  C12 UNL     1      24.989  -0.680  53.733  1.00  0.00    -0.012 C 
HETATM   20  C13 UNL     1      23.644  -0.109  53.489  1.00  0.00     0.059 C 
HETATM   21  C14 UNL     1      22.373  -0.550  53.383  1.00  0.00     0.072 C 
HETATM   22  N5  UNL     1      21.467   0.492  53.138  1.00  0.00    -0.354 N 
HETATM   23  H10 UNL     1      24.710   4.687  53.839  1.00  0.00     0.165 HD
HETATM   24  H15 UNL     1      21.436   1.137  53.987  1.00  0.00     0.166 HD
ENDROOT
TORSDOF 0
ENDMDL
MODEL 2
REMARK VINA RESULT:      -7.1      2.585      4.505
REMARK  0 active torsions:
REMARK  status: ('A' for Active; 'I' for Inactive)
ROOT
HETATM    1  O1  UNL     1      24.854   3.230  53.616  1.00  0.00    -0.274 OA
HETATM    2  C1  UNL     1      24.252   2.580  52.733  1.00  0.00     0.220 C 
HETATM    3  C2  UNL     1      23.291   1.411  52.856  1.00  0.00     0.114 C 
HETATM    4  C3  UNL     1      22.170   1.675  51.886  1.00  0.00     0.051 C 
HETATM    5  C4  UNL     1      21.305   0.546  51.507  1.00  0.00     0.042 C 
HETATM    6  C5  UNL     1      20.796   0.779  50.083  1.00  0.00     0.024 C 
HETATM    7  C6  UNL     1      20.560   2.009  49.548  1.00  0.00     0.124 C 
HETATM    8  N1  UNL     1      19.376   2.801  49.924  1.00  0.00    -0.225 NA
HETATM    9  C7  UNL     1      19.351   3.424  51.121  1.00  0.00     0.235 C 
HETATM   10  N2  UNL     1      20.190   3.414  52.341  1.00  0.00    -0.245 NA
HETATM   11  C8  UNL     1      21.453   2.975  52.198  1.00  0.00     0.058 C 
HETATM   12  C9  UNL     1      22.238   4.235  52.412  1.00  0.00     0.141 C 
HETATM   13  N3  UNL     1      22.997   4.886  51.546  1.00  0.00    -0.267 NA
HETATM   14  C10 UNL     1      24.149   4.283  50.847  1.00  0.00     0.272 C 
HETATM   15  N4  UNL     1      24.873   3.416  51.720  1.00  0.00    -0.332 N 
HETATM   16  P1  UNL     1      25.034   5.679  50.064  1.00  0.00     0.143 P 
HETATM   17  F1  UNL     1      25.140   7.047  51.097  1.00  0.00    -0.217 F 
HETATM   18  C11 UNL     1      24.068   6.107  48.554  1.00  0.00     0.040 C 
HETATM   19  C12 UNL     1      23.094   5.822  47.651  1.00  0.00    -0.012 C 
HETATM   20  C13 UNL     1      22.548   4.528  48.121  1.00  0.00     0.059 C 
HETATM   21  C14 UNL     1      21.592   3.651  47.749  1.00  0.00     0.072 C 
HETATM   22  N5  UNL     1      21.519   2.547  48.610  1.00  0.00    -0.354 N 
HETATM   23  H10 UNL     1      25.885   3.427  51.573  1.00  0.00     0.165 HD
HETATM   24  H15 UNL     1      22.420   1.980  48.531  1.00  0.00     0.166 HD
ENDROOT
TORSDOF 0
ENDMDL
MODEL 3
REMARK VINA RESULT:      -7.1      3.464      5.093
REMARK  0 active torsions:
REMARK  status: ('A' for Active; 'I' for Inactive)
ROOT
HETATM    1  O1  UNL     1      19.911   2.769  47.710  1.00  0.00    -0.274 OA
HETATM    2  C1  UNL     1      20.999   2.439  48.232  1.00  0.00     0.220 C 
HETATM    3  C2  UNL     1      22.389   3.028  48.065  1.00  0.00     0.114 C 
HETATM    4  C3  UNL     1      22.996   3.088  49.441  1.00  0.00     0.051 C 
HETATM    5  C4  UNL     1      24.456   3.248  49.545  1.00  0.00     0.042 C 
HETATM    6  C5  UNL     1      24.931   2.563  50.827  1.00  0.00     0.024 C 
HETATM    7  C6  UNL     1      24.187   2.471  51.965  1.00  0.00     0.124 C 
HETATM    8  N1  UNL     1      23.988   3.628  52.854  1.00  0.00    -0.225 NA
HETATM    9  C7  UNL     1      23.130   4.603  52.488  1.00  0.00     0.235 C 
HETATM   10  N2  UNL     1      22.373   4.945  51.261  1.00  0.00    -0.245 NA
HETATM   11  C8  UNL     1      22.173   3.949  50.381  1.00  0.00     0.058 C 
HETATM   12  C9  UNL     1      20.693   3.736  50.495  1.00  0.00     0.141 C 
HETATM   13  N3  UNL     1      20.050   2.670  50.942  1.00  0.00    -0.267 NA
HETATM   14  C10 UNL     1      20.204   1.317  50.371  1.00  0.00     0.272 C 
HETATM   15  N4  UNL     1      20.313   1.378  48.949  1.00  0.00    -0.332 N 
HETATM   16  P1  UNL     1      18.860   0.317  51.106  1.00  0.00     0.143 P 
HETATM   17  F1  UNL     1      17.372   1.173  51.174  1.00  0.00    -0.217 F 
HETATM   18  C11 UNL     1      19.419  -0.105  52.810  1.00  0.00     0.040 C 
HETATM   19  C12 UNL     1      20.389  -0.159  53.759  1.00  0.00    -0.012 C 
HETATM   20  C13 UNL     1      21.579   0.396  53.075  1.00  0.00     0.059 C 
HETATM   21  C14 UNL     1      22.872   0.652  53.366  1.00  0.00     0.072 C 
HETATM   22  N5  UNL     1      23.563   1.205  52.278  1.00  0.00    -0.354 N 
HETATM   23  H10 UNL     1      19.864   0.599  48.463  1.00  0.00     0.165 HD
HETATM   24  H15 UNL     1      23.623   0.481  51.496  1.00  0.00     0.166 HD
ENDROOT
TORSDOF 0
ENDMDL
MODEL 4
REMARK VINA RESULT:      -7.0      2.252      4.063
REMARK  0 active torsions:
REMARK  status: ('A' for Active; 'I' for Inactive)
ROOT
HETATM    1  O1  UNL     1      23.422  -0.505  54.210  1.00  0.00    -0.274 OA
HETATM    2  C1  UNL     1      22.906  -0.348  53.082  1.00  0.00     0.220 C 
HETATM    3  C2  UNL     1      21.469  -0.528  52.624  1.00  0.00     0.114 C 
HETATM    4  C3  UNL     1      21.157   0.639  51.725  1.00  0.00     0.051 C 
HETATM    5  C4  UNL     1      19.988   0.532  50.836  1.00  0.00     0.042 C 
HETATM    6  C5  UNL     1      20.256   1.359  49.577  1.00  0.00     0.024 C 
HETATM    7  C6  UNL     1      21.010   2.493  49.554  1.00  0.00     0.124 C 
HETATM    8  N1  UNL     1      20.503   3.770  50.084  1.00  0.00    -0.225 NA
HETATM    9  C7  UNL     1      20.442   3.954  51.419  1.00  0.00     0.235 C 
HETATM   10  N2  UNL     1      20.617   3.101  52.618  1.00  0.00    -0.245 NA
HETATM   11  C8  UNL     1      21.312   1.963  52.449  1.00  0.00     0.058 C 
HETATM   12  C9  UNL     1      22.559   2.252  53.231  1.00  0.00     0.141 C 
HETATM   13  N3  UNL     1      23.798   2.375  52.782  1.00  0.00    -0.267 NA
HETATM   14  C10 UNL     1      24.509   1.323  52.030  1.00  0.00     0.272 C 
HETATM   15  N4  UNL     1      24.206   0.032  52.558  1.00  0.00    -0.332 N 
HETATM   16  P1  UNL     1      26.257   1.858  51.967  1.00  0.00     0.143 P 
HETATM   17  F1  UNL     1      26.795   2.505  53.465  1.00  0.00    -0.217 F 
HETATM   18  C11 UNL     1      26.342   3.152  50.658  1.00  0.00     0.040 C 
HETATM   19  C12 UNL     1      25.784   3.822  49.617  1.00  0.00    -0.012 C 
HETATM   20  C13 UNL     1      24.451   3.194  49.471  1.00  0.00     0.059 C 
HETATM   21  C14 UNL     1      23.365   3.323  48.679  1.00  0.00     0.072 C 
HETATM   22  N5  UNL     1      22.350   2.416  49.017  1.00  0.00    -0.354 N 
HETATM   23  H10 UNL     1      24.993  -0.622  52.538  1.00  0.00     0.165 HD
HETATM   24  H15 UNL     1      22.686   1.423  48.817  1.00  0.00     0.166 HD
ENDROOT
TORSDOF 0
ENDMDL
MODEL 5
REMARK VINA RESULT:      -6.9      3.795      4.990
REMARK  0 active torsions:
REMARK  status: ('A' for Active; 'I' for Inactive)
ROOT
HETATM    1  O1  UNL     1      22.336   8.684  49.492  1.00  0.00    -0.274 OA
HETATM    2  C1  UNL     1      22.660   7.776  50.288  1.00  0.00     0.220 C 
HETATM    3  C2  UNL     1      21.804   6.923  51.208  1.00  0.00     0.114 C 
HETATM    4  C3  UNL     1      22.327   5.516  51.096  1.00  0.00     0.051 C 
HETATM    5  C4  UNL     1      21.955   4.555  52.148  1.00  0.00     0.042 C 
HETATM    6  C5  UNL     1      23.083   3.533  52.295  1.00  0.00     0.024 C 
HETATM    7  C6  UNL     1      23.882   3.123  51.271  1.00  0.00     0.124 C 
HETATM    8  N1  UNL     1      23.397   2.193  50.237  1.00  0.00    -0.225 NA
HETATM    9  C7  UNL     1      22.564   2.647  49.277  1.00  0.00     0.235 C 
HETATM   10  N2  UNL     1      21.808   3.897  49.032  1.00  0.00    -0.245 NA
HETATM   11  C8  UNL     1      22.241   4.996  49.673  1.00  0.00     0.058 C 
HETATM   12  C9  UNL     1      22.772   5.820  48.538  1.00  0.00     0.141 C 
HETATM   13  N3  UNL     1      24.021   6.189  48.306  1.00  0.00    -0.267 NA
HETATM   14  C10 UNL     1      24.840   6.967  49.257  1.00  0.00     0.272 C 
HETATM   15  N4  UNL     1      24.049   7.962  49.908  1.00  0.00    -0.332 N 
HETATM   16  P1  UNL     1      26.318   7.494  48.318  1.00  0.00     0.143 P 
HETATM   17  F1  UNL     1      25.929   8.016  46.728  1.00  0.00    -0.217 F 
HETATM   18  C11 UNL     1      27.421   6.020  48.242  1.00  0.00     0.040 C 
HETATM   19  C12 UNL     1      27.752   4.767  48.647  1.00  0.00    -0.012 C 
HETATM   20  C13 UNL     1      26.704   4.430  49.637  1.00  0.00     0.059 C 
HETATM   21  C14 UNL     1      26.379   3.392  50.436  1.00  0.00     0.072 C 
HETATM   22  N5  UNL     1      25.228   3.646  51.197  1.00  0.00    -0.354 N 
HETATM   23  H10 UNL     1      24.548   8.835  50.091  1.00  0.00     0.165 HD
HETATM   24  H15 UNL     1      25.429   4.436  51.885  1.00  0.00     0.166 HD
ENDROOT
TORSDOF 0
ENDMDL
MODEL 6
REMARK VINA RESULT:      -6.8      2.786      4.508
REMARK  0 active torsions:
REMARK  status: ('A' for Active; 'I' for Inactive)
ROOT
HETATM    1  O1  UNL     1      21.314   0.123  54.443  1.00  0.00    -0.274 OA
HETATM    2  C1  UNL     1      20.797   0.014  53.309  1.00  0.00     0.220 C 
HETATM    3  C2  UNL     1      19.358  -0.256  52.906  1.00  0.00     0.114 C 
HETATM    4  C3  UNL     1      19.055   0.669  51.758  1.00  0.00     0.051 C 
HETATM    5  C4  UNL     1      17.884   0.366  50.918  1.00  0.00     0.042 C 
HETATM    6  C5  UNL     1      18.156   0.870  49.500  1.00  0.00     0.024 C 
HETATM    7  C6  UNL     1      18.921   1.960  49.211  1.00  0.00     0.124 C 
HETATM    8  N1  UNL     1      18.425   3.331  49.424  1.00  0.00    -0.225 NA
HETATM    9  C7  UNL     1      18.368   3.825  50.679  1.00  0.00     0.235 C 
HETATM   10  N2  UNL     1      18.537   3.276  52.045  1.00  0.00    -0.245 NA
HETATM   11  C8  UNL     1      19.222   2.125  52.149  1.00  0.00     0.058 C 
HETATM   12  C9  UNL     1      20.473   2.579  52.841  1.00  0.00     0.141 C 
HETATM   13  N3  UNL     1      21.712   2.582  52.377  1.00  0.00    -0.267 NA
HETATM   14  C10 UNL     1      22.413   1.376  51.894  1.00  0.00     0.272 C 
HETATM   15  N4  UNL     1      22.100   0.248  52.712  1.00  0.00    -0.332 N 
HETATM   16  P1  UNL     1      24.165   1.867  51.709  1.00  0.00     0.143 P 
HETATM   17  F1  UNL     1      24.711   2.844  53.012  1.00  0.00    -0.217 F 
HETATM   18  C11 UNL     1      24.260   2.815  50.132  1.00  0.00     0.040 C 
HETATM   19  C12 UNL     1      23.706   3.226  48.962  1.00  0.00    -0.012 C 
HETATM   20  C13 UNL     1      22.367   2.593  48.967  1.00  0.00     0.059 C 
HETATM   21  C14 UNL     1      21.282   2.541  48.166  1.00  0.00     0.072 C 
HETATM   22  N5  UNL     1      20.259   1.748  48.707  1.00  0.00    -0.354 N 
HETATM   23  H10 UNL     1      22.881  -0.398  52.847  1.00  0.00     0.165 HD
HETATM   24  H15 UNL     1      20.586   0.733  48.747  1.00  0.00     0.166 HD
ENDROOT
TORSDOF 0
ENDMDL
MODEL 7
REMARK VINA RESULT:      -6.5      2.834      4.826
REMARK  0 active torsions:
REMARK  status: ('A' for Active; 'I' for Inactive)
ROOT
HETATM    1  O1  UNL     1      26.092   2.821  52.314  1.00  0.00    -0.274 OA
HETATM    2  C1  UNL     1      25.213   2.354  51.556  1.00  0.00     0.220 C 
HETATM    3  C2  UNL     1      24.196   1.251  51.792  1.00  0.00     0.114 C 
HETATM    4  C3  UNL     1      22.896   1.737  51.208  1.00  0.00     0.051 C 
HETATM    5  C4  UNL     1      21.844   0.741  50.944  1.00  0.00     0.042 C 
HETATM    6  C5  UNL     1      21.008   1.219  49.755  1.00  0.00     0.024 C 
HETATM    7  C6  UNL     1      20.776   2.529  49.462  1.00  0.00     0.124 C 
HETATM    8  N1  UNL     1      19.826   3.340  50.243  1.00  0.00    -0.225 NA
HETATM    9  C7  UNL     1      20.183   3.778  51.469  1.00  0.00     0.235 C 
HETATM   10  N2  UNL     1      21.307   3.526  52.401  1.00  0.00    -0.245 NA
HETATM   11  C8  UNL     1      22.432   3.024  51.863  1.00  0.00     0.058 C 
HETATM   12  C9  UNL     1      23.378   4.179  52.008  1.00  0.00     0.141 C 
HETATM   13  N3  UNL     1      23.951   4.894  51.054  1.00  0.00    -0.267 NA
HETATM   14  C10 UNL     1      24.807   4.321  49.997  1.00  0.00     0.272 C 
HETATM   15  N4  UNL     1      25.634   3.284  50.523  1.00  0.00    -0.332 N 
HETATM   16  P1  UNL     1      25.603   5.751  49.180  1.00  0.00     0.143 P 
HETATM   17  F1  UNL     1      26.124   6.939  50.306  1.00  0.00    -0.217 F 
HETATM   18  C11 UNL     1      24.328   6.466  48.058  1.00  0.00     0.040 C 
HETATM   19  C12 UNL     1      23.127   6.390  47.429  1.00  0.00    -0.012 C 
HETATM   20  C13 UNL     1      22.585   5.083  47.867  1.00  0.00     0.059 C 
HETATM   21  C14 UNL     1      21.475   4.342  47.666  1.00  0.00     0.072 C 
HETATM   22  N5  UNL     1      21.510   3.130  48.370  1.00  0.00    -0.354 N 
HETATM   23  H10 UNL     1      26.567   3.244  50.107  1.00  0.00     0.165 HD
HETATM   24  H15 UNL     1      22.291   2.518  47.978  1.00  0.00     0.166 HD
ENDROOT
TORSDOF 0
ENDMDL
MODEL 8
REMARK VINA RESULT:      -6.4      3.307      4.847
REMARK  0 active torsions:
REMARK  status: ('A' for Active; 'I' for Inactive)
ROOT
HETATM    1  O1  UNL     1      23.732   6.772  51.703  1.00  0.00    -0.274 OA
HETATM    2  C1  UNL     1      23.788   5.526  51.607  1.00  0.00     0.220 C 
HETATM    3  C2  UNL     1      23.799   4.456  52.685  1.00  0.00     0.114 C 
HETATM    4  C3  UNL     1      22.881   3.361  52.210  1.00  0.00     0.051 C 
HETATM    5  C4  UNL     1      22.993   2.041  52.851  1.00  0.00     0.042 C 
HETATM    6  C5  UNL     1      22.607   0.969  51.830  1.00  0.00     0.024 C 
HETATM    7  C6  UNL     1      21.692   1.153  50.838  1.00  0.00     0.124 C 
HETATM    8  N1  UNL     1      20.245   1.176  51.113  1.00  0.00    -0.225 NA
HETATM    9  C7  UNL     1      19.699   2.268  51.687  1.00  0.00     0.235 C 
HETATM   10  N2  UNL     1      20.214   3.508  52.314  1.00  0.00    -0.245 NA
HETATM   11  C8  UNL     1      21.468   3.868  51.992  1.00  0.00     0.058 C 
HETATM   12  C9  UNL     1      21.229   5.108  51.183  1.00  0.00     0.141 C 
HETATM   13  N3  UNL     1      21.478   5.310  49.899  1.00  0.00    -0.267 NA
HETATM   14  C10 UNL     1      22.813   5.164  49.287  1.00  0.00     0.272 C 
HETATM   15  N4  UNL     1      23.827   5.657  50.161  1.00  0.00    -0.332 N 
HETATM   16  P1  UNL     1      22.667   5.887  47.613  1.00  0.00     0.143 P 
HETATM   17  F1  UNL     1      21.758   7.344  47.609  1.00  0.00    -0.217 F 
HETATM   18  C11 UNL     1      21.819   4.615  46.585  1.00  0.00     0.040 C 
HETATM   19  C12 UNL     1      21.359   3.350  46.407  1.00  0.00    -0.012 C 
HETATM   20  C13 UNL     1      21.729   2.663  47.666  1.00  0.00     0.059 C 
HETATM   21  C14 UNL     1      21.608   1.432  48.208  1.00  0.00     0.072 C 
HETATM   22  N5  UNL     1      22.173   1.358  49.489  1.00  0.00    -0.354 N 
HETATM   23  H10 UNL     1      24.602   6.119  49.681  1.00  0.00     0.165 HD
HETATM   24  H15 UNL     1      23.228   1.494  49.416  1.00  0.00     0.166 HD
ENDROOT
TORSDOF 0
ENDMDL
MODEL 9
REMARK VINA RESULT:      -6.3     10.622     12.202
REMARK  0 active torsions:
REMARK  status: ('A' for Active; 'I' for Inactive)
ROOT
HETATM    1  O1  UNL     1      35.342   9.351  45.789  1.00  0.00    -0.274 OA
HETATM    2  C1  UNL     1      34.477   9.333  46.691  1.00  0.00     0.220 C 
HETATM    3  C2  UNL     1      33.630  10.456  47.264  1.00  0.00     0.114 C 
HETATM    4  C3  UNL     1      32.239   9.903  47.424  1.00  0.00     0.051 C 
HETATM    5  C4  UNL     1      31.306  10.625  48.306  1.00  0.00     0.042 C 
HETATM    6  C5  UNL     1      30.331   9.617  48.915  1.00  0.00     0.024 C 
HETATM    7  C6  UNL     1      29.911   8.484  48.285  1.00  0.00     0.124 C 
HETATM    8  N1  UNL     1      28.926   8.526  47.191  1.00  0.00    -0.225 NA
HETATM    9  C7  UNL     1      29.313   8.946  45.968  1.00  0.00     0.235 C 
HETATM   10  N2  UNL     1      30.525   9.577  45.397  1.00  0.00    -0.245 NA
HETATM   11  C8  UNL     1      31.663   9.438  46.100  1.00  0.00     0.058 C 
HETATM   12  C9  UNL     1      32.461   8.535  45.207  1.00  0.00     0.141 C 
HETATM   13  N3  UNL     1      32.865   7.297  45.444  1.00  0.00    -0.267 NA
HETATM   14  C10 UNL     1      33.707   6.911  46.593  1.00  0.00     0.272 C 
HETATM   15  N4  UNL     1      34.698   7.906  46.850  1.00  0.00    -0.332 N 
HETATM   16  P1  UNL     1      34.251   5.199  46.252  1.00  0.00     0.143 P 
HETATM   17  F1  UNL     1      34.697   4.971  44.609  1.00  0.00    -0.217 F 
HETATM   18  C11 UNL     1      32.815   4.121  46.666  1.00  0.00     0.040 C 
HETATM   19  C12 UNL     1      31.591   3.942  47.226  1.00  0.00    -0.012 C 
HETATM   20  C13 UNL     1      31.254   5.280  47.767  1.00  0.00     0.059 C 
HETATM   21  C14 UNL     1      30.237   5.862  48.435  1.00  0.00     0.072 C 
HETATM   22  N5  UNL     1      30.479   7.219  48.696  1.00  0.00    -0.354 N 
HETATM   23  H10 UNL     1      35.595   7.530  47.165  1.00  0.00     0.165 HD
HETATM   24  H15 UNL     1      31.301   7.306  49.370  1.00  0.00     0.166 HD
ENDROOT
TORSDOF 0
ENDMDL
