MODEL 1
REMARK VINA RESULT:      -7.4      0.000      0.000
REMARK  9 active torsions:
REMARK  status: ('A' for Active; 'I' for Inactive)
REMARK    1  A    between atoms: O1_2  and  C2_3 
REMARK    2  A    between atoms: C2_3  and  C3_4 
REMARK    3  A    between atoms: C2_3  and  C14_20 
REMARK    4  A    between atoms: C3_4  and  C4_5 
REMARK    5  A    between atoms: C7_10  and  N3_11 
REMARK    6  A    between atoms: N3_11  and  C8_12 
REMARK    7  A    between atoms: C14_20  and  C15_21 
REMARK    8  A    between atoms: C15_21  and  N4_22 
REMARK       I    between atoms: N4_22  and  C16_23 
REMARK    9  A    between atoms: C16_23  and  C17_25 
ROOT
HETATM    1  C3  UNL     1      24.599   6.525  49.808  1.00  0.00     0.066 C 
ENDROOT
BRANCH   1   2
HETATM    2  C2  UNL     1      23.323   6.617  50.102  1.00  0.00     0.049 C 
BRANCH   2   3
HETATM    3  O1  UNL     1      23.130   7.461  49.046  1.00  0.00    -0.360 OA
HETATM    4  C1  UNL     1      21.965   7.647  48.291  1.00  0.00     0.209 C 
ENDBRANCH   2   3
BRANCH   2   5
HETATM    5  C14 UNL     1      22.701   5.906  51.244  1.00  0.00     0.084 C 
BRANCH   5   6
HETATM    6  C15 UNL     1      22.319   4.491  50.999  1.00  0.00     0.129 C 
BRANCH   6   7
HETATM    7  N4  UNL     1      21.893   3.854  52.205  1.00  0.00    -0.359 N 
HETATM    8  C16 UNL     1      22.368   2.494  52.129  1.00  0.00     0.251 C 
HETATM    9  O2  UNL     1      23.037   2.005  51.156  1.00  0.00    -0.271 OA
HETATM   10  H15 UNL     1      21.417   3.829  53.125  1.00  0.00     0.162 HD
BRANCH   8  11
HETATM   11  C17 UNL     1      22.266   1.332  53.030  1.00  0.00     0.313 C 
HETATM   12  C18 UNL     1      22.736   0.035  52.417  1.00  0.00     0.046 C 
HETATM   13  C19 UNL     1      22.775  -0.955  53.557  1.00  0.00     0.004 C 
HETATM   14  C20 UNL     1      21.504  -1.065  54.336  1.00  0.00     0.030 C 
HETATM   15  C21 UNL     1      20.722   0.196  54.477  1.00  0.00     0.273 C 
HETATM   16  N5  UNL     1      20.883   1.129  53.396  1.00  0.00     0.098 N 
HETATM   17  C22 UNL     1      20.095   0.680  52.269  1.00  0.00     0.310 C 
ENDBRANCH   8  11
ENDBRANCH   6   7
ENDBRANCH   5   6
ENDBRANCH   2   5
ENDBRANCH   1   2
BRANCH   1  18
HETATM   18  C4  UNL     1      25.874   6.093  49.277  1.00  0.00     0.090 A 
HETATM   19  N1  UNL     1      26.827   6.567  48.529  1.00  0.00    -0.240 NA
HETATM   20  C5  UNL     1      27.848   5.617  48.368  1.00  0.00     0.234 A 
HETATM   21  N2  UNL     1      27.563   4.542  49.000  1.00  0.00    -0.238 NA
HETATM   22  C6  UNL     1      26.286   4.722  49.644  1.00  0.00     0.102 A 
HETATM   23  C7  UNL     1      25.965   3.628  50.308  1.00  0.00     0.122 C 
BRANCH  23  24
HETATM   24  N3  UNL     1      26.663   2.376  50.461  1.00  0.00    -0.364 N 
HETATM   25  H7  UNL     1      27.315   1.959  49.724  1.00  0.00     0.165 HD
BRANCH  24  26
HETATM   26  C8  UNL     1      26.491   1.603  51.669  1.00  0.00     0.033 A 
HETATM   27  C9  UNL     1      26.077   2.294  52.785  1.00  0.00     0.032 A 
HETATM   28  C10 UNL     1      25.883   1.652  53.988  1.00  0.00     0.046 A 
HETATM   29  C11 UNL     1      26.123   0.293  54.015  1.00  0.00     0.138 A 
HETATM   30  F1  UNL     1      25.988  -0.504  55.102  1.00  0.00    -0.204 F 
HETATM   31  C12 UNL     1      26.542  -0.410  52.887  1.00  0.00     0.074 A 
HETATM   32 CL1  UNL     1      26.862  -2.129  52.858  1.00  0.00    -0.081 Cl
HETATM   33  C13 UNL     1      26.731   0.253  51.686  1.00  0.00     0.056 A 
ENDBRANCH  24  26
ENDBRANCH  23  24
ENDBRANCH   1  18
TORSDOF 9
ENDMDL
MODEL 2
REMARK VINA RESULT:      -7.4      4.070      8.234
REMARK  9 active torsions:
REMARK  status: ('A' for Active; 'I' for Inactive)
REMARK    1  A    between atoms: O1_2  and  C2_3 
REMARK    2  A    between atoms: C2_3  and  C3_4 
REMARK    3  A    between atoms: C2_3  and  C14_20 
REMARK    4  A    between atoms: C3_4  and  C4_5 
REMARK    5  A    between atoms: C7_10  and  N3_11 
REMARK    6  A    between atoms: N3_11  and  C8_12 
REMARK    7  A    between atoms: C14_20  and  C15_21 
REMARK    8  A    between atoms: C15_21  and  N4_22 
REMARK       I    between atoms: N4_22  and  C16_23 
REMARK    9  A    between atoms: C16_23  and  C17_25 
ROOT
HETATM    1  C3  UNL     1      26.024   5.582  49.197  1.00  0.00     0.066 C 
ENDROOT
BRANCH   1   2
HETATM    2  C2  UNL     1      27.088   6.067  48.601  1.00  0.00     0.049 C 
BRANCH   2   3
HETATM    3  O1  UNL     1      26.483   7.286  48.490  1.00  0.00    -0.360 OA
HETATM    4  C1  UNL     1      25.651   7.745  47.461  1.00  0.00     0.209 C 
ENDBRANCH   2   3
BRANCH   2   5
HETATM    5  C14 UNL     1      28.304   5.262  48.333  1.00  0.00     0.084 C 
BRANCH   5   6
HETATM    6  C15 UNL     1      29.600   5.974  48.484  1.00  0.00     0.129 C 
BRANCH   6   7
HETATM    7  N4  UNL     1      30.428   5.788  47.333  1.00  0.00    -0.359 N 
HETATM    8  C16 UNL     1      31.700   5.319  47.826  1.00  0.00     0.251 C 
HETATM    9  O2  UNL     1      31.980   5.120  49.057  1.00  0.00    -0.271 OA
HETATM   10  H15 UNL     1      30.623   5.809  46.315  1.00  0.00     0.162 HD
BRANCH   8  11
HETATM   11  C17 UNL     1      32.967   4.948  47.171  1.00  0.00     0.313 C 
HETATM   12  C18 UNL     1      32.953   5.106  45.670  1.00  0.00     0.046 C 
HETATM   13  C19 UNL     1      34.386   4.913  45.235  1.00  0.00     0.004 C 
HETATM   14  C20 UNL     1      35.024   3.649  45.717  1.00  0.00     0.030 C 
HETATM   15  C21 UNL     1      34.589   3.180  47.063  1.00  0.00     0.273 C 
HETATM   16  N5  UNL     1      33.251   3.554  47.429  1.00  0.00     0.098 N 
HETATM   17  C22 UNL     1      32.317   2.687  46.744  1.00  0.00     0.310 C 
ENDBRANCH   8  11
ENDBRANCH   6   7
ENDBRANCH   5   6
ENDBRANCH   2   5
ENDBRANCH   1   2
BRANCH   1  18
HETATM   18  C4  UNL     1      24.988   5.282  50.161  1.00  0.00     0.090 A 
HETATM   19  N1  UNL     1      23.950   5.863  50.686  1.00  0.00    -0.240 NA
HETATM   20  C5  UNL     1      23.319   5.013  51.609  1.00  0.00     0.234 A 
HETATM   21  N2  UNL     1      23.939   3.896  51.683  1.00  0.00    -0.238 NA
HETATM   22  C6  UNL     1      25.060   3.941  50.778  1.00  0.00     0.102 A 
HETATM   23  C7  UNL     1      25.719   2.799  50.830  1.00  0.00     0.122 C 
BRANCH  23  24
HETATM   24  N3  UNL     1      25.488   1.609  51.610  1.00  0.00    -0.364 N 
HETATM   25  H7  UNL     1      24.537   1.129  51.705  1.00  0.00     0.165 HD
BRANCH  24  26
HETATM   26  C8  UNL     1      26.582   1.000  52.329  1.00  0.00     0.033 A 
HETATM   27  C9  UNL     1      26.675  -0.371  52.257  1.00  0.00     0.032 A 
HETATM   28  C10 UNL     1      27.681  -1.052  52.907  1.00  0.00     0.046 A 
HETATM   29  C11 UNL     1      28.583  -0.294  53.625  1.00  0.00     0.138 A 
HETATM   30  F1  UNL     1      29.634  -0.784  54.326  1.00  0.00    -0.204 F 
HETATM   31  C12 UNL     1      28.494   1.095  53.700  1.00  0.00     0.074 A 
HETATM   32 CL1  UNL     1      29.603   2.110  54.593  1.00  0.00    -0.081 Cl
HETATM   33  C13 UNL     1      27.475   1.761  53.040  1.00  0.00     0.056 A 
ENDBRANCH  24  26
ENDBRANCH  23  24
ENDBRANCH   1  18
TORSDOF 9
ENDMDL
MODEL 3
REMARK VINA RESULT:      -7.4      3.168      7.587
REMARK  9 active torsions:
REMARK  status: ('A' for Active; 'I' for Inactive)
REMARK    1  A    between atoms: O1_2  and  C2_3 
REMARK    2  A    between atoms: C2_3  and  C3_4 
REMARK    3  A    between atoms: C2_3  and  C14_20 
REMARK    4  A    between atoms: C3_4  and  C4_5 
REMARK    5  A    between atoms: C7_10  and  N3_11 
REMARK    6  A    between atoms: N3_11  and  C8_12 
REMARK    7  A    between atoms: C14_20  and  C15_21 
REMARK    8  A    between atoms: C15_21  and  N4_22 
REMARK       I    between atoms: N4_22  and  C16_23 
REMARK    9  A    between atoms: C16_23  and  C17_25 
ROOT
HETATM    1  C3  UNL     1      24.715   4.234  49.489  1.00  0.00     0.066 C 
ENDROOT
BRANCH   1   2
HETATM    2  C2  UNL     1      25.367   5.365  49.351  1.00  0.00     0.049 C 
BRANCH   2   3
HETATM    3  O1  UNL     1      26.554   4.692  49.339  1.00  0.00    -0.360 OA
HETATM    4  C1  UNL     1      27.694   4.964  48.572  1.00  0.00     0.209 C 
ENDBRANCH   2   3
BRANCH   2   5
HETATM    5  C14 UNL     1      24.694   6.684  49.272  1.00  0.00     0.084 C 
BRANCH   5   6
HETATM    6  C15 UNL     1      25.115   7.689  50.282  1.00  0.00     0.129 C 
BRANCH   6   7
HETATM    7  N4  UNL     1      26.539   7.746  50.392  1.00  0.00    -0.359 N 
HETATM    8  C16 UNL     1      26.926   9.055  49.927  1.00  0.00     0.251 C 
HETATM    9  O2  UNL     1      26.117   9.953  49.512  1.00  0.00    -0.271 OA
HETATM   10  H15 UNL     1      27.470   7.353  50.625  1.00  0.00     0.162 HD
BRANCH   8  11
HETATM   11  C17 UNL     1      28.224   9.738  49.782  1.00  0.00     0.313 C 
HETATM   12  C18 UNL     1      28.189  10.937  48.865  1.00  0.00     0.046 C 
HETATM   13  C19 UNL     1      29.526  11.616  49.044  1.00  0.00     0.004 C 
HETATM   14  C20 UNL     1      30.713  10.726  48.853  1.00  0.00     0.030 C 
HETATM   15  C21 UNL     1      30.536   9.312  49.288  1.00  0.00     0.273 C 
HETATM   16  N5  UNL     1      29.187   8.822  49.213  1.00  0.00     0.098 N 
HETATM   17  C22 UNL     1      28.877   8.513  47.835  1.00  0.00     0.310 C 
ENDBRANCH   8  11
ENDBRANCH   6   7
ENDBRANCH   5   6
ENDBRANCH   2   5
ENDBRANCH   1   2
BRANCH   1  18
HETATM   18  C4  UNL     1      23.902   3.155  50.006  1.00  0.00     0.090 A 
HETATM   19  N1  UNL     1      22.786   2.554  49.718  1.00  0.00    -0.240 NA
HETATM   20  C5  UNL     1      22.519   1.532  50.644  1.00  0.00     0.234 A 
HETATM   21  N2  UNL     1      23.449   1.471  51.521  1.00  0.00    -0.238 NA
HETATM   22  C6  UNL     1      24.425   2.487  51.217  1.00  0.00     0.102 A 
HETATM   23  C7  UNL     1      25.399   2.448  52.106  1.00  0.00     0.122 C 
BRANCH  23  24
HETATM   24  N3  UNL     1      25.602   1.595  53.250  1.00  0.00    -0.364 N 
HETATM   25  H7  UNL     1      25.112   1.728  54.191  1.00  0.00     0.165 HD
BRANCH  24  26
HETATM   26  C8  UNL     1      26.520   0.484  53.163  1.00  0.00     0.033 A 
HETATM   27  C9  UNL     1      25.980  -0.731  52.810  1.00  0.00     0.032 A 
HETATM   28  C10 UNL     1      26.768  -1.855  52.699  1.00  0.00     0.046 A 
HETATM   29  C11 UNL     1      28.115  -1.700  52.956  1.00  0.00     0.138 A 
HETATM   30  F1  UNL     1      29.042  -2.686  52.898  1.00  0.00    -0.204 F 
HETATM   31  C12 UNL     1      28.666  -0.471  53.313  1.00  0.00     0.074 A 
HETATM   32 CL1  UNL     1      30.362  -0.210  53.652  1.00  0.00    -0.081 Cl
HETATM   33  C13 UNL     1      27.857   0.648  53.420  1.00  0.00     0.056 A 
ENDBRANCH  24  26
ENDBRANCH  23  24
ENDBRANCH   1  18
TORSDOF 9
ENDMDL
MODEL 4
REMARK VINA RESULT:      -7.2      4.387      8.262
REMARK  9 active torsions:
REMARK  status: ('A' for Active; 'I' for Inactive)
REMARK    1  A    between atoms: O1_2  and  C2_3 
REMARK    2  A    between atoms: C2_3  and  C3_4 
REMARK    3  A    between atoms: C2_3  and  C14_20 
REMARK    4  A    between atoms: C3_4  and  C4_5 
REMARK    5  A    between atoms: C7_10  and  N3_11 
REMARK    6  A    between atoms: N3_11  and  C8_12 
REMARK    7  A    between atoms: C14_20  and  C15_21 
REMARK    8  A    between atoms: C15_21  and  N4_22 
REMARK       I    between atoms: N4_22  and  C16_23 
REMARK    9  A    between atoms: C16_23  and  C17_25 
ROOT
HETATM    1  C3  UNL     1      21.791   0.699  51.577  1.00  0.00     0.066 C 
ENDROOT
BRANCH   1   2
HETATM    2  C2  UNL     1      21.802   1.656  50.679  1.00  0.00     0.049 C 
BRANCH   2   3
HETATM    3  O1  UNL     1      20.438   1.713  50.707  1.00  0.00    -0.360 OA
HETATM    4  C1  UNL     1      19.536   1.300  49.718  1.00  0.00     0.209 C 
ENDBRANCH   2   3
BRANCH   2   5
HETATM    5  C14 UNL     1      23.049   2.204  50.094  1.00  0.00     0.084 C 
BRANCH   5   6
HETATM    6  C15 UNL     1      23.848   3.090  50.980  1.00  0.00     0.129 C 
BRANCH   6   7
HETATM    7  N4  UNL     1      25.167   2.574  51.173  1.00  0.00    -0.359 N 
HETATM    8  C16 UNL     1      25.349   2.464  52.600  1.00  0.00     0.251 C 
HETATM    9  O2  UNL     1      24.472   2.775  53.477  1.00  0.00    -0.271 OA
HETATM   10  H15 UNL     1      26.089   2.231  50.845  1.00  0.00     0.162 HD
BRANCH   8  11
HETATM   11  C17 UNL     1      26.466   2.012  53.448  1.00  0.00     0.313 C 
HETATM   12  C18 UNL     1      27.824   2.149  52.801  1.00  0.00     0.046 C 
HETATM   13  C19 UNL     1      28.820   1.867  53.901  1.00  0.00     0.004 C 
HETATM   14  C20 UNL     1      28.608   0.576  54.624  1.00  0.00     0.030 C 
HETATM   15  C21 UNL     1      27.189   0.151  54.784  1.00  0.00     0.273 C 
HETATM   16  N5  UNL     1      26.302   0.608  53.749  1.00  0.00     0.098 N 
HETATM   17  C22 UNL     1      26.492  -0.214  52.574  1.00  0.00     0.310 C 
ENDBRANCH   8  11
ENDBRANCH   6   7
ENDBRANCH   5   6
ENDBRANCH   2   5
ENDBRANCH   1   2
BRANCH   1  18
HETATM   18  C4  UNL     1      21.950  -0.062  52.797  1.00  0.00     0.090 A 
HETATM   19  N1  UNL     1      22.909  -0.430  53.596  1.00  0.00    -0.240 NA
HETATM   20  C5  UNL     1      22.401  -1.192  54.660  1.00  0.00     0.234 A 
HETATM   21  N2  UNL     1      21.132  -1.319  54.555  1.00  0.00    -0.238 NA
HETATM   22  C6  UNL     1      20.706  -0.620  53.368  1.00  0.00     0.102 A 
HETATM   23  C7  UNL     1      19.398  -0.731  53.233  1.00  0.00     0.122 C 
BRANCH  23  24
HETATM   24  N3  UNL     1      18.417  -1.405  54.045  1.00  0.00    -0.364 N 
HETATM   25  H7  UNL     1      18.397  -1.369  55.114  1.00  0.00     0.165 HD
BRANCH  24  26
HETATM   26  C8  UNL     1      17.386  -2.195  53.415  1.00  0.00     0.033 A 
HETATM   27  C9  UNL     1      17.384  -3.541  53.702  1.00  0.00     0.032 A 
HETATM   28  C10 UNL     1      16.443  -4.384  53.152  1.00  0.00     0.046 A 
HETATM   29  C11 UNL     1      15.512  -3.814  52.309  1.00  0.00     0.138 A 
HETATM   30  F1  UNL     1      14.515  -4.481  51.679  1.00  0.00    -0.204 F 
HETATM   31  C12 UNL     1      15.509  -2.451  52.017  1.00  0.00     0.074 A 
HETATM   32 CL1  UNL     1      14.358  -1.669  50.958  1.00  0.00    -0.081 Cl
HETATM   33  C13 UNL     1      16.463  -1.619  52.579  1.00  0.00     0.056 A 
ENDBRANCH  24  26
ENDBRANCH  23  24
ENDBRANCH   1  18
TORSDOF 9
ENDMDL
MODEL 5
REMARK VINA RESULT:      -7.2      3.631      8.158
REMARK  9 active torsions:
REMARK  status: ('A' for Active; 'I' for Inactive)
REMARK    1  A    between atoms: O1_2  and  C2_3 
REMARK    2  A    between atoms: C2_3  and  C3_4 
REMARK    3  A    between atoms: C2_3  and  C14_20 
REMARK    4  A    between atoms: C3_4  and  C4_5 
REMARK    5  A    between atoms: C7_10  and  N3_11 
REMARK    6  A    between atoms: N3_11  and  C8_12 
REMARK    7  A    between atoms: C14_20  and  C15_21 
REMARK    8  A    between atoms: C15_21  and  N4_22 
REMARK       I    between atoms: N4_22  and  C16_23 
REMARK    9  A    between atoms: C16_23  and  C17_25 
ROOT
HETATM    1  C3  UNL     1      25.292   5.140  49.605  1.00  0.00     0.066 C 
ENDROOT
BRANCH   1   2
HETATM    2  C2  UNL     1      26.118   5.694  48.749  1.00  0.00     0.049 C 
BRANCH   2   3
HETATM    3  O1  UNL     1      25.155   6.588  48.381  1.00  0.00    -0.360 OA
HETATM    4  C1  UNL     1      25.142   7.974  48.579  1.00  0.00     0.209 C 
ENDBRANCH   2   3
BRANCH   2   5
HETATM    5  C14 UNL     1      27.512   5.228  48.550  1.00  0.00     0.084 C 
BRANCH   5   6
HETATM    6  C15 UNL     1      28.537   6.292  48.396  1.00  0.00     0.129 C 
BRANCH   6   7
HETATM    7  N4  UNL     1      29.798   5.874  48.923  1.00  0.00    -0.359 N 
HETATM    8  C16 UNL     1      30.762   6.854  48.481  1.00  0.00     0.251 C 
HETATM    9  O2  UNL     1      30.490   7.877  47.765  1.00  0.00    -0.271 OA
HETATM   10  H15 UNL     1      30.418   5.238  49.457  1.00  0.00     0.162 HD
BRANCH   8  11
HETATM   11  C17 UNL     1      32.214   7.005  48.672  1.00  0.00     0.313 C 
HETATM   12  C18 UNL     1      32.846   8.053  47.787  1.00  0.00     0.046 C 
HETATM   13  C19 UNL     1      34.256   8.214  48.302  1.00  0.00     0.004 C 
HETATM   14  C20 UNL     1      35.036   6.943  48.405  1.00  0.00     0.030 C 
HETATM   15  C21 UNL     1      34.248   5.731  48.769  1.00  0.00     0.273 C 
HETATM   16  N5  UNL     1      32.873   5.758  48.354  1.00  0.00     0.098 N 
HETATM   17  C22 UNL     1      32.805   5.467  46.939  1.00  0.00     0.310 C 
ENDBRANCH   8  11
ENDBRANCH   6   7
ENDBRANCH   5   6
ENDBRANCH   2   5
ENDBRANCH   1   2
BRANCH   1  18
HETATM   18  C4  UNL     1      24.520   4.834  50.790  1.00  0.00     0.090 A 
HETATM   19  N1  UNL     1      23.616   5.399  51.535  1.00  0.00    -0.240 NA
HETATM   20  C5  UNL     1      23.244   4.552  52.592  1.00  0.00     0.234 A 
HETATM   21  N2  UNL     1      23.897   3.453  52.534  1.00  0.00    -0.238 NA
HETATM   22  C6  UNL     1      24.774   3.508  51.392  1.00  0.00     0.102 A 
HETATM   23  C7  UNL     1      25.461   2.385  51.305  1.00  0.00     0.122 C 
BRANCH  23  24
HETATM   24  N3  UNL     1      25.455   1.206  52.134  1.00  0.00    -0.364 N 
HETATM   25  H7  UNL     1      24.569   0.695  52.443  1.00  0.00     0.165 HD
BRANCH  24  26
HETATM   26  C8  UNL     1      26.704   0.654  52.604  1.00  0.00     0.033 A 
HETATM   27  C9  UNL     1      27.636   1.554  53.068  1.00  0.00     0.032 A 
HETATM   28  C10 UNL     1      28.860   1.132  53.539  1.00  0.00     0.046 A 
HETATM   29  C11 UNL     1      29.100  -0.226  53.520  1.00  0.00     0.138 A 
HETATM   30  F1  UNL     1      30.241  -0.825  53.939  1.00  0.00    -0.204 F 
HETATM   31  C12 UNL     1      28.160  -1.141  53.050  1.00  0.00     0.074 A 
HETATM   32 CL1  UNL     1      28.405  -2.872  53.000  1.00  0.00    -0.081 Cl
HETATM   33  C13 UNL     1      26.934  -0.698  52.582  1.00  0.00     0.056 A 
ENDBRANCH  24  26
ENDBRANCH  23  24
ENDBRANCH   1  18
TORSDOF 9
ENDMDL
MODEL 6
REMARK VINA RESULT:      -7.1      1.920      6.287
REMARK  9 active torsions:
REMARK  status: ('A' for Active; 'I' for Inactive)
REMARK    1  A    between atoms: O1_2  and  C2_3 
REMARK    2  A    between atoms: C2_3  and  C3_4 
REMARK    3  A    between atoms: C2_3  and  C14_20 
REMARK    4  A    between atoms: C3_4  and  C4_5 
REMARK    5  A    between atoms: C7_10  and  N3_11 
REMARK    6  A    between atoms: N3_11  and  C8_12 
REMARK    7  A    between atoms: C14_20  and  C15_21 
REMARK    8  A    between atoms: C15_21  and  N4_22 
REMARK       I    between atoms: N4_22  and  C16_23 
REMARK    9  A    between atoms: C16_23  and  C17_25 
ROOT
HETATM    1  C3  UNL     1      21.202   2.002  51.981  1.00  0.00     0.066 C 
ENDROOT
BRANCH   1   2
HETATM    2  C2  UNL     1      21.514   3.044  51.245  1.00  0.00     0.049 C 
BRANCH   2   3
HETATM    3  O1  UNL     1      22.404   2.290  50.536  1.00  0.00    -0.360 OA
HETATM    4  C1  UNL     1      22.474   2.115  49.148  1.00  0.00     0.209 C 
ENDBRANCH   2   3
BRANCH   2   5
HETATM    5  C14 UNL     1      20.897   4.380  51.430  1.00  0.00     0.084 C 
BRANCH   5   6
HETATM    6  C15 UNL     1      21.833   5.534  51.423  1.00  0.00     0.129 C 
BRANCH   6   7
HETATM    7  N4  UNL     1      23.186   5.101  51.259  1.00  0.00    -0.359 N 
HETATM    8  C16 UNL     1      23.627   5.637  49.994  1.00  0.00     0.251 C 
HETATM    9  O2  UNL     1      22.913   6.355  49.214  1.00  0.00    -0.271 OA
HETATM   10  H15 UNL     1      24.044   4.599  51.553  1.00  0.00     0.162 HD
BRANCH   8  11
HETATM   11  C17 UNL     1      24.894   5.560  49.247  1.00  0.00     0.313 C 
HETATM   12  C18 UNL     1      25.961   4.736  49.927  1.00  0.00     0.046 C 
HETATM   13  C19 UNL     1      27.064   4.588  48.906  1.00  0.00     0.004 C 
HETATM   14  C20 UNL     1      27.555   5.874  48.322  1.00  0.00     0.030 C 
HETATM   15  C21 UNL     1      26.528   6.940  48.153  1.00  0.00     0.273 C 
HETATM   16  N5  UNL     1      25.444   6.888  49.095  1.00  0.00     0.098 N 
HETATM   17  C22 UNL     1      25.898   7.423  50.360  1.00  0.00     0.310 C 
ENDBRANCH   8  11
ENDBRANCH   6   7
ENDBRANCH   5   6
ENDBRANCH   2   5
ENDBRANCH   1   2
BRANCH   1  18
HETATM   18  C4  UNL     1      21.260   0.870  52.880  1.00  0.00     0.090 A 
HETATM   19  N1  UNL     1      20.449   0.172  53.619  1.00  0.00    -0.240 NA
HETATM   20  C5  UNL     1      21.143  -0.848  54.290  1.00  0.00     0.234 A 
HETATM   21  N2  UNL     1      22.387  -0.813  53.991  1.00  0.00    -0.238 NA
HETATM   22  C6  UNL     1      22.600   0.274  53.069  1.00  0.00     0.102 A 
HETATM   23  C7  UNL     1      23.876   0.335  52.740  1.00  0.00     0.122 C 
BRANCH  23  24
HETATM   24  N3  UNL     1      24.998  -0.473  53.149  1.00  0.00    -0.364 N 
HETATM   25  H7  UNL     1      24.950  -1.530  53.303  1.00  0.00     0.165 HD
BRANCH  24  26
HETATM   26  C8  UNL     1      26.280   0.146  53.381  1.00  0.00     0.033 A 
HETATM   27  C9  UNL     1      26.280   1.512  53.548  1.00  0.00     0.032 A 
HETATM   28  C10 UNL     1      27.451   2.202  53.775  1.00  0.00     0.046 A 
HETATM   29  C11 UNL     1      28.612   1.459  53.825  1.00  0.00     0.138 A 
HETATM   30  F1  UNL     1      29.853   1.960  54.037  1.00  0.00    -0.204 F 
HETATM   31  C12 UNL     1      28.617   0.076  53.657  1.00  0.00     0.074 A 
HETATM   32 CL1  UNL     1      30.054  -0.921  53.709  1.00  0.00    -0.081 Cl
HETATM   33  C13 UNL     1      27.430  -0.600  53.430  1.00  0.00     0.056 A 
ENDBRANCH  24  26
ENDBRANCH  23  24
ENDBRANCH   1  18
TORSDOF 9
ENDMDL
MODEL 7
REMARK VINA RESULT:      -7.1      3.433      8.144
REMARK  9 active torsions:
REMARK  status: ('A' for Active; 'I' for Inactive)
REMARK    1  A    between atoms: O1_2  and  C2_3 
REMARK    2  A    between atoms: C2_3  and  C3_4 
REMARK    3  A    between atoms: C2_3  and  C14_20 
REMARK    4  A    between atoms: C3_4  and  C4_5 
REMARK    5  A    between atoms: C7_10  and  N3_11 
REMARK    6  A    between atoms: N3_11  and  C8_12 
REMARK    7  A    between atoms: C14_20  and  C15_21 
REMARK    8  A    between atoms: C15_21  and  N4_22 
REMARK       I    between atoms: N4_22  and  C16_23 
REMARK    9  A    between atoms: C16_23  and  C17_25 
ROOT
HETATM    1  C3  UNL     1      25.610   5.008  49.419  1.00  0.00     0.066 C 
ENDROOT
BRANCH   1   2
HETATM    2  C2  UNL     1      26.698   5.559  48.932  1.00  0.00     0.049 C 
BRANCH   2   3
HETATM    3  O1  UNL     1      26.116   6.792  49.000  1.00  0.00    -0.360 OA
HETATM    4  C1  UNL     1      25.402   7.466  48.002  1.00  0.00     0.209 C 
ENDBRANCH   2   3
BRANCH   2   5
HETATM    5  C14 UNL     1      27.906   4.782  48.567  1.00  0.00     0.084 C 
BRANCH   5   6
HETATM    6  C15 UNL     1      29.089   5.578  48.149  1.00  0.00     0.129 C 
BRANCH   6   7
HETATM    7  N4  UNL     1      29.184   6.794  48.894  1.00  0.00    -0.359 N 
HETATM    8  C16 UNL     1      29.283   7.854  47.921  1.00  0.00     0.251 C 
HETATM    9  O2  UNL     1      29.279   7.688  46.653  1.00  0.00    -0.271 OA
HETATM   10  H15 UNL     1      29.225   7.346  49.770  1.00  0.00     0.162 HD
BRANCH   8  11
HETATM   11  C17 UNL     1      29.408   9.318  48.026  1.00  0.00     0.313 C 
HETATM   12  C18 UNL     1      29.590  10.017  46.699  1.00  0.00     0.046 C 
HETATM   13  C19 UNL     1      29.455  11.490  47.002  1.00  0.00     0.004 C 
HETATM   14  C20 UNL     1      30.349  11.991  48.091  1.00  0.00     0.030 C 
HETATM   15  C21 UNL     1      30.620  11.030  49.197  1.00  0.00     0.273 C 
HETATM   16  N5  UNL     1      30.573   9.645  48.817  1.00  0.00     0.098 N 
HETATM   17  C22 UNL     1      31.798   9.307  48.126  1.00  0.00     0.310 C 
ENDBRANCH   8  11
ENDBRANCH   6   7
ENDBRANCH   5   6
ENDBRANCH   2   5
ENDBRANCH   1   2
BRANCH   1  18
HETATM   18  C4  UNL     1      24.557   4.564  50.305  1.00  0.00     0.090 A 
HETATM   19  N1  UNL     1      23.352   4.920  50.640  1.00  0.00    -0.240 NA
HETATM   20  C5  UNL     1      22.824   4.042  51.600  1.00  0.00     0.234 A 
HETATM   21  N2  UNL     1      23.673   3.129  51.886  1.00  0.00    -0.238 NA
HETATM   22  C6  UNL     1      24.861   3.355  51.101  1.00  0.00     0.102 A 
HETATM   23  C7  UNL     1      25.757   2.426  51.373  1.00  0.00     0.122 C 
BRANCH  23  24
HETATM   24  N3  UNL     1      25.713   1.305  52.279  1.00  0.00    -0.364 N 
HETATM   25  H7  UNL     1      24.809   0.870  52.649  1.00  0.00     0.165 HD
BRANCH  24  26
HETATM   26  C8  UNL     1      26.943   0.710  52.743  1.00  0.00     0.033 A 
HETATM   27  C9  UNL     1      27.879   1.570  53.270  1.00  0.00     0.032 A 
HETATM   28  C10 UNL     1      29.087   1.105  53.741  1.00  0.00     0.046 A 
HETATM   29  C11 UNL     1      29.307  -0.255  53.658  1.00  0.00     0.138 A 
HETATM   30  F1  UNL     1      30.430  -0.892  54.067  1.00  0.00    -0.204 F 
HETATM   31  C12 UNL     1      28.362  -1.129  53.125  1.00  0.00     0.074 A 
HETATM   32 CL1  UNL     1      28.582  -2.859  52.991  1.00  0.00    -0.081 Cl
HETATM   33  C13 UNL     1      27.153  -0.643  52.656  1.00  0.00     0.056 A 
ENDBRANCH  24  26
ENDBRANCH  23  24
ENDBRANCH   1  18
TORSDOF 9
ENDMDL
MODEL 8
REMARK VINA RESULT:      -7.0      5.029      6.860
REMARK  9 active torsions:
REMARK  status: ('A' for Active; 'I' for Inactive)
REMARK    1  A    between atoms: O1_2  and  C2_3 
REMARK    2  A    between atoms: C2_3  and  C3_4 
REMARK    3  A    between atoms: C2_3  and  C14_20 
REMARK    4  A    between atoms: C3_4  and  C4_5 
REMARK    5  A    between atoms: C7_10  and  N3_11 
REMARK    6  A    between atoms: N3_11  and  C8_12 
REMARK    7  A    between atoms: C14_20  and  C15_21 
REMARK    8  A    between atoms: C15_21  and  N4_22 
REMARK       I    between atoms: N4_22  and  C16_23 
REMARK    9  A    between atoms: C16_23  and  C17_25 
ROOT
HETATM    1  C3  UNL     1      28.050   6.886  48.281  1.00  0.00     0.066 C 
ENDROOT
BRANCH   1   2
HETATM    2  C2  UNL     1      27.002   6.122  48.485  1.00  0.00     0.049 C 
BRANCH   2   3
HETATM    3  O1  UNL     1      26.172   7.152  48.148  1.00  0.00    -0.360 OA
HETATM    4  C1  UNL     1      25.203   7.776  48.943  1.00  0.00     0.209 C 
ENDBRANCH   2   3
BRANCH   2   5
HETATM    5  C14 UNL     1      27.103   4.708  48.918  1.00  0.00     0.084 C 
BRANCH   5   6
HETATM    6  C15 UNL     1      26.006   4.216  49.792  1.00  0.00     0.129 C 
BRANCH   6   7
HETATM    7  N4  UNL     1      26.332   2.949  50.368  1.00  0.00    -0.359 N 
HETATM    8  C16 UNL     1      25.162   2.527  51.098  1.00  0.00     0.251 C 
HETATM    9  O2  UNL     1      24.072   3.189  51.180  1.00  0.00    -0.271 OA
HETATM   10  H15 UNL     1      26.964   2.149  50.557  1.00  0.00     0.162 HD
BRANCH   8  11
HETATM   11  C17 UNL     1      24.846   1.337  51.906  1.00  0.00     0.313 C 
HETATM   12  C18 UNL     1      23.629   1.496  52.786  1.00  0.00     0.046 C 
HETATM   13  C19 UNL     1      23.346   0.116  53.330  1.00  0.00     0.004 C 
HETATM   14  C20 UNL     1      24.508  -0.547  53.998  1.00  0.00     0.030 C 
HETATM   15  C21 UNL     1      25.846  -0.239  53.418  1.00  0.00     0.273 C 
HETATM   16  N5  UNL     1      25.951   1.050  52.793  1.00  0.00     0.098 N 
HETATM   17  C22 UNL     1      26.083   2.059  53.820  1.00  0.00     0.310 C 
ENDBRANCH   8  11
ENDBRANCH   6   7
ENDBRANCH   5   6
ENDBRANCH   2   5
ENDBRANCH   1   2
BRANCH   1  18
HETATM   18  C4  UNL     1      29.230   7.702  48.467  1.00  0.00     0.090 A 
HETATM   19  N1  UNL     1      29.540   8.964  48.529  1.00  0.00    -0.240 NA
HETATM   20  C5  UNL     1      30.920   9.126  48.736  1.00  0.00     0.234 A 
HETATM   21  N2  UNL     1      31.498   7.986  48.807  1.00  0.00    -0.238 NA
HETATM   22  C6  UNL     1      30.497   6.961  48.645  1.00  0.00     0.102 A 
HETATM   23  C7  UNL     1      31.063   5.772  48.716  1.00  0.00     0.122 C 
BRANCH  23  24
HETATM   24  N3  UNL     1      32.439   5.390  48.915  1.00  0.00    -0.364 N 
HETATM   25  H7  UNL     1      32.966   5.505  49.838  1.00  0.00     0.165 HD
BRANCH  24  26
HETATM   26  C8  UNL     1      33.188   4.818  47.821  1.00  0.00     0.033 A 
HETATM   27  C9  UNL     1      34.255   4.019  48.161  1.00  0.00     0.032 A 
HETATM   28  C10 UNL     1      35.037   3.425  47.194  1.00  0.00     0.046 A 
HETATM   29  C11 UNL     1      34.696   3.671  45.880  1.00  0.00     0.138 A 
HETATM   30  F1  UNL     1      35.345   3.177  44.798  1.00  0.00    -0.204 F 
HETATM   31  C12 UNL     1      33.616   4.479  45.531  1.00  0.00     0.074 A 
HETATM   32 CL1  UNL     1      33.135   4.829  43.886  1.00  0.00    -0.081 Cl
HETATM   33  C13 UNL     1      32.842   5.068  46.517  1.00  0.00     0.056 A 
ENDBRANCH  24  26
ENDBRANCH  23  24
ENDBRANCH   1  18
TORSDOF 9
ENDMDL
MODEL 9
REMARK VINA RESULT:      -6.9      2.488      3.359
REMARK  9 active torsions:
REMARK  status: ('A' for Active; 'I' for Inactive)
REMARK    1  A    between atoms: O1_2  and  C2_3 
REMARK    2  A    between atoms: C2_3  and  C3_4 
REMARK    3  A    between atoms: C2_3  and  C14_20 
REMARK    4  A    between atoms: C3_4  and  C4_5 
REMARK    5  A    between atoms: C7_10  and  N3_11 
REMARK    6  A    between atoms: N3_11  and  C8_12 
REMARK    7  A    between atoms: C14_20  and  C15_21 
REMARK    8  A    between atoms: C15_21  and  N4_22 
REMARK       I    between atoms: N4_22  and  C16_23 
REMARK    9  A    between atoms: C16_23  and  C17_25 
ROOT
HETATM    1  C3  UNL     1      21.069   4.404  49.411  1.00  0.00     0.066 C 
ENDROOT
BRANCH   1   2
HETATM    2  C2  UNL     1      20.007   3.726  49.043  1.00  0.00     0.049 C 
BRANCH   2   3
HETATM    3  O1  UNL     1      20.758   3.012  48.154  1.00  0.00    -0.360 OA
HETATM    4  C1  UNL     1      21.800   2.117  48.426  1.00  0.00     0.209 C 
ENDBRANCH   2   3
BRANCH   2   5
HETATM    5  C14 UNL     1      18.661   3.951  49.623  1.00  0.00     0.084 C 
BRANCH   5   6
HETATM    6  C15 UNL     1      18.252   3.011  50.698  1.00  0.00     0.129 C 
BRANCH   6   7
HETATM    7  N4  UNL     1      19.152   1.905  50.787  1.00  0.00    -0.359 N 
HETATM    8  C16 UNL     1      19.892   2.087  52.012  1.00  0.00     0.251 C 
HETATM    9  O2  UNL     1      19.734   3.061  52.825  1.00  0.00    -0.271 OA
HETATM   10  H15 UNL     1      19.579   1.023  50.446  1.00  0.00     0.162 HD
BRANCH   8  11
HETATM   11  C17 UNL     1      20.957   1.317  52.678  1.00  0.00     0.313 C 
HETATM   12  C18 UNL     1      21.653   0.323  51.779  1.00  0.00     0.046 C 
HETATM   13  C19 UNL     1      22.839  -0.171  52.572  1.00  0.00     0.004 C 
HETATM   14  C20 UNL     1      22.509  -0.696  53.933  1.00  0.00     0.030 C 
HETATM   15  C21 UNL     1      21.383  -0.015  54.632  1.00  0.00     0.273 C 
HETATM   16  N5  UNL     1      20.387   0.549  53.763  1.00  0.00     0.098 N 
HETATM   17  C22 UNL     1      19.537  -0.514  53.273  1.00  0.00     0.310 C 
ENDBRANCH   8  11
ENDBRANCH   6   7
ENDBRANCH   5   6
ENDBRANCH   2   5
ENDBRANCH   1   2
BRANCH   1  18
HETATM   18  C4  UNL     1      21.954   5.425  49.929  1.00  0.00     0.090 A 
HETATM   19  N1  UNL     1      22.154   6.702  49.787  1.00  0.00    -0.240 NA
HETATM   20  C5  UNL     1      23.213   7.132  50.602  1.00  0.00     0.234 A 
HETATM   21  N2  UNL     1      23.695   6.148  51.264  1.00  0.00    -0.238 NA
HETATM   22  C6  UNL     1      22.955   4.962  50.913  1.00  0.00     0.102 A 
HETATM   23  C7  UNL     1      23.429   3.929  51.582  1.00  0.00     0.122 C 
BRANCH  23  24
HETATM   24  N3  UNL     1      24.503   3.833  52.539  1.00  0.00    -0.364 N 
HETATM   25  H7  UNL     1      24.778   4.617  53.212  1.00  0.00     0.165 HD
BRANCH  24  26
HETATM   26  C8  UNL     1      25.285   2.622  52.619  1.00  0.00     0.033 A 
HETATM   27  C9  UNL     1      25.805   2.149  51.437  1.00  0.00     0.032 A 
HETATM   28  C10 UNL     1      26.565   1.000  51.403  1.00  0.00     0.046 A 
HETATM   29  C11 UNL     1      26.776   0.357  52.605  1.00  0.00     0.138 A 
HETATM   30  F1  UNL     1      27.493  -0.781  52.768  1.00  0.00    -0.204 F 
HETATM   31  C12 UNL     1      26.252   0.833  53.805  1.00  0.00     0.074 A 
HETATM   32 CL1  UNL     1      26.483   0.063  55.359  1.00  0.00    -0.081 Cl
HETATM   33  C13 UNL     1      25.490   1.989  53.819  1.00  0.00     0.056 A 
ENDBRANCH  24  26
ENDBRANCH  23  24
ENDBRANCH   1  18
TORSDOF 9
ENDMDL
