MODEL 1
REMARK VINA RESULT:      -9.2      0.000      0.000
REMARK  2 active torsions:
REMARK  status: ('A' for Active; 'I' for Inactive)
REMARK    1  A    between atoms: C15_19  and  N3_20 
REMARK    2  A    between atoms: N3_20  and  C16_21 
ROOT
HETATM    1  O1  UNL     1      24.019   3.569  52.653  1.00  0.00    -0.291 OA
HETATM    2  C1  UNL     1      24.614   3.066  51.669  1.00  0.00     0.175 C 
HETATM    3  C2  UNL     1      23.328   2.981  50.985  1.00  0.00     0.050 C 
HETATM    4  C3  UNL     1      22.231   3.403  51.616  1.00  0.00     0.006 C 
HETATM    5  C4  UNL     1      20.854   3.360  50.991  1.00  0.00     0.297 C 
HETATM    6  N1  UNL     1      20.355   4.753  50.942  1.00  0.00     0.088 N 
HETATM    7  C5  UNL     1      21.217   5.427  50.014  1.00  0.00     0.295 C 
HETATM    8  C6  UNL     1      20.994   6.898  49.871  1.00  0.00     0.197 C 
HETATM    9  O2  UNL     1      21.912   7.385  48.969  1.00  0.00    -0.389 OA
HETATM   10  C7  UNL     1      21.833   8.763  48.816  1.00  0.00     0.172 C 
HETATM   11  C8  UNL     1      22.936   9.188  47.816  1.00  0.00     0.064 C 
HETATM   12  C9  UNL     1      24.209   8.681  48.401  1.00  0.00    -0.059 C 
HETATM   13  C10 UNL     1      25.260   8.304  47.696  1.00  0.00    -0.014 C 
HETATM   14  C11 UNL     1      26.328   7.403  48.194  1.00  0.00     0.086 C 
HETATM   15  C12 UNL     1      25.861   6.872  49.523  1.00  0.00     0.037 C 
HETATM   16  N2  UNL     1      25.725   5.673  50.032  1.00  0.00    -0.265 NA
HETATM   17  C13 UNL     1      26.051   4.515  49.277  1.00  0.00     0.115 C 
HETATM   18  C14 UNL     1      26.095   3.270  49.700  1.00  0.00     0.025 C 
HETATM   19  C15 UNL     1      25.856   2.589  50.983  1.00  0.00     0.180 C 
HETATM   20  C22 UNL     1      25.522   8.052  50.317  1.00  0.00     0.028 C 
HETATM   21  C23 UNL     1      24.384   8.530  49.839  1.00  0.00     0.009 C 
HETATM   22  H5  UNL     1      19.368   4.754  50.637  1.00  0.00     0.316 HD
ENDROOT
BRANCH  19  23
HETATM   23  N3  UNL     1      26.947   2.875  51.872  1.00  0.00    -0.375 N 
HETATM   24  H20 UNL     1      27.307   3.868  52.002  1.00  0.00     0.160 HD
BRANCH  23  25
HETATM   25  C16 UNL     1      27.632   1.880  52.644  1.00  0.00     0.030 A 
HETATM   26  C17 UNL     1      28.584   2.197  53.611  1.00  0.00     0.029 A 
HETATM   27  C18 UNL     1      29.222   1.205  54.331  1.00  0.00     0.004 A 
HETATM   28  C19 UNL     1      28.919  -0.114  54.096  1.00  0.00     0.019 A 
HETATM   29  C20 UNL     1      27.978  -0.502  53.144  1.00  0.00     0.013 A 
HETATM   30 BR1  UNL     1      27.556  -2.332  52.815  1.00  0.00    -0.051 Br
HETATM   31  C21 UNL     1      27.370   0.540  52.453  1.00  0.00     0.048 A 
ENDBRANCH  23  25
ENDBRANCH  19  23
TORSDOF 2
ENDMDL
MODEL 2
REMARK VINA RESULT:      -9.0      3.627      7.301
REMARK  2 active torsions:
REMARK  status: ('A' for Active; 'I' for Inactive)
REMARK    1  A    between atoms: C15_19  and  N3_20 
REMARK    2  A    between atoms: N3_20  and  C16_21 
ROOT
HETATM    1  O1  UNL     1      25.123   2.873  53.092  1.00  0.00    -0.291 OA
HETATM    2  C1  UNL     1      25.237   2.684  51.856  1.00  0.00     0.175 C 
HETATM    3  C2  UNL     1      25.217   1.248  52.114  1.00  0.00     0.050 C 
HETATM    4  C3  UNL     1      25.112   0.820  53.372  1.00  0.00     0.006 C 
HETATM    5  C4  UNL     1      25.079  -0.648  53.741  1.00  0.00     0.297 C 
HETATM    6  N1  UNL     1      23.790  -0.894  54.427  1.00  0.00     0.088 N 
HETATM    7  C5  UNL     1      22.786  -0.690  53.424  1.00  0.00     0.295 C 
HETATM    8  C6  UNL     1      21.370  -0.766  53.896  1.00  0.00     0.197 C 
HETATM    9  O2  UNL     1      20.546  -0.525  52.821  1.00  0.00    -0.389 OA
HETATM   10  C7  UNL     1      19.202  -0.506  53.171  1.00  0.00     0.172 C 
HETATM   11  C8  UNL     1      18.389  -0.187  51.892  1.00  0.00     0.064 C 
HETATM   12  C9  UNL     1      18.940   1.103  51.392  1.00  0.00    -0.059 C 
HETATM   13  C10 UNL     1      18.983   1.459  50.121  1.00  0.00    -0.014 C 
HETATM   14  C11 UNL     1      19.895   2.486  49.564  1.00  0.00     0.086 C 
HETATM   15  C12 UNL     1      20.855   2.853  50.664  1.00  0.00     0.037 C 
HETATM   16  N2  UNL     1      22.161   2.901  50.760  1.00  0.00    -0.265 NA
HETATM   17  C13 UNL     1      22.991   2.556  49.660  1.00  0.00     0.115 C 
HETATM   18  C14 UNL     1      24.296   2.688  49.570  1.00  0.00     0.025 C 
HETATM   19  C15 UNL     1      25.363   3.188  50.452  1.00  0.00     0.180 C 
HETATM   20  C22 UNL     1      20.019   3.214  51.807  1.00  0.00     0.028 C 
HETATM   21  C23 UNL     1      19.517   2.090  52.294  1.00  0.00     0.009 C 
HETATM   22  H5  UNL     1      23.781  -1.855  54.807  1.00  0.00     0.316 HD
ENDROOT
BRANCH  19  23
HETATM   23  N3  UNL     1      25.275   4.620  50.524  1.00  0.00    -0.375 N 
HETATM   24  H20 UNL     1      24.592   5.098  51.184  1.00  0.00     0.160 HD
BRANCH  23  25
HETATM   25  C16 UNL     1      26.076   5.511  49.736  1.00  0.00     0.030 A 
HETATM   26  C17 UNL     1      27.117   5.071  48.923  1.00  0.00     0.029 A 
HETATM   27  C18 UNL     1      27.865   5.965  48.181  1.00  0.00     0.004 A 
HETATM   28  C19 UNL     1      27.584   7.309  48.242  1.00  0.00     0.019 A 
HETATM   29  C20 UNL     1      26.557   7.817  49.035  1.00  0.00     0.013 A 
HETATM   30 BR1  UNL     1      26.165   9.681  49.121  1.00  0.00    -0.051 Br
HETATM   31  C21 UNL     1      25.840   6.869  49.756  1.00  0.00     0.048 A 
ENDBRANCH  23  25
ENDBRANCH  19  23
TORSDOF 2
ENDMDL
MODEL 3
REMARK VINA RESULT:      -8.9      3.563      7.624
REMARK  2 active torsions:
REMARK  status: ('A' for Active; 'I' for Inactive)
REMARK    1  A    between atoms: C15_19  and  N3_20 
REMARK    2  A    between atoms: N3_20  and  C16_21 
ROOT
HETATM    1  O1  UNL     1      22.054   1.929  49.740  1.00  0.00    -0.291 OA
HETATM    2  C1  UNL     1      22.506   2.967  50.283  1.00  0.00     0.175 C 
HETATM    3  C2  UNL     1      21.495   2.816  51.323  1.00  0.00     0.050 C 
HETATM    4  C3  UNL     1      20.642   1.792  51.252  1.00  0.00     0.006 C 
HETATM    5  C4  UNL     1      19.562   1.548  52.284  1.00  0.00     0.297 C 
HETATM    6  N1  UNL     1      19.819   0.214  52.872  1.00  0.00     0.088 N 
HETATM    7  C5  UNL     1      21.056   0.350  53.584  1.00  0.00     0.295 C 
HETATM    8  C6  UNL     1      21.603  -0.906  54.182  1.00  0.00     0.197 C 
HETATM    9  O2  UNL     1      22.795  -0.603  54.801  1.00  0.00    -0.389 OA
HETATM   10  C7  UNL     1      23.422  -1.722  55.333  1.00  0.00     0.172 C 
HETATM   11  C8  UNL     1      24.760  -1.257  55.959  1.00  0.00     0.064 C 
HETATM   12  C9  UNL     1      25.491  -0.577  54.853  1.00  0.00    -0.059 C 
HETATM   13  C10 UNL     1      26.341   0.420  55.018  1.00  0.00    -0.014 C 
HETATM   14  C11 UNL     1      26.725   1.383  53.959  1.00  0.00     0.086 C 
HETATM   15  C12 UNL     1      25.818   1.121  52.787  1.00  0.00     0.037 C 
HETATM   16  N2  UNL     1      25.025   1.868  52.058  1.00  0.00    -0.265 NA
HETATM   17  C13 UNL     1      24.887   3.258  52.315  1.00  0.00     0.115 C 
HETATM   18  C14 UNL     1      24.243   4.145  51.588  1.00  0.00     0.025 C 
HETATM   19  C15 UNL     1      23.467   4.113  50.338  1.00  0.00     0.180 C 
HETATM   20  C22 UNL     1      25.947  -0.308  52.506  1.00  0.00     0.028 C 
HETATM   21  C23 UNL     1      25.297  -0.954  53.460  1.00  0.00     0.009 C 
HETATM   22  H5  UNL     1      19.032  -0.045  53.491  1.00  0.00     0.316 HD
ENDROOT
BRANCH  19  23
HETATM   23  N3  UNL     1      24.370   3.941  49.234  1.00  0.00    -0.375 N 
HETATM   24  H20 UNL     1      24.263   3.129  48.556  1.00  0.00     0.160 HD
BRANCH  23  25
HETATM   25  C16 UNL     1      25.464   4.823  48.951  1.00  0.00     0.030 A 
HETATM   26  C17 UNL     1      26.793   4.403  48.957  1.00  0.00     0.029 A 
HETATM   27  C18 UNL     1      27.818   5.287  48.681  1.00  0.00     0.004 A 
HETATM   28  C19 UNL     1      27.532   6.599  48.395  1.00  0.00     0.019 A 
HETATM   29  C20 UNL     1      26.226   7.086  48.371  1.00  0.00     0.013 A 
HETATM   30 BR1  UNL     1      25.826   8.908  47.974  1.00  0.00    -0.051 Br
HETATM   31  C21 UNL     1      25.239   6.150  48.656  1.00  0.00     0.048 A 
ENDBRANCH  23  25
ENDBRANCH  19  23
TORSDOF 2
ENDMDL
MODEL 4
REMARK VINA RESULT:      -8.9      4.536      7.651
REMARK  2 active torsions:
REMARK  status: ('A' for Active; 'I' for Inactive)
REMARK    1  A    between atoms: C15_19  and  N3_20 
REMARK    2  A    between atoms: N3_20  and  C16_21 
ROOT
HETATM    1  O1  UNL     1      22.216  -0.937  52.330  1.00  0.00    -0.291 OA
HETATM    2  C1  UNL     1      21.596  -0.033  52.941  1.00  0.00     0.175 C 
HETATM    3  C2  UNL     1      22.824   0.261  53.672  1.00  0.00     0.050 C 
HETATM    4  C3  UNL     1      23.915  -0.463  53.419  1.00  0.00     0.006 C 
HETATM    5  C4  UNL     1      25.236  -0.233  54.121  1.00  0.00     0.297 C 
HETATM    6  N1  UNL     1      26.230   0.104  53.076  1.00  0.00     0.088 N 
HETATM    7  C5  UNL     1      25.807   1.369  52.551  1.00  0.00     0.295 C 
HETATM    8  C6  UNL     1      26.589   1.884  51.386  1.00  0.00     0.197 C 
HETATM    9  O2  UNL     1      26.040   3.084  50.997  1.00  0.00    -0.389 OA
HETATM   10  C7  UNL     1      26.656   3.615  49.871  1.00  0.00     0.172 C 
HETATM   11  C8  UNL     1      25.926   4.933  49.514  1.00  0.00     0.064 C 
HETATM   12  C9  UNL     1      24.495   4.551  49.342  1.00  0.00    -0.059 C 
HETATM   13  C10 UNL     1      23.472   5.346  49.596  1.00  0.00    -0.014 C 
HETATM   14  C11 UNL     1      22.091   4.878  49.865  1.00  0.00     0.086 C 
HETATM   15  C12 UNL     1      22.158   3.380  49.994  1.00  0.00     0.037 C 
HETATM   16  N2  UNL     1      21.765   2.522  50.903  1.00  0.00    -0.265 NA
HETATM   17  C13 UNL     1      21.115   2.955  52.088  1.00  0.00     0.115 C 
HETATM   18  C14 UNL     1      20.550   2.206  53.010  1.00  0.00     0.025 C 
HETATM   19  C15 UNL     1      20.357   0.761  53.215  1.00  0.00     0.180 C 
HETATM   20  C22 UNL     1      22.824   2.914  48.779  1.00  0.00     0.028 C 
HETATM   21  C23 UNL     1      24.106   3.221  48.895  1.00  0.00     0.009 C 
HETATM   22  H5  UNL     1      27.172   0.145  53.499  1.00  0.00     0.316 HD
ENDROOT
BRANCH  19  23
HETATM   23  N3  UNL     1      19.360   0.290  52.295  1.00  0.00    -0.375 N 
HETATM   24  H20 UNL     1      19.267   0.707  51.321  1.00  0.00     0.160 HD
BRANCH  23  25
HETATM   25  C16 UNL     1      18.424  -0.754  52.595  1.00  0.00     0.030 A 
HETATM   26  C17 UNL     1      18.709  -1.791  53.481  1.00  0.00     0.029 A 
HETATM   27  C18 UNL     1      17.778  -2.779  53.740  1.00  0.00     0.004 A 
HETATM   28  C19 UNL     1      16.553  -2.745  53.119  1.00  0.00     0.019 A 
HETATM   29  C20 UNL     1      16.203  -1.738  52.222  1.00  0.00     0.013 A 
HETATM   30 BR1  UNL     1      14.504  -1.689  51.358  1.00  0.00    -0.051 Br
HETATM   31  C21 UNL     1      17.180  -0.774  52.003  1.00  0.00     0.048 A 
ENDBRANCH  23  25
ENDBRANCH  19  23
TORSDOF 2
ENDMDL
MODEL 5
REMARK VINA RESULT:      -8.7      1.729      1.945
REMARK  2 active torsions:
REMARK  status: ('A' for Active; 'I' for Inactive)
REMARK    1  A    between atoms: C15_19  and  N3_20 
REMARK    2  A    between atoms: N3_20  and  C16_21 
ROOT
HETATM    1  O1  UNL     1      23.635   3.673  51.128  1.00  0.00    -0.291 OA
HETATM    2  C1  UNL     1      24.599   3.155  50.512  1.00  0.00     0.175 C 
HETATM    3  C2  UNL     1      23.738   3.041  49.340  1.00  0.00     0.050 C 
HETATM    4  C3  UNL     1      22.476   3.465  49.422  1.00  0.00     0.006 C 
HETATM    5  C4  UNL     1      21.507   3.393  48.261  1.00  0.00     0.297 C 
HETATM    6  N1  UNL     1      21.079   4.779  47.967  1.00  0.00     0.088 N 
HETATM    7  C5  UNL     1      22.257   5.443  47.490  1.00  0.00     0.295 C 
HETATM    8  C6  UNL     1      22.117   6.907  47.228  1.00  0.00     0.197 C 
HETATM    9  O2  UNL     1      23.336   7.385  46.803  1.00  0.00    -0.389 OA
HETATM   10  C7  UNL     1      23.330   8.759  46.598  1.00  0.00     0.172 C 
HETATM   11  C8  UNL     1      24.758   9.175  46.166  1.00  0.00     0.064 C 
HETATM   12  C9  UNL     1      25.651   8.693  47.258  1.00  0.00    -0.059 C 
HETATM   13  C10 UNL     1      26.904   8.313  47.089  1.00  0.00    -0.014 C 
HETATM   14  C11 UNL     1      27.650   7.436  48.023  1.00  0.00     0.086 C 
HETATM   15  C12 UNL     1      26.652   6.928  49.030  1.00  0.00     0.037 C 
HETATM   16  N2  UNL     1      26.310   5.738  49.458  1.00  0.00    -0.265 NA
HETATM   17  C13 UNL     1      26.932   4.568  48.947  1.00  0.00     0.115 C 
HETATM   18  C14 UNL     1      26.788   3.333  49.378  1.00  0.00     0.025 C 
HETATM   19  C15 UNL     1      26.016   2.677  50.446  1.00  0.00     0.180 C 
HETATM   20  C22 UNL     1      26.001   8.121  49.569  1.00  0.00     0.028 C 
HETATM   21  C23 UNL     1      25.184   8.576  48.632  1.00  0.00     0.009 C 
HETATM   22  H5  UNL     1      20.321   4.762  47.264  1.00  0.00     0.316 HD
ENDROOT
BRANCH  19  23
HETATM   23  N3  UNL     1      26.613   2.994  51.713  1.00  0.00    -0.375 N 
HETATM   24  H20 UNL     1      26.927   3.984  51.943  1.00  0.00     0.160 HD
BRANCH  23  25
HETATM   25  C16 UNL     1      26.834   2.035  52.756  1.00  0.00     0.030 A 
HETATM   26  C17 UNL     1      25.944   1.849  53.811  1.00  0.00     0.029 A 
HETATM   27  C18 UNL     1      26.197   0.914  54.796  1.00  0.00     0.004 A 
HETATM   28  C19 UNL     1      27.340   0.154  54.741  1.00  0.00     0.019 A 
HETATM   29  C20 UNL     1      28.272   0.289  53.715  1.00  0.00     0.013 A 
HETATM   30 BR1  UNL     1      29.860  -0.765  53.636  1.00  0.00    -0.051 Br
HETATM   31  C21 UNL     1      27.962   1.244  52.754  1.00  0.00     0.048 A 
ENDBRANCH  23  25
ENDBRANCH  19  23
TORSDOF 2
ENDMDL
MODEL 6
REMARK VINA RESULT:      -8.6      3.382      7.731
REMARK  2 active torsions:
REMARK  status: ('A' for Active; 'I' for Inactive)
REMARK    1  A    between atoms: C15_19  and  N3_20 
REMARK    2  A    between atoms: N3_20  and  C16_21 
ROOT
HETATM    1  O1  UNL     1      25.412   3.454  51.892  1.00  0.00    -0.291 OA
HETATM    2  C1  UNL     1      25.122   3.109  50.721  1.00  0.00     0.175 C 
HETATM    3  C2  UNL     1      25.600   1.768  51.039  1.00  0.00     0.050 C 
HETATM    4  C3  UNL     1      26.081   1.527  52.260  1.00  0.00     0.006 C 
HETATM    5  C4  UNL     1      26.597   0.170  52.688  1.00  0.00     0.297 C 
HETATM    6  N1  UNL     1      25.767  -0.269  53.832  1.00  0.00     0.088 N 
HETATM    7  C5  UNL     1      24.455  -0.470  53.290  1.00  0.00     0.295 C 
HETATM    8  C6  UNL     1      23.388  -0.810  54.278  1.00  0.00     0.197 C 
HETATM    9  O2  UNL     1      22.199  -0.944  53.597  1.00  0.00    -0.389 OA
HETATM   10  C7  UNL     1      21.124  -1.194  54.441  1.00  0.00     0.172 C 
HETATM   11  C8  UNL     1      19.851  -1.282  53.564  1.00  0.00     0.064 C 
HETATM   12  C9  UNL     1      19.798   0.010  52.823  1.00  0.00    -0.059 C 
HETATM   13  C10 UNL     1      19.278   0.163  51.619  1.00  0.00    -0.014 C 
HETATM   14  C11 UNL     1      19.601   1.281  50.700  1.00  0.00     0.086 C 
HETATM   15  C12 UNL     1      20.747   2.033  51.319  1.00  0.00     0.037 C 
HETATM   16  N2  UNL     1      21.930   2.408  50.897  1.00  0.00    -0.265 NA
HETATM   17  C13 UNL     1      22.368   2.106  49.580  1.00  0.00     0.115 C 
HETATM   18  C14 UNL     1      23.460   2.532  48.983  1.00  0.00     0.025 C 
HETATM   19  C15 UNL     1      24.586   3.405  49.355  1.00  0.00     0.180 C 
HETATM   20  C22 UNL     1      20.314   2.356  52.677  1.00  0.00     0.028 C 
HETATM   21  C23 UNL     1      20.359   1.234  53.378  1.00  0.00     0.009 C 
HETATM   22  H5  UNL     1      26.166  -1.133  54.235  1.00  0.00     0.316 HD
ENDROOT
BRANCH  19  23
HETATM   23  N3  UNL     1      24.131   4.767  49.381  1.00  0.00    -0.375 N 
HETATM   24  H20 UNL     1      23.095   5.003  49.341  1.00  0.00     0.160 HD
BRANCH  23  25
HETATM   25  C16 UNL     1      25.005   5.900  49.462  1.00  0.00     0.030 A 
HETATM   26  C17 UNL     1      24.711   7.027  50.227  1.00  0.00     0.029 A 
HETATM   27  C18 UNL     1      25.581   8.099  50.275  1.00  0.00     0.004 A 
HETATM   28  C19 UNL     1      26.754   8.061  49.561  1.00  0.00     0.019 A 
HETATM   29  C20 UNL     1      27.110   6.967  48.776  1.00  0.00     0.013 A 
HETATM   30 BR1  UNL     1      28.738   6.912  47.783  1.00  0.00    -0.051 Br
HETATM   31  C21 UNL     1      26.196   5.920  48.768  1.00  0.00     0.048 A 
ENDBRANCH  23  25
ENDBRANCH  19  23
TORSDOF 2
ENDMDL
MODEL 7
REMARK VINA RESULT:      -8.4      2.394      5.292
REMARK  2 active torsions:
REMARK  status: ('A' for Active; 'I' for Inactive)
REMARK    1  A    between atoms: C15_19  and  N3_20 
REMARK    2  A    between atoms: N3_20  and  C16_21 
ROOT
HETATM    1  O1  UNL     1      25.037   3.505  49.330  1.00  0.00    -0.291 OA
HETATM    2  C1  UNL     1      25.093   3.552  50.583  1.00  0.00     0.175 C 
HETATM    3  C2  UNL     1      24.261   4.749  50.536  1.00  0.00     0.050 C 
HETATM    4  C3  UNL     1      23.866   5.215  49.350  1.00  0.00     0.006 C 
HETATM    5  C4  UNL     1      22.998   6.446  49.197  1.00  0.00     0.297 C 
HETATM    6  N1  UNL     1      21.757   6.019  48.512  1.00  0.00     0.088 N 
HETATM    7  C5  UNL     1      21.095   5.151  49.441  1.00  0.00     0.295 C 
HETATM    8  C6  UNL     1      19.855   4.486  48.938  1.00  0.00     0.197 C 
HETATM    9  O2  UNL     1      19.365   3.678  49.940  1.00  0.00    -0.389 OA
HETATM   10  C7  UNL     1      18.244   2.958  49.546  1.00  0.00     0.172 C 
HETATM   11  C8  UNL     1      17.819   2.065  50.738  1.00  0.00     0.064 C 
HETATM   12  C9  UNL     1      19.024   1.250  51.064  1.00  0.00    -0.059 C 
HETATM   13  C10 UNL     1      19.327   0.808  52.270  1.00  0.00    -0.014 C 
HETATM   14  C11 UNL     1      20.686   0.404  52.702  1.00  0.00     0.086 C 
HETATM   15  C12 UNL     1      21.626   0.794  51.593  1.00  0.00     0.037 C 
HETATM   16  N2  UNL     1      22.728   1.500  51.534  1.00  0.00    -0.265 NA
HETATM   17  C13 UNL     1      23.282   2.094  52.699  1.00  0.00     0.115 C 
HETATM   18  C14 UNL     1      24.441   2.705  52.812  1.00  0.00     0.025 C 
HETATM   19  C15 UNL     1      25.556   3.016  51.902  1.00  0.00     0.180 C 
HETATM   20  C22 UNL     1      21.073   0.189  50.382  1.00  0.00     0.028 C 
HETATM   21  C23 UNL     1      20.004   0.893  50.047  1.00  0.00     0.009 C 
HETATM   22  H5  UNL     1      21.193   6.852  48.275  1.00  0.00     0.316 HD
ENDROOT
BRANCH  19  23
HETATM   23  N3  UNL     1      26.279   1.808  51.621  1.00  0.00    -0.375 N 
HETATM   24  H20 UNL     1      26.092   1.247  50.736  1.00  0.00     0.160 HD
BRANCH  23  25
HETATM   25  C16 UNL     1      27.288   1.261  52.479  1.00  0.00     0.030 A 
HETATM   26  C17 UNL     1      28.057   2.046  53.336  1.00  0.00     0.029 A 
HETATM   27  C18 UNL     1      29.022   1.478  54.145  1.00  0.00     0.004 A 
HETATM   28  C19 UNL     1      29.231   0.121  54.111  1.00  0.00     0.019 A 
HETATM   29  C20 UNL     1      28.499  -0.723  53.278  1.00  0.00     0.013 A 
HETATM   30 BR1  UNL     1      28.788  -2.607  53.228  1.00  0.00    -0.051 Br
HETATM   31  C21 UNL     1      27.544  -0.093  52.489  1.00  0.00     0.048 A 
ENDBRANCH  23  25
ENDBRANCH  19  23
TORSDOF 2
ENDMDL
MODEL 8
REMARK VINA RESULT:      -8.3      1.831      2.573
REMARK  2 active torsions:
REMARK  status: ('A' for Active; 'I' for Inactive)
REMARK    1  A    between atoms: C15_19  and  N3_20 
REMARK    2  A    between atoms: N3_20  and  C16_21 
ROOT
HETATM    1  O1  UNL     1      21.884   4.868  52.056  1.00  0.00    -0.291 OA
HETATM    2  C1  UNL     1      22.416   3.969  51.360  1.00  0.00     0.175 C 
HETATM    3  C2  UNL     1      21.495   4.314  50.282  1.00  0.00     0.050 C 
HETATM    4  C3  UNL     1      20.606   5.288  50.479  1.00  0.00     0.006 C 
HETATM    5  C4  UNL     1      19.613   5.721  49.422  1.00  0.00     0.297 C 
HETATM    6  N1  UNL     1      19.875   7.151  49.140  1.00  0.00     0.088 N 
HETATM    7  C5  UNL     1      21.174   7.181  48.533  1.00  0.00     0.295 C 
HETATM    8  C6  UNL     1      21.729   8.540  48.252  1.00  0.00     0.197 C 
HETATM    9  O2  UNL     1      22.979   8.387  47.698  1.00  0.00    -0.389 OA
HETATM   10  C7  UNL     1      23.612   9.601  47.462  1.00  0.00     0.172 C 
HETATM   11  C8  UNL     1      25.015   9.293  46.882  1.00  0.00     0.064 C 
HETATM   12  C9  UNL     1      25.669   8.413  47.891  1.00  0.00    -0.059 C 
HETATM   13  C10 UNL     1      26.564   7.483  47.608  1.00  0.00    -0.014 C 
HETATM   14  C11 UNL     1      26.885   6.331  48.483  1.00  0.00     0.086 C 
HETATM   15  C12 UNL     1      25.870   6.336  49.595  1.00  0.00     0.037 C 
HETATM   16  N2  UNL     1      25.043   5.444  50.082  1.00  0.00    -0.265 NA
HETATM   17  C13 UNL     1      24.974   4.133  49.540  1.00  0.00     0.115 C 
HETATM   18  C14 UNL     1      24.299   3.107  50.010  1.00  0.00     0.025 C 
HETATM   19  C15 UNL     1      23.416   2.873  51.165  1.00  0.00     0.180 C 
HETATM   20  C22 UNL     1      25.927   7.679  50.168  1.00  0.00     0.028 C 
HETATM   21  C23 UNL     1      25.341   8.496  49.307  1.00  0.00     0.009 C 
HETATM   22  H5  UNL     1      19.137   7.518  48.516  1.00  0.00     0.316 HD
ENDROOT
BRANCH  19  23
HETATM   23  N3  UNL     1      24.212   2.830  52.359  1.00  0.00    -0.375 N 
HETATM   24  H20 UNL     1      24.541   3.723  52.835  1.00  0.00     0.160 HD
BRANCH  23  25
HETATM   25  C16 UNL     1      24.625   1.617  53.002  1.00  0.00     0.030 A 
HETATM   26  C17 UNL     1      23.767   0.538  53.201  1.00  0.00     0.029 A 
HETATM   27  C18 UNL     1      24.206  -0.612  53.828  1.00  0.00     0.004 A 
HETATM   28  C19 UNL     1      25.506  -0.700  54.264  1.00  0.00     0.019 A 
HETATM   29  C20 UNL     1      26.417   0.341  54.098  1.00  0.00     0.013 A 
HETATM   30 BR1  UNL     1      28.222   0.222  54.702  1.00  0.00    -0.051 Br
HETATM   31  C21 UNL     1      25.917   1.470  53.460  1.00  0.00     0.048 A 
ENDBRANCH  23  25
ENDBRANCH  19  23
TORSDOF 2
ENDMDL
MODEL 9
REMARK VINA RESULT:      -8.3      4.170      6.860
REMARK  2 active torsions:
REMARK  status: ('A' for Active; 'I' for Inactive)
REMARK    1  A    between atoms: C15_19  and  N3_20 
REMARK    2  A    between atoms: N3_20  and  C16_21 
ROOT
HETATM    1  O1  UNL     1      22.615   5.811  48.143  1.00  0.00    -0.291 OA
HETATM    2  C1  UNL     1      23.184   5.800  49.263  1.00  0.00     0.175 C 
HETATM    3  C2  UNL     1      21.971   6.370  49.840  1.00  0.00     0.050 C 
HETATM    4  C3  UNL     1      20.935   6.629  49.040  1.00  0.00     0.006 C 
HETATM    5  C4  UNL     1      19.634   7.216  49.544  1.00  0.00     0.297 C 
HETATM    6  N1  UNL     1      18.567   6.239  49.228  1.00  0.00     0.088 N 
HETATM    7  C5  UNL     1      18.854   5.094  50.042  1.00  0.00     0.295 C 
HETATM    8  C6  UNL     1      17.977   3.904  49.823  1.00  0.00     0.197 C 
HETATM    9  O2  UNL     1      18.402   2.898  50.660  1.00  0.00    -0.389 OA
HETATM   10  C7  UNL     1      17.690   1.718  50.483  1.00  0.00     0.172 C 
HETATM   11  C8  UNL     1      18.287   0.661  51.445  1.00  0.00     0.064 C 
HETATM   12  C9  UNL     1      19.735   0.594  51.099  1.00  0.00    -0.059 C 
HETATM   13  C10 UNL     1      20.698   0.305  51.955  1.00  0.00    -0.014 C 
HETATM   14  C11 UNL     1      22.125   0.660  51.768  1.00  0.00     0.086 C 
HETATM   15  C12 UNL     1      22.192   1.561  50.565  1.00  0.00     0.037 C 
HETATM   16  N2  UNL     1      22.700   2.747  50.338  1.00  0.00    -0.265 NA
HETATM   17  C13 UNL     1      23.366   3.469  51.364  1.00  0.00     0.115 C 
HETATM   18  C14 UNL     1      24.036   4.594  51.245  1.00  0.00     0.025 C 
HETATM   19  C15 UNL     1      24.362   5.509  50.139  1.00  0.00     0.180 C 
HETATM   20  C22 UNL     1      21.512   0.834  49.494  1.00  0.00     0.028 C 
HETATM   21  C23 UNL     1      20.215   0.880  49.754  1.00  0.00     0.009 C 
HETATM   22  H5  UNL     1      17.646   6.656  49.442  1.00  0.00     0.316 HD
ENDROOT
BRANCH  19  23
HETATM   23  N3  UNL     1      25.351   4.893  49.301  1.00  0.00    -0.375 N 
HETATM   24  H20 UNL     1      25.217   3.908  48.923  1.00  0.00     0.160 HD
BRANCH  23  25
HETATM   25  C16 UNL     1      26.574   5.528  48.907  1.00  0.00     0.030 A 
HETATM   26  C17 UNL     1      27.740   4.817  48.630  1.00  0.00     0.029 A 
HETATM   27  C18 UNL     1      28.898   5.470  48.255  1.00  0.00     0.004 A 
HETATM   28  C19 UNL     1      28.909   6.840  48.152  1.00  0.00     0.019 A 
HETATM   29  C20 UNL     1      27.780   7.613  48.414  1.00  0.00     0.013 A 
HETATM   30 BR1  UNL     1      27.791   9.514  48.271  1.00  0.00    -0.051 Br
HETATM   31  C21 UNL     1      26.646   6.899  48.785  1.00  0.00     0.048 A 
ENDBRANCH  23  25
ENDBRANCH  19  23
TORSDOF 2
ENDMDL
