MODEL 1
REMARK VINA RESULT:      -8.8      0.000      0.000
REMARK  3 active torsions:
REMARK  status: ('A' for Active; 'I' for Inactive)
REMARK    1  A    between atoms: C6_6  and  N1_7 
REMARK    2  A    between atoms: N4_15  and  C12_16 
REMARK    3  A    between atoms: C12_16  and  C13_17 
ROOT
HETATM    1  N1  UNL     1      20.267  -0.540  53.333  1.00  0.00    -0.326 N 
HETATM    2  C7  UNL     1      20.998  -0.732  54.583  1.00  0.00     0.160 A 
HETATM    3  C8  UNL     1      22.310  -0.112  54.362  1.00  0.00     0.028 A 
HETATM    4  C9  UNL     1      22.382   0.394  53.143  1.00  0.00     0.097 A 
HETATM    5  C10 UNL     1      21.129   0.159  52.435  1.00  0.00     0.160 A 
HETATM    6  N2  UNL     1      21.043   0.592  51.232  1.00  0.00    -0.220 NA
HETATM    7  C11 UNL     1      22.134   1.275  50.614  1.00  0.00     0.257 A 
HETATM    8  N3  UNL     1      23.258   1.498  51.217  1.00  0.00    -0.165 NA
HETATM    9  N4  UNL     1      23.471   1.067  52.550  1.00  0.00    -0.261 N 
ENDROOT
BRANCH   9  10
HETATM   10  C12 UNL     1      24.754   1.392  53.110  1.00  0.00     0.189 C 
BRANCH  10  11
HETATM   11  C13 UNL     1      25.743   0.298  53.053  1.00  0.00    -0.020 A 
HETATM   12  C14 UNL     1      26.885   0.355  53.762  1.00  0.00     0.109 A 
HETATM   13  O1  UNL     1      27.613   1.146  54.659  1.00  0.00    -0.323 OA
HETATM   14  C16 UNL     1      27.733  -0.810  53.580  1.00  0.00     0.102 A 
HETATM   15  C15 UNL     1      28.922   0.681  54.777  1.00  0.00     0.352 C 
HETATM   16  O2  UNL     1      28.874  -0.648  54.351  1.00  0.00    -0.323 OA
HETATM   17  C17 UNL     1      27.113  -1.598  52.748  1.00  0.00     0.017 A 
HETATM   18  C18 UNL     1      25.828  -0.990  52.343  1.00  0.00     0.069 A 
ENDBRANCH  10  11
ENDBRANCH   9  10
BRANCH   1  19
HETATM   19  C6  UNL     1      18.940  -0.969  53.055  1.00  0.00     0.036 A 
HETATM   20  C5  UNL     1      18.016  -0.209  52.359  1.00  0.00     0.029 A 
HETATM   21  C4  UNL     1      16.737  -0.648  52.103  1.00  0.00     0.003 A 
HETATM   22  C3  UNL     1      16.344  -1.883  52.544  1.00  0.00     0.007 A 
HETATM   23  C2  UNL     1      17.234  -2.672  53.241  1.00  0.00    -0.060 A 
HETATM   24  C1  UNL     1      16.962  -4.044  53.794  1.00  0.00     0.048 C 
HETATM   25  C19 UNL     1      18.531  -2.217  53.497  1.00  0.00     0.036 A 
ENDBRANCH   1  19
TORSDOF 3
ENDMDL
MODEL 2
REMARK VINA RESULT:      -8.5      3.907      8.431
REMARK  3 active torsions:
REMARK  status: ('A' for Active; 'I' for Inactive)
REMARK    1  A    between atoms: C6_6  and  N1_7 
REMARK    2  A    between atoms: N4_15  and  C12_16 
REMARK    3  A    between atoms: C12_16  and  C13_17 
ROOT
HETATM    1  N1  UNL     1      25.154   0.303  52.643  1.00  0.00    -0.326 N 
HETATM    2  C7  UNL     1      24.952   1.473  51.791  1.00  0.00     0.160 A 
HETATM    3  C8  UNL     1      23.555   1.869  52.007  1.00  0.00     0.028 A 
HETATM    4  C9  UNL     1      22.972   1.057  52.871  1.00  0.00     0.097 A 
HETATM    5  C10 UNL     1      23.922   0.042  53.313  1.00  0.00     0.160 A 
HETATM    6  N2  UNL     1      23.503  -0.826  54.158  1.00  0.00    -0.220 NA
HETATM    7  C11 UNL     1      22.160  -0.798  54.642  1.00  0.00     0.257 A 
HETATM    8  N3  UNL     1      21.296   0.091  54.267  1.00  0.00    -0.165 NA
HETATM    9  N4  UNL     1      21.642   1.103  53.338  1.00  0.00    -0.261 N 
ENDROOT
BRANCH   9  10
HETATM   10  C12 UNL     1      20.598   2.037  53.019  1.00  0.00     0.189 C 
BRANCH  10  11
HETATM   11  C13 UNL     1      19.636   1.560  52.007  1.00  0.00    -0.020 A 
HETATM   12  C14 UNL     1      18.576   2.307  51.647  1.00  0.00     0.109 A 
HETATM   13  O1  UNL     1      17.929   3.526  51.881  1.00  0.00    -0.323 OA
HETATM   14  C16 UNL     1      17.743   1.675  50.639  1.00  0.00     0.102 A 
HETATM   15  C15 UNL     1      16.653   3.524  51.320  1.00  0.00     0.352 C 
HETATM   16  O2  UNL     1      16.689   2.526  50.344  1.00  0.00    -0.323 OA
HETATM   17  C17 UNL     1      18.290   0.523  50.370  1.00  0.00     0.017 A 
HETATM   18  C18 UNL     1      19.507   0.342  51.188  1.00  0.00     0.069 A 
ENDBRANCH  10  11
ENDBRANCH   9  10
BRANCH   1  19
HETATM   19  C6  UNL     1      26.356  -0.445  52.781  1.00  0.00     0.036 A 
HETATM   20  C5  UNL     1      26.453  -1.799  52.513  1.00  0.00     0.029 A 
HETATM   21  C4  UNL     1      27.629  -2.500  52.656  1.00  0.00     0.003 A 
HETATM   22  C3  UNL     1      28.759  -1.850  53.075  1.00  0.00     0.007 A 
HETATM   23  C2  UNL     1      28.704  -0.501  53.352  1.00  0.00    -0.060 A 
HETATM   24  C1  UNL     1      29.847   0.357  53.822  1.00  0.00     0.048 C 
HETATM   25  C19 UNL     1      27.505   0.202  53.205  1.00  0.00     0.036 A 
ENDBRANCH   1  19
TORSDOF 3
ENDMDL
MODEL 3
REMARK VINA RESULT:      -8.4      1.127      2.401
REMARK  3 active torsions:
REMARK  status: ('A' for Active; 'I' for Inactive)
REMARK    1  A    between atoms: C6_6  and  N1_7 
REMARK    2  A    between atoms: N4_15  and  C12_16 
REMARK    3  A    between atoms: C12_16  and  C13_17 
ROOT
HETATM    1  N1  UNL     1      20.186   0.225  51.873  1.00  0.00    -0.326 N 
HETATM    2  C7  UNL     1      20.797   1.183  50.953  1.00  0.00     0.160 A 
HETATM    3  C8  UNL     1      22.187   1.319  51.406  1.00  0.00     0.028 A 
HETATM    4  C9  UNL     1      22.406   0.553  52.461  1.00  0.00     0.097 A 
HETATM    5  C10 UNL     1      21.187  -0.166  52.812  1.00  0.00     0.160 A 
HETATM    6  N2  UNL     1      21.240  -0.953  53.822  1.00  0.00    -0.220 NA
HETATM    7  C11 UNL     1      22.445  -1.117  54.569  1.00  0.00     0.257 A 
HETATM    8  N3  UNL     1      23.542  -0.493  54.280  1.00  0.00    -0.165 NA
HETATM    9  N4  UNL     1      23.608   0.405  53.185  1.00  0.00    -0.261 N 
ENDROOT
BRANCH   9  10
HETATM   10  C12 UNL     1      24.887   1.019  52.961  1.00  0.00     0.189 C 
BRANCH  10  11
HETATM   11  C13 UNL     1      26.029   0.084  52.989  1.00  0.00    -0.020 A 
HETATM   12  C14 UNL     1      27.176   0.404  53.615  1.00  0.00     0.109 A 
HETATM   13  O1  UNL     1      27.809   1.409  54.356  1.00  0.00    -0.323 OA
HETATM   14  C16 UNL     1      28.185  -0.639  53.537  1.00  0.00     0.102 A 
HETATM   15  C15 UNL     1      29.177   1.161  54.455  1.00  0.00     0.352 C 
HETATM   16  O2  UNL     1      29.316  -0.207  54.211  1.00  0.00    -0.323 OA
HETATM   17  C17 UNL     1      27.659  -1.617  52.853  1.00  0.00     0.017 A 
HETATM   18  C18 UNL     1      26.282  -1.264  52.450  1.00  0.00     0.069 A 
ENDBRANCH  10  11
ENDBRANCH   9  10
BRANCH   1  19
HETATM   19  C6  UNL     1      18.841  -0.236  51.843  1.00  0.00     0.036 A 
HETATM   20  C5  UNL     1      18.233  -0.900  52.894  1.00  0.00     0.029 A 
HETATM   21  C4  UNL     1      16.929  -1.337  52.840  1.00  0.00     0.003 A 
HETATM   22  C3  UNL     1      16.187  -1.114  51.711  1.00  0.00     0.007 A 
HETATM   23  C2  UNL     1      16.755  -0.455  50.641  1.00  0.00    -0.060 A 
HETATM   24  C1  UNL     1      16.082  -0.135  49.335  1.00  0.00     0.048 C 
HETATM   25  C19 UNL     1      18.081  -0.017  50.706  1.00  0.00     0.036 A 
ENDBRANCH   1  19
TORSDOF 3
ENDMDL
MODEL 4
REMARK VINA RESULT:      -8.2      5.539      8.762
REMARK  3 active torsions:
REMARK  status: ('A' for Active; 'I' for Inactive)
REMARK    1  A    between atoms: C6_6  and  N1_7 
REMARK    2  A    between atoms: N4_15  and  C12_16 
REMARK    3  A    between atoms: C12_16  and  C13_17 
ROOT
HETATM    1  N1  UNL     1      26.088   1.282  52.397  1.00  0.00    -0.326 N 
HETATM    2  C7  UNL     1      24.725   1.022  52.857  1.00  0.00     0.160 A 
HETATM    3  C8  UNL     1      23.867   1.864  52.015  1.00  0.00     0.028 A 
HETATM    4  C9  UNL     1      24.596   2.551  51.153  1.00  0.00     0.097 A 
HETATM    5  C10 UNL     1      26.008   2.236  51.338  1.00  0.00     0.160 A 
HETATM    6  N2  UNL     1      26.848   2.828  50.572  1.00  0.00    -0.220 NA
HETATM    7  C11 UNL     1      26.414   3.759  49.581  1.00  0.00     0.257 A 
HETATM    8  N3  UNL     1      25.168   4.059  49.394  1.00  0.00    -0.165 NA
HETATM    9  N4  UNL     1      24.147   3.468  50.179  1.00  0.00    -0.261 N 
ENDROOT
BRANCH   9  10
HETATM   10  C12 UNL     1      22.805   3.871  49.860  1.00  0.00     0.189 C 
BRANCH  10  11
HETATM   11  C13 UNL     1      22.476   3.821  48.422  1.00  0.00    -0.020 A 
HETATM   12  C14 UNL     1      22.264   4.948  47.717  1.00  0.00     0.109 A 
HETATM   13  O1  UNL     1      22.226   6.343  47.813  1.00  0.00    -0.323 OA
HETATM   14  C16 UNL     1      21.954   4.701  46.319  1.00  0.00     0.102 A 
HETATM   15  C15 UNL     1      21.639   6.901  46.679  1.00  0.00     0.352 C 
HETATM   16  O2  UNL     1      21.757   5.921  45.691  1.00  0.00    -0.323 OA
HETATM   17  C17 UNL     1      21.971   3.408  46.155  1.00  0.00     0.017 A 
HETATM   18  C18 UNL     1      22.294   2.743  47.434  1.00  0.00     0.069 A 
ENDBRANCH  10  11
ENDBRANCH   9  10
BRANCH   1  19
HETATM   19  C6  UNL     1      27.279   0.697  52.908  1.00  0.00     0.036 A 
HETATM   20  C5  UNL     1      28.276   1.415  53.544  1.00  0.00     0.029 A 
HETATM   21  C4  UNL     1      29.420   0.824  54.030  1.00  0.00     0.003 A 
HETATM   22  C3  UNL     1      29.597  -0.526  53.889  1.00  0.00     0.007 A 
HETATM   23  C2  UNL     1      28.628  -1.278  53.261  1.00  0.00    -0.060 A 
HETATM   24  C1  UNL     1      28.669  -2.763  53.025  1.00  0.00     0.048 C 
HETATM   25  C19 UNL     1      27.469  -0.669  52.771  1.00  0.00     0.036 A 
ENDBRANCH   1  19
TORSDOF 3
ENDMDL
MODEL 5
REMARK VINA RESULT:      -8.2      4.648      8.349
REMARK  3 active torsions:
REMARK  status: ('A' for Active; 'I' for Inactive)
REMARK    1  A    between atoms: C6_6  and  N1_7 
REMARK    2  A    between atoms: N4_15  and  C12_16 
REMARK    3  A    between atoms: C12_16  and  C13_17 
ROOT
HETATM    1  N1  UNL     1      26.264   1.409  52.748  1.00  0.00    -0.326 N 
HETATM    2  C7  UNL     1      24.991   1.287  53.455  1.00  0.00     0.160 A 
HETATM    3  C8  UNL     1      24.057   2.149  52.720  1.00  0.00     0.028 A 
HETATM    4  C9  UNL     1      24.668   2.727  51.700  1.00  0.00     0.097 A 
HETATM    5  C10 UNL     1      26.064   2.307  51.657  1.00  0.00     0.160 A 
HETATM    6  N2  UNL     1      26.793   2.787  50.718  1.00  0.00    -0.220 NA
HETATM    7  C11 UNL     1      26.256   3.695  49.757  1.00  0.00     0.257 A 
HETATM    8  N3  UNL     1      25.021   4.085  49.770  1.00  0.00    -0.165 NA
HETATM    9  N4  UNL     1      24.118   3.623  50.759  1.00  0.00    -0.261 N 
ENDROOT
BRANCH   9  10
HETATM   10  C12 UNL     1      22.773   4.117  50.652  1.00  0.00     0.189 C 
BRANCH  10  11
HETATM   11  C13 UNL     1      21.781   3.109  50.228  1.00  0.00    -0.020 A 
HETATM   12  C14 UNL     1      20.497   3.187  50.623  1.00  0.00     0.109 A 
HETATM   13  O1  UNL     1      19.598   3.948  51.378  1.00  0.00    -0.323 OA
HETATM   14  C16 UNL     1      19.670   2.109  50.108  1.00  0.00     0.102 A 
HETATM   15  C15 UNL     1      18.410   3.250  51.583  1.00  0.00     0.352 C 
HETATM   16  O2  UNL     1      18.377   2.288  50.571  1.00  0.00    -0.323 OA
HETATM   17  C17 UNL     1      20.450   1.352  49.387  1.00  0.00     0.017 A 
HETATM   18  C18 UNL     1      21.824   1.895  49.394  1.00  0.00     0.069 A 
ENDBRANCH  10  11
ENDBRANCH   9  10
BRANCH   1  19
HETATM   19  C6  UNL     1      27.482   0.757  53.082  1.00  0.00     0.036 A 
HETATM   20  C5  UNL     1      28.610   1.420  53.532  1.00  0.00     0.029 A 
HETATM   21  C4  UNL     1      29.779   0.765  53.848  1.00  0.00     0.003 A 
HETATM   22  C3  UNL     1      29.847  -0.596  53.722  1.00  0.00     0.007 A 
HETATM   23  C2  UNL     1      28.746  -1.295  53.277  1.00  0.00    -0.060 A 
HETATM   24  C1  UNL     1      28.657  -2.784  53.081  1.00  0.00     0.048 C 
HETATM   25  C19 UNL     1      27.564  -0.621  52.957  1.00  0.00     0.036 A 
ENDBRANCH   1  19
TORSDOF 3
ENDMDL
MODEL 6
REMARK VINA RESULT:      -8.1      4.257      8.507
REMARK  3 active torsions:
REMARK  status: ('A' for Active; 'I' for Inactive)
REMARK    1  A    between atoms: C6_6  and  N1_7 
REMARK    2  A    between atoms: N4_15  and  C12_16 
REMARK    3  A    between atoms: C12_16  and  C13_17 
ROOT
HETATM    1  N1  UNL     1      25.183   0.710  53.335  1.00  0.00    -0.326 N 
HETATM    2  C7  UNL     1      24.354  -0.454  53.639  1.00  0.00     0.160 A 
HETATM    3  C8  UNL     1      22.974  -0.021  53.383  1.00  0.00     0.028 A 
HETATM    4  C9  UNL     1      22.952   1.237  52.979  1.00  0.00     0.097 A 
HETATM    5  C10 UNL     1      24.311   1.763  52.926  1.00  0.00     0.160 A 
HETATM    6  N2  UNL     1      24.456   2.980  52.550  1.00  0.00    -0.220 NA
HETATM    7  C11 UNL     1      23.330   3.784  52.199  1.00  0.00     0.257 A 
HETATM    8  N3  UNL     1      22.112   3.344  52.237  1.00  0.00    -0.165 NA
HETATM    9  N4  UNL     1      21.826   2.014  52.635  1.00  0.00    -0.261 N 
ENDROOT
BRANCH   9  10
HETATM   10  C12 UNL     1      20.437   1.645  52.616  1.00  0.00     0.189 C 
BRANCH  10  11
HETATM   11  C13 UNL     1      19.743   1.941  51.348  1.00  0.00    -0.020 A 
HETATM   12  C14 UNL     1      18.733   2.829  51.299  1.00  0.00     0.109 A 
HETATM   13  O1  UNL     1      17.972   3.709  52.076  1.00  0.00    -0.323 OA
HETATM   14  C16 UNL     1      18.173   2.990  49.968  1.00  0.00     0.102 A 
HETATM   15  C15 UNL     1      16.844   4.136  51.377  1.00  0.00     0.352 C 
HETATM   16  O2  UNL     1      17.149   3.921  50.032  1.00  0.00    -0.323 OA
HETATM   17  C17 UNL     1      18.840   2.191  49.182  1.00  0.00     0.017 A 
HETATM   18  C18 UNL     1      19.869   1.468  49.958  1.00  0.00     0.069 A 
ENDBRANCH  10  11
ENDBRANCH   9  10
BRANCH   1  19
HETATM   19  C6  UNL     1      26.600   0.786  53.429  1.00  0.00     0.036 A 
HETATM   20  C5  UNL     1      27.297   1.970  53.594  1.00  0.00     0.029 A 
HETATM   21  C4  UNL     1      28.670   2.017  53.682  1.00  0.00     0.003 A 
HETATM   22  C3  UNL     1      29.393   0.857  53.607  1.00  0.00     0.007 A 
HETATM   23  C2  UNL     1      28.737  -0.345  53.443  1.00  0.00    -0.060 A 
HETATM   24  C1  UNL     1      29.379  -1.701  53.339  1.00  0.00     0.048 C 
HETATM   25  C19 UNL     1      27.343  -0.381  53.354  1.00  0.00     0.036 A 
ENDBRANCH   1  19
TORSDOF 3
ENDMDL
MODEL 7
REMARK VINA RESULT:      -8.1      4.048      7.697
REMARK  3 active torsions:
REMARK  status: ('A' for Active; 'I' for Inactive)
REMARK    1  A    between atoms: C6_6  and  N1_7 
REMARK    2  A    between atoms: N4_15  and  C12_16 
REMARK    3  A    between atoms: C12_16  and  C13_17 
ROOT
HETATM    1  N1  UNL     1      23.871   4.967  50.512  1.00  0.00    -0.326 N 
HETATM    2  C7  UNL     1      23.525   5.359  51.876  1.00  0.00     0.160 A 
HETATM    3  C8  UNL     1      22.594   4.327  52.350  1.00  0.00     0.028 A 
HETATM    4  C9  UNL     1      22.391   3.422  51.408  1.00  0.00     0.097 A 
HETATM    5  C10 UNL     1      23.164   3.762  50.220  1.00  0.00     0.160 A 
HETATM    6  N2  UNL     1      23.070   2.975  49.213  1.00  0.00    -0.220 NA
HETATM    7  C11 UNL     1      22.240   1.814  49.258  1.00  0.00     0.257 A 
HETATM    8  N3  UNL     1      21.543   1.487  50.299  1.00  0.00    -0.165 NA
HETATM    9  N4  UNL     1      21.566   2.279  51.473  1.00  0.00    -0.261 N 
ENDROOT
BRANCH   9  10
HETATM   10  C12 UNL     1      20.763   1.798  52.563  1.00  0.00     0.189 C 
BRANCH  10  11
HETATM   11  C13 UNL     1      21.297   0.596  53.234  1.00  0.00    -0.020 A 
HETATM   12  C14 UNL     1      22.615   0.458  53.467  1.00  0.00     0.109 A 
HETATM   13  O1  UNL     1      23.857   1.083  53.307  1.00  0.00    -0.323 OA
HETATM   14  C16 UNL     1      22.953  -0.787  54.135  1.00  0.00     0.102 A 
HETATM   15  C15 UNL     1      24.896   0.189  53.554  1.00  0.00     0.352 C 
HETATM   16  O2  UNL     1      24.325  -0.825  54.325  1.00  0.00    -0.323 OA
HETATM   17  C17 UNL     1      21.834  -1.430  54.318  1.00  0.00     0.017 A 
HETATM   18  C18 UNL     1      20.707  -0.639  53.779  1.00  0.00     0.069 A 
ENDBRANCH  10  11
ENDBRANCH   9  10
BRANCH   1  19
HETATM   19  C6  UNL     1      24.750   5.655  49.631  1.00  0.00     0.036 A 
HETATM   20  C5  UNL     1      24.404   6.807  48.946  1.00  0.00     0.029 A 
HETATM   21  C4  UNL     1      25.274   7.454  48.098  1.00  0.00     0.003 A 
HETATM   22  C3  UNL     1      26.536   6.957  47.914  1.00  0.00     0.007 A 
HETATM   23  C2  UNL     1      26.921   5.812  48.578  1.00  0.00    -0.060 A 
HETATM   24  C1  UNL     1      28.262   5.138  48.485  1.00  0.00     0.048 C 
HETATM   25  C19 UNL     1      26.030   5.161  49.436  1.00  0.00     0.036 A 
ENDBRANCH   1  19
TORSDOF 3
ENDMDL
MODEL 8
REMARK VINA RESULT:      -8.0      5.834      8.225
REMARK  3 active torsions:
REMARK  status: ('A' for Active; 'I' for Inactive)
REMARK    1  A    between atoms: C6_6  and  N1_7 
REMARK    2  A    between atoms: N4_15  and  C12_16 
REMARK    3  A    between atoms: C12_16  and  C13_17 
ROOT
HETATM    1  N1  UNL     1      25.501   2.822  50.883  1.00  0.00    -0.326 N 
HETATM    2  C7  UNL     1      26.454   2.948  49.783  1.00  0.00     0.160 A 
HETATM    3  C8  UNL     1      26.241   4.296  49.240  1.00  0.00     0.028 A 
HETATM    4  C9  UNL     1      25.286   4.917  49.911  1.00  0.00     0.097 A 
HETATM    5  C10 UNL     1      24.772   4.047  50.961  1.00  0.00     0.160 A 
HETATM    6  N2  UNL     1      23.835   4.510  51.702  1.00  0.00    -0.220 NA
HETATM    7  C11 UNL     1      23.317   5.825  51.502  1.00  0.00     0.257 A 
HETATM    8  N3  UNL     1      23.753   6.620  50.578  1.00  0.00    -0.165 NA
HETATM    9  N4  UNL     1      24.789   6.220  49.697  1.00  0.00    -0.261 N 
ENDROOT
BRANCH   9  10
HETATM   10  C12 UNL     1      25.195   7.201  48.729  1.00  0.00     0.189 C 
BRANCH  10  11
HETATM   11  C13 UNL     1      26.381   7.989  49.114  1.00  0.00    -0.020 A 
HETATM   12  C14 UNL     1      27.603   7.687  48.636  1.00  0.00     0.109 A 
HETATM   13  O1  UNL     1      28.296   6.802  47.802  1.00  0.00    -0.323 OA
HETATM   14  C16 UNL     1      28.647   8.571  49.125  1.00  0.00     0.102 A 
HETATM   15  C15 UNL     1      29.671   6.913  47.998  1.00  0.00     0.352 C 
HETATM   16  O2  UNL     1      29.854   8.173  48.573  1.00  0.00    -0.323 OA
HETATM   17  C17 UNL     1      28.069   9.430  49.917  1.00  0.00     0.017 A 
HETATM   18  C18 UNL     1      26.619   9.153  49.986  1.00  0.00     0.069 A 
ENDBRANCH  10  11
ENDBRANCH   9  10
BRANCH   1  19
HETATM   19  C6  UNL     1      25.326   1.689  51.724  1.00  0.00     0.036 A 
HETATM   20  C5  UNL     1      24.117   1.341  52.302  1.00  0.00     0.029 A 
HETATM   21  C4  UNL     1      23.974   0.238  53.113  1.00  0.00     0.003 A 
HETATM   22  C3  UNL     1      25.057  -0.560  53.369  1.00  0.00     0.007 A 
HETATM   23  C2  UNL     1      26.279  -0.248  52.812  1.00  0.00    -0.060 A 
HETATM   24  C1  UNL     1      27.560  -1.015  52.994  1.00  0.00     0.048 C 
HETATM   25  C19 UNL     1      26.414   0.874  51.990  1.00  0.00     0.036 A 
ENDBRANCH   1  19
TORSDOF 3
ENDMDL
MODEL 9
REMARK VINA RESULT:      -8.0      3.428      8.484
REMARK  3 active torsions:
REMARK  status: ('A' for Active; 'I' for Inactive)
REMARK    1  A    between atoms: C6_6  and  N1_7 
REMARK    2  A    between atoms: N4_15  and  C12_16 
REMARK    3  A    between atoms: C12_16  and  C13_17 
ROOT
HETATM    1  N1  UNL     1      25.525  -0.420  53.946  1.00  0.00    -0.326 N 
HETATM    2  C7  UNL     1      24.764  -1.155  54.953  1.00  0.00     0.160 A 
HETATM    3  C8  UNL     1      23.356  -0.848  54.672  1.00  0.00     0.028 A 
HETATM    4  C9  UNL     1      23.259  -0.035  53.635  1.00  0.00     0.097 A 
HETATM    5  C10 UNL     1      24.588   0.279  53.126  1.00  0.00     0.160 A 
HETATM    6  N2  UNL     1      24.661   1.064  52.116  1.00  0.00    -0.220 NA
HETATM    7  C11 UNL     1      23.484   1.606  51.516  1.00  0.00     0.257 A 
HETATM    8  N3  UNL     1      22.291   1.346  51.946  1.00  0.00    -0.165 NA
HETATM    9  N4  UNL     1      22.084   0.490  53.057  1.00  0.00    -0.261 N 
ENDROOT
BRANCH   9  10
HETATM   10  C12 UNL     1      20.712   0.268  53.422  1.00  0.00     0.189 C 
BRANCH  10  11
HETATM   11  C13 UNL     1      19.771   0.243  52.285  1.00  0.00    -0.020 A 
HETATM   12  C14 UNL     1      18.556  -0.324  52.399  1.00  0.00     0.109 A 
HETATM   13  O1  UNL     1      17.707  -0.993  53.288  1.00  0.00    -0.323 OA
HETATM   14  C16 UNL     1      17.771  -0.252  51.179  1.00  0.00     0.102 A 
HETATM   15  C15 UNL     1      16.633  -1.566  52.609  1.00  0.00     0.352 C 
HETATM   16  O2  UNL     1      16.547  -0.860  51.407  1.00  0.00    -0.323 OA
HETATM   17  C17 UNL     1      18.507   0.365  50.297  1.00  0.00     0.017 A 
HETATM   18  C18 UNL     1      19.809   0.728  50.894  1.00  0.00     0.069 A 
ENDBRANCH  10  11
ENDBRANCH   9  10
BRANCH   1  19
HETATM   19  C6  UNL     1      26.940  -0.400  53.803  1.00  0.00     0.036 A 
HETATM   20  C5  UNL     1      27.675  -1.451  53.284  1.00  0.00     0.029 A 
HETATM   21  C4  UNL     1      29.045  -1.407  53.157  1.00  0.00     0.003 A 
HETATM   22  C3  UNL     1      29.725  -0.286  53.553  1.00  0.00     0.007 A 
HETATM   23  C2  UNL     1      29.030   0.784  54.075  1.00  0.00    -0.060 A 
HETATM   24  C1  UNL     1      29.624   2.079  54.557  1.00  0.00     0.048 C 
HETATM   25  C19 UNL     1      27.640   0.728  54.201  1.00  0.00     0.036 A 
ENDBRANCH   1  19
TORSDOF 3
ENDMDL
