MODEL 1
REMARK VINA RESULT:      -9.4      0.000      0.000
REMARK  5 active torsions:
REMARK  status: ('A' for Active; 'I' for Inactive)
REMARK    1  A    between atoms: N1_1  and  C1_2 
REMARK    2  A    between atoms: N2_5  and  C4_6 
REMARK    3  A    between atoms: C4_6  and  C5_7 
REMARK    4  A    between atoms: C9_14  and  C10_15 
REMARK    5  A    between atoms: C16_23  and  C17_24 
ROOT
HETATM    1  C5  UNL     1      21.477   3.808  51.652  1.00  0.00    -0.008 A 
HETATM    2  C6  UNL     1      20.888   4.995  51.158  1.00  0.00     0.030 A 
HETATM    3  C7  UNL     1      21.768   5.721  50.390  1.00  0.00     0.119 A 
HETATM    4  N3  UNL     1      22.891   4.994  50.409  1.00  0.00    -0.241 N 
HETATM    5  N4  UNL     1      24.029   5.188  49.806  1.00  0.00    -0.161 NA
HETATM    6  C8  UNL     1      25.029   4.341  49.887  1.00  0.00     0.256 A 
HETATM    7  N5  UNL     1      24.891   3.244  50.611  1.00  0.00    -0.237 NA
HETATM    8  C9  UNL     1      23.744   2.968  51.272  1.00  0.00     0.096 A 
HETATM    9  C22 UNL     1      22.736   3.887  51.141  1.00  0.00     0.095 A 
ENDROOT
BRANCH   8  10
HETATM   10  C10 UNL     1      23.767   1.740  52.029  1.00  0.00     0.001 C 
HETATM   11  C11 UNL     1      23.053   0.696  52.341  1.00  0.00     0.013 C 
HETATM   12  C12 UNL     1      23.142  -0.519  53.110  1.00  0.00     0.018 C 
HETATM   13  C13 UNL     1      24.303  -0.661  53.710  1.00  0.00     0.089 C 
HETATM   14  N6  UNL     1      25.222   0.386  53.491  1.00  0.00    -0.353 N 
HETATM   15  C14 UNL     1      25.131   1.509  52.624  1.00  0.00     0.162 C 
HETATM   16  C16 UNL     1      26.511   0.733  53.993  1.00  0.00     0.221 C 
HETATM   17  C15 UNL     1      25.612   2.693  53.335  1.00  0.00     0.116 C 
HETATM   18  N7  UNL     1      26.452   2.181  54.161  1.00  0.00    -0.276 NA
BRANCH  16  19
HETATM   19  C17 UNL     1      27.664   0.366  53.120  1.00  0.00     0.115 A 
HETATM   20  C18 UNL     1      27.665  -1.104  52.812  1.00  0.00    -0.011 A 
HETATM   21  C19 UNL     1      28.733  -1.697  53.321  1.00  0.00    -0.000 A 
HETATM   22  C20 UNL     1      29.562  -0.694  54.023  1.00  0.00     0.038 A 
HETATM   23  C21 UNL     1      28.931   0.468  53.891  1.00  0.00     0.105 A 
HETATM   24  F1  UNL     1      29.236   1.715  54.334  1.00  0.00    -0.210 F 
ENDBRANCH  16  19
ENDBRANCH   8  10
BRANCH   1  25
HETATM   25  C4  UNL     1      20.634   2.883  52.364  1.00  0.00     0.158 C 
BRANCH  25  26
HETATM   26  N2  UNL     1      19.568   2.395  51.526  1.00  0.00    -0.408 N 
HETATM   27  C3  UNL     1      18.249   2.778  51.818  1.00  0.00     0.119 C 
HETATM   28  C2  UNL     1      17.266   2.075  50.878  1.00  0.00     0.055 C 
HETATM   29  C1  UNL     1      17.378   0.578  50.942  1.00  0.00     0.221 C 
HETATM   30  C24 UNL     1      18.664   0.183  51.666  1.00  0.00     0.055 C 
HETATM   31  C23 UNL     1      19.755   1.045  51.068  1.00  0.00     0.119 C 
BRANCH  29  32
HETATM   32  N1  UNL     1      17.416   0.073  49.587  1.00  0.00     0.083 N 
HETATM   33  H1  UNL     1      16.518  -0.328  49.286  1.00  0.00     0.313 HD
HETATM   34  H2  UNL     1      18.188  -0.630  49.443  1.00  0.00     0.313 HD
ENDBRANCH  29  32
ENDBRANCH  25  26
ENDBRANCH   1  25
TORSDOF 5
ENDMDL
MODEL 2
REMARK VINA RESULT:      -9.3      2.966      7.670
REMARK  5 active torsions:
REMARK  status: ('A' for Active; 'I' for Inactive)
REMARK    1  A    between atoms: N1_1  and  C1_2 
REMARK    2  A    between atoms: N2_5  and  C4_6 
REMARK    3  A    between atoms: C4_6  and  C5_7 
REMARK    4  A    between atoms: C9_14  and  C10_15 
REMARK    5  A    between atoms: C16_23  and  C17_24 
ROOT
HETATM    1  C5  UNL     1      23.388   1.603  52.443  1.00  0.00    -0.008 A 
HETATM    2  C6  UNL     1      22.590   0.733  53.220  1.00  0.00     0.030 A 
HETATM    3  C7  UNL     1      21.523   0.241  52.505  1.00  0.00     0.119 A 
HETATM    4  N3  UNL     1      21.656   0.802  51.297  1.00  0.00    -0.241 N 
HETATM    5  N4  UNL     1      20.950   0.647  50.214  1.00  0.00    -0.161 NA
HETATM    6  C8  UNL     1      21.247   1.238  49.081  1.00  0.00     0.256 A 
HETATM    7  N5  UNL     1      22.304   2.029  49.022  1.00  0.00    -0.237 NA
HETATM    8  C9  UNL     1      23.090   2.248  50.100  1.00  0.00     0.096 A 
HETATM    9  C22 UNL     1      22.730   1.595  51.251  1.00  0.00     0.095 A 
ENDROOT
BRANCH   8  10
HETATM   10  C10 UNL     1      24.190   3.151  49.869  1.00  0.00     0.001 C 
HETATM   11  C11 UNL     1      25.475   3.195  49.655  1.00  0.00     0.013 C 
HETATM   12  C12 UNL     1      26.529   4.148  49.422  1.00  0.00     0.018 C 
HETATM   13  C13 UNL     1      26.101   5.392  49.415  1.00  0.00     0.089 C 
HETATM   14  N6  UNL     1      24.718   5.550  49.635  1.00  0.00    -0.353 N 
HETATM   15  C14 UNL     1      23.696   4.568  49.742  1.00  0.00     0.162 C 
HETATM   16  C16 UNL     1      23.835   6.655  49.824  1.00  0.00     0.221 C 
HETATM   17  C15 UNL     1      22.810   4.927  50.849  1.00  0.00     0.116 C 
HETATM   18  N7  UNL     1      22.921   6.207  50.869  1.00  0.00    -0.276 NA
BRANCH  16  19
HETATM   19  C17 UNL     1      23.065   7.081  48.620  1.00  0.00     0.115 A 
HETATM   20  C18 UNL     1      23.949   7.143  47.406  1.00  0.00    -0.011 A 
HETATM   21  C19 UNL     1      24.044   8.381  46.950  1.00  0.00    -0.000 A 
HETATM   22  C20 UNL     1      23.238   9.281  47.803  1.00  0.00     0.038 A 
HETATM   23  C21 UNL     1      22.694   8.515  48.741  1.00  0.00     0.105 A 
HETATM   24  F1  UNL     1      21.870   8.809  49.780  1.00  0.00    -0.210 F 
ENDBRANCH  16  19
ENDBRANCH   8  10
BRANCH   1  25
HETATM   25  C4  UNL     1      24.614   2.090  53.020  1.00  0.00     0.158 C 
BRANCH  25  26
HETATM   26  N2  UNL     1      25.473   1.003  53.417  1.00  0.00    -0.408 N 
HETATM   27  C3  UNL     1      26.410   1.221  54.441  1.00  0.00     0.119 C 
HETATM   28  C2  UNL     1      27.287  -0.018  54.638  1.00  0.00     0.055 C 
HETATM   29  C1  UNL     1      28.004  -0.423  53.382  1.00  0.00     0.221 C 
HETATM   30  C24 UNL     1      27.400   0.304  52.181  1.00  0.00     0.055 C 
HETATM   31  C23 UNL     1      25.900   0.167  52.329  1.00  0.00     0.119 C 
BRANCH  29  32
HETATM   32  N1  UNL     1      27.840  -1.850  53.210  1.00  0.00     0.083 N 
HETATM   33  H1  UNL     1      27.632  -2.113  52.237  1.00  0.00     0.313 HD
HETATM   34  H2  UNL     1      27.107  -2.249  53.853  1.00  0.00     0.313 HD
ENDBRANCH  29  32
ENDBRANCH  25  26
ENDBRANCH   1  25
TORSDOF 5
ENDMDL
MODEL 3
REMARK VINA RESULT:      -9.2      3.171      7.994
REMARK  5 active torsions:
REMARK  status: ('A' for Active; 'I' for Inactive)
REMARK    1  A    between atoms: N1_1  and  C1_2 
REMARK    2  A    between atoms: N2_5  and  C4_6 
REMARK    3  A    between atoms: C4_6  and  C5_7 
REMARK    4  A    between atoms: C9_14  and  C10_15 
REMARK    5  A    between atoms: C16_23  and  C17_24 
ROOT
HETATM    1  C5  UNL     1      24.076   0.301  52.928  1.00  0.00    -0.008 A 
HETATM    2  C6  UNL     1      24.925  -0.115  53.979  1.00  0.00     0.030 A 
HETATM    3  C7  UNL     1      24.251  -0.866  54.913  1.00  0.00     0.119 A 
HETATM    4  N3  UNL     1      22.997  -0.914  54.449  1.00  0.00    -0.241 N 
HETATM    5  N4  UNL     1      21.951  -1.535  54.912  1.00  0.00    -0.161 NA
HETATM    6  C8  UNL     1      20.789  -1.524  54.301  1.00  0.00     0.256 A 
HETATM    7  N5  UNL     1      20.661  -0.856  53.168  1.00  0.00    -0.237 NA
HETATM    8  C9  UNL     1      21.696  -0.181  52.619  1.00  0.00     0.096 A 
HETATM    9  C22 UNL     1      22.883  -0.238  53.302  1.00  0.00     0.095 A 
ENDROOT
BRANCH   8  10
HETATM   10  C10 UNL     1      21.381   0.509  51.393  1.00  0.00     0.001 C 
HETATM   11  C11 UNL     1      21.700   0.591  50.132  1.00  0.00     0.013 C 
HETATM   12  C12 UNL     1      21.333   1.310  48.939  1.00  0.00     0.018 C 
HETATM   13  C13 UNL     1      20.367   2.178  49.142  1.00  0.00     0.089 C 
HETATM   14  N6  UNL     1      19.884   2.238  50.465  1.00  0.00    -0.353 N 
HETATM   15  C14 UNL     1      20.196   1.420  51.585  1.00  0.00     0.162 C 
HETATM   16  C16 UNL     1      18.963   3.061  51.178  1.00  0.00     0.221 C 
HETATM   17  C15 UNL     1      20.364   2.274  52.760  1.00  0.00     0.116 C 
HETATM   18  N7  UNL     1      19.597   3.264  52.477  1.00  0.00    -0.276 NA
BRANCH  16  19
HETATM   19  C17 UNL     1      17.596   2.494  51.361  1.00  0.00     0.115 A 
HETATM   20  C18 UNL     1      17.173   1.701  50.156  1.00  0.00    -0.011 A 
HETATM   21  C19 UNL     1      16.129   2.257  49.563  1.00  0.00    -0.000 A 
HETATM   22  C20 UNL     1      15.738   3.477  50.301  1.00  0.00     0.038 A 
HETATM   23  C21 UNL     1      16.588   3.585  51.317  1.00  0.00     0.105 A 
HETATM   24  F1  UNL     1      16.696   4.508  52.307  1.00  0.00    -0.210 F 
ENDBRANCH  16  19
ENDBRANCH   8  10
BRANCH   1  25
HETATM   25  C4  UNL     1      24.673   0.985  51.809  1.00  0.00     0.158 C 
BRANCH  25  26
HETATM   26  N2  UNL     1      24.641   2.414  51.992  1.00  0.00    -0.408 N 
HETATM   27  C3  UNL     1      23.770   2.953  52.952  1.00  0.00     0.119 C 
HETATM   28  C2  UNL     1      23.813   4.483  52.917  1.00  0.00     0.055 C 
HETATM   29  C1  UNL     1      23.472   5.038  51.564  1.00  0.00     0.221 C 
HETATM   30  C24 UNL     1      23.508   3.923  50.520  1.00  0.00     0.055 C 
HETATM   31  C23 UNL     1      24.792   3.163  50.775  1.00  0.00     0.119 C 
BRANCH  29  32
HETATM   32  N1  UNL     1      24.457   6.042  51.228  1.00  0.00     0.083 N 
HETATM   33  H1  UNL     1      24.036   6.952  50.997  1.00  0.00     0.313 HD
HETATM   34  H2  UNL     1      25.093   5.733  50.447  1.00  0.00     0.313 HD
ENDBRANCH  29  32
ENDBRANCH  25  26
ENDBRANCH   1  25
TORSDOF 5
ENDMDL
MODEL 4
REMARK VINA RESULT:      -9.1      2.549      6.140
REMARK  5 active torsions:
REMARK  status: ('A' for Active; 'I' for Inactive)
REMARK    1  A    between atoms: N1_1  and  C1_2 
REMARK    2  A    between atoms: N2_5  and  C4_6 
REMARK    3  A    between atoms: C4_6  and  C5_7 
REMARK    4  A    between atoms: C9_14  and  C10_15 
REMARK    5  A    between atoms: C16_23  and  C17_24 
ROOT
HETATM    1  C5  UNL     1      24.298   4.776  50.250  1.00  0.00    -0.008 A 
HETATM    2  C6  UNL     1      25.246   5.797  50.491  1.00  0.00     0.030 A 
HETATM    3  C7  UNL     1      24.645   7.021  50.670  1.00  0.00     0.119 A 
HETATM    4  N3  UNL     1      23.338   6.763  50.540  1.00  0.00    -0.241 N 
HETATM    5  N4  UNL     1      22.308   7.550  50.664  1.00  0.00    -0.161 NA
HETATM    6  C8  UNL     1      21.071   7.125  50.555  1.00  0.00     0.256 A 
HETATM    7  N5  UNL     1      20.847   5.846  50.306  1.00  0.00    -0.237 NA
HETATM    8  C9  UNL     1      21.859   4.961  50.159  1.00  0.00     0.096 A 
HETATM    9  C22 UNL     1      23.126   5.467  50.292  1.00  0.00     0.095 A 
ENDROOT
BRANCH   8  10
HETATM   10  C10 UNL     1      21.441   3.611  49.872  1.00  0.00     0.001 C 
HETATM   11  C11 UNL     1      21.241   2.767  48.900  1.00  0.00     0.013 C 
HETATM   12  C12 UNL     1      20.822   1.407  48.681  1.00  0.00     0.018 C 
HETATM   13  C13 UNL     1      20.537   0.773  49.797  1.00  0.00     0.089 C 
HETATM   14  N6  UNL     1      20.692   1.534  50.974  1.00  0.00    -0.353 N 
HETATM   15  C14 UNL     1      21.225   2.840  51.148  1.00  0.00     0.162 C 
HETATM   16  C16 UNL     1      20.412   1.340  52.359  1.00  0.00     0.221 C 
HETATM   17  C15 UNL     1      20.373   3.577  52.081  1.00  0.00     0.116 C 
HETATM   18  N7  UNL     1      19.894   2.629  52.803  1.00  0.00    -0.276 NA
BRANCH  16  19
HETATM   19  C17 UNL     1      21.573   0.937  53.204  1.00  0.00     0.115 A 
HETATM   20  C18 UNL     1      22.346  -0.182  52.564  1.00  0.00    -0.011 A 
HETATM   21  C19 UNL     1      22.294  -1.279  53.301  1.00  0.00    -0.000 A 
HETATM   22  C20 UNL     1      21.484  -1.018  54.511  1.00  0.00     0.038 A 
HETATM   23  C21 UNL     1      21.090   0.248  54.428  1.00  0.00     0.105 A 
HETATM   24  F1  UNL     1      20.330   1.011  55.256  1.00  0.00    -0.210 F 
ENDBRANCH  16  19
ENDBRANCH   8  10
BRANCH   1  25
HETATM   25  C4  UNL     1      24.773   3.419  50.175  1.00  0.00     0.158 C 
BRANCH  25  26
HETATM   26  N2  UNL     1      25.588   3.085  51.316  1.00  0.00    -0.408 N 
HETATM   27  C3  UNL     1      26.859   2.530  51.099  1.00  0.00     0.119 C 
HETATM   28  C2  UNL     1      27.515   2.156  52.431  1.00  0.00     0.055 C 
HETATM   29  C1  UNL     1      26.682   1.200  53.235  1.00  0.00     0.221 C 
HETATM   30  C24 UNL     1      25.268   1.132  52.661  1.00  0.00     0.055 C 
HETATM   31  C23 UNL     1      24.847   2.568  52.433  1.00  0.00     0.119 C 
BRANCH  29  32
HETATM   32  N1  UNL     1      26.624   1.689  54.596  1.00  0.00     0.083 N 
HETATM   33  H1  UNL     1      26.764   0.944  55.292  1.00  0.00     0.313 HD
HETATM   34  H2  UNL     1      25.727   2.204  54.798  1.00  0.00     0.313 HD
ENDBRANCH  29  32
ENDBRANCH  25  26
ENDBRANCH   1  25
TORSDOF 5
ENDMDL
MODEL 5
REMARK VINA RESULT:      -9.0      2.215      4.238
REMARK  5 active torsions:
REMARK  status: ('A' for Active; 'I' for Inactive)
REMARK    1  A    between atoms: N1_1  and  C1_2 
REMARK    2  A    between atoms: N2_5  and  C4_6 
REMARK    3  A    between atoms: C4_6  and  C5_7 
REMARK    4  A    between atoms: C9_14  and  C10_15 
REMARK    5  A    between atoms: C16_23  and  C17_24 
ROOT
HETATM    1  C5  UNL     1      20.886   0.368  52.194  1.00  0.00    -0.008 A 
HETATM    2  C6  UNL     1      19.582  -0.142  52.387  1.00  0.00     0.030 A 
HETATM    3  C7  UNL     1      19.522  -1.003  53.458  1.00  0.00     0.119 A 
HETATM    4  N3  UNL     1      20.776  -1.029  53.924  1.00  0.00    -0.241 N 
HETATM    5  N4  UNL     1      21.277  -1.642  54.957  1.00  0.00    -0.161 NA
HETATM    6  C8  UNL     1      22.534  -1.521  55.315  1.00  0.00     0.256 A 
HETATM    7  N5  UNL     1      23.337  -0.750  54.603  1.00  0.00    -0.237 NA
HETATM    8  C9  UNL     1      22.900  -0.080  53.513  1.00  0.00     0.096 A 
HETATM    9  C22 UNL     1      21.575  -0.242  53.198  1.00  0.00     0.095 A 
ENDROOT
BRANCH   8  10
HETATM   10  C10 UNL     1      23.909   0.701  52.841  1.00  0.00     0.001 C 
HETATM   11  C11 UNL     1      24.109   1.825  52.212  1.00  0.00     0.013 C 
HETATM   12  C12 UNL     1      25.163   2.558  51.561  1.00  0.00     0.018 C 
HETATM   13  C13 UNL     1      26.315   1.926  51.582  1.00  0.00     0.089 C 
HETATM   14  N6  UNL     1      26.298   0.672  52.226  1.00  0.00    -0.353 N 
HETATM   15  C14 UNL     1      25.258   0.042  52.962  1.00  0.00     0.162 C 
HETATM   16  C16 UNL     1      27.226  -0.397  52.402  1.00  0.00     0.221 C 
HETATM   17  C15 UNL     1      25.199  -1.369  52.582  1.00  0.00     0.116 C 
HETATM   18  N7  UNL     1      26.418  -1.602  52.247  1.00  0.00    -0.276 NA
BRANCH  16  19
HETATM   19  C17 UNL     1      27.938  -0.426  53.713  1.00  0.00     0.115 A 
HETATM   20  C18 UNL     1      28.299   0.961  54.163  1.00  0.00    -0.011 A 
HETATM   21  C19 UNL     1      29.612   1.117  54.220  1.00  0.00    -0.000 A 
HETATM   22  C20 UNL     1      30.273  -0.143  53.815  1.00  0.00     0.038 A 
HETATM   23  C21 UNL     1      29.297  -1.000  53.534  1.00  0.00     0.105 A 
HETATM   24  F1  UNL     1      29.326  -2.292  53.116  1.00  0.00    -0.210 F 
ENDBRANCH  16  19
ENDBRANCH   8  10
BRANCH   1  25
HETATM   25  C4  UNL     1      21.072   1.383  51.190  1.00  0.00     0.158 C 
BRANCH  25  26
HETATM   26  N2  UNL     1      19.838   2.070  50.905  1.00  0.00    -0.408 N 
HETATM   27  C3  UNL     1      19.340   2.048  49.593  1.00  0.00     0.119 C 
HETATM   28  C2  UNL     1      18.083   2.915  49.481  1.00  0.00     0.055 C 
HETATM   29  C1  UNL     1      18.325   4.337  49.901  1.00  0.00     0.221 C 
HETATM   30  C24 UNL     1      19.659   4.441  50.640  1.00  0.00     0.055 C 
HETATM   31  C23 UNL     1      19.670   3.298  51.632  1.00  0.00     0.119 C 
BRANCH  29  32
HETATM   32  N1  UNL     1      17.253   4.732  50.789  1.00  0.00     0.083 N 
HETATM   33  H1  UNL     1      16.407   5.028  50.284  1.00  0.00     0.313 HD
HETATM   34  H2  UNL     1      17.549   5.486  51.463  1.00  0.00     0.313 HD
ENDBRANCH  29  32
ENDBRANCH  25  26
ENDBRANCH   1  25
TORSDOF 5
ENDMDL
MODEL 6
REMARK VINA RESULT:      -8.3      2.671      5.867
REMARK  5 active torsions:
REMARK  status: ('A' for Active; 'I' for Inactive)
REMARK    1  A    between atoms: N1_1  and  C1_2 
REMARK    2  A    between atoms: N2_5  and  C4_6 
REMARK    3  A    between atoms: C4_6  and  C5_7 
REMARK    4  A    between atoms: C9_14  and  C10_15 
REMARK    5  A    between atoms: C16_23  and  C17_24 
ROOT
HETATM    1  C5  UNL     1      21.673   1.339  51.883  1.00  0.00    -0.008 A 
HETATM    2  C6  UNL     1      21.529  -0.039  52.164  1.00  0.00     0.030 A 
HETATM    3  C7  UNL     1      22.620  -0.541  52.834  1.00  0.00     0.119 A 
HETATM    4  N3  UNL     1      23.434   0.514  52.965  1.00  0.00    -0.241 N 
HETATM    5  N4  UNL     1      24.585   0.619  53.564  1.00  0.00    -0.161 NA
HETATM    6  C8  UNL     1      25.240   1.753  53.650  1.00  0.00     0.256 A 
HETATM    7  N5  UNL     1      24.723   2.841  53.106  1.00  0.00    -0.237 NA
HETATM    8  C9  UNL     1      23.535   2.819  52.462  1.00  0.00     0.096 A 
HETATM    9  C22 UNL     1      22.897   1.606  52.414  1.00  0.00     0.095 A 
ENDROOT
BRANCH   8  10
HETATM   10  C10 UNL     1      23.125   4.087  51.911  1.00  0.00     0.001 C 
HETATM   11  C11 UNL     1      22.218   5.019  52.003  1.00  0.00     0.013 C 
HETATM   12  C12 UNL     1      21.867   6.286  51.416  1.00  0.00     0.018 C 
HETATM   13  C13 UNL     1      22.706   6.666  50.479  1.00  0.00     0.089 C 
HETATM   14  N6  UNL     1      23.769   5.775  50.230  1.00  0.00    -0.353 N 
HETATM   15  C14 UNL     1      24.142   4.589  50.920  1.00  0.00     0.162 C 
HETATM   16  C16 UNL     1      24.826   5.688  49.276  1.00  0.00     0.221 C 
HETATM   17  C15 UNL     1      24.485   3.560  49.939  1.00  0.00     0.116 C 
HETATM   18  N7  UNL     1      24.899   4.268  48.950  1.00  0.00    -0.276 NA
BRANCH  16  19
HETATM   19  C17 UNL     1      26.158   6.175  49.740  1.00  0.00     0.115 A 
HETATM   20  C18 UNL     1      26.157   7.666  49.921  1.00  0.00    -0.011 A 
HETATM   21  C19 UNL     1      26.993   8.249  49.076  1.00  0.00    -0.000 A 
HETATM   22  C20 UNL     1      27.643   7.217  48.241  1.00  0.00     0.038 A 
HETATM   23  C21 UNL     1      27.150   6.050  48.641  1.00  0.00     0.105 A 
HETATM   24  F1  UNL     1      27.391   4.779  48.225  1.00  0.00    -0.210 F 
ENDBRANCH  16  19
ENDBRANCH   8  10
BRANCH   1  25
HETATM   25  C4  UNL     1      20.550   2.030  51.302  1.00  0.00     0.158 C 
BRANCH  25  26
HETATM   26  N2  UNL     1      20.654   2.082  49.866  1.00  0.00    -0.408 N 
HETATM   27  C3  UNL     1      21.850   1.665  49.260  1.00  0.00     0.119 C 
HETATM   28  C2  UNL     1      21.793   1.894  47.747  1.00  0.00     0.055 C 
HETATM   29  C1  UNL     1      21.525   3.329  47.392  1.00  0.00     0.221 C 
HETATM   30  C24 UNL     1      21.049   4.091  48.627  1.00  0.00     0.055 C 
HETATM   31  C23 UNL     1      19.998   3.214  49.273  1.00  0.00     0.119 C 
BRANCH  29  32
HETATM   32  N1  UNL     1      20.488   3.356  46.383  1.00  0.00     0.083 N 
HETATM   33  H1  UNL     1      20.862   3.295  45.426  1.00  0.00     0.313 HD
HETATM   34  H2  UNL     1      19.866   4.201  46.471  1.00  0.00     0.313 HD
ENDBRANCH  29  32
ENDBRANCH  25  26
ENDBRANCH   1  25
TORSDOF 5
ENDMDL
MODEL 7
REMARK VINA RESULT:      -8.3      7.334     11.755
REMARK  5 active torsions:
REMARK  status: ('A' for Active; 'I' for Inactive)
REMARK    1  A    between atoms: N1_1  and  C1_2 
REMARK    2  A    between atoms: N2_5  and  C4_6 
REMARK    3  A    between atoms: C4_6  and  C5_7 
REMARK    4  A    between atoms: C9_14  and  C10_15 
REMARK    5  A    between atoms: C16_23  and  C17_24 
ROOT
HETATM    1  C5  UNL     1      31.796   8.090  46.523  1.00  0.00    -0.008 A 
HETATM    2  C6  UNL     1      32.869   8.860  46.020  1.00  0.00     0.030 A 
HETATM    3  C7  UNL     1      32.910  10.112  46.588  1.00  0.00     0.119 A 
HETATM    4  N3  UNL     1      31.872  10.119  47.432  1.00  0.00    -0.241 N 
HETATM    5  N4  UNL     1      31.471  11.036  48.265  1.00  0.00    -0.161 NA
HETATM    6  C8  UNL     1      30.451  10.866  49.073  1.00  0.00     0.256 A 
HETATM    7  N5  UNL     1      29.791   9.721  49.048  1.00  0.00    -0.237 NA
HETATM    8  C9  UNL     1      30.139   8.717  48.211  1.00  0.00     0.096 A 
HETATM    9  C22 UNL     1      31.217   8.955  47.400  1.00  0.00     0.095 A 
ENDROOT
BRANCH   8  10
HETATM   10  C10 UNL     1      29.304   7.544  48.299  1.00  0.00     0.001 C 
HETATM   11  C11 UNL     1      29.339   6.244  48.383  1.00  0.00     0.013 C 
HETATM   12  C12 UNL     1      28.452   5.114  48.476  1.00  0.00     0.018 C 
HETATM   13  C13 UNL     1      27.183   5.459  48.480  1.00  0.00     0.089 C 
HETATM   14  N6  UNL     1      26.940   6.845  48.393  1.00  0.00    -0.353 N 
HETATM   15  C14 UNL     1      27.854   7.933  48.424  1.00  0.00     0.162 C 
HETATM   16  C16 UNL     1      25.785   7.670  48.252  1.00  0.00     0.221 C 
HETATM   17  C15 UNL     1      27.470   8.901  47.398  1.00  0.00     0.116 C 
HETATM   18  N7  UNL     1      26.202   8.713  47.320  1.00  0.00    -0.276 NA
BRANCH  16  19
HETATM   19  C17 UNL     1      25.273   8.286  49.511  1.00  0.00     0.115 A 
HETATM   20  C18 UNL     1      25.249   7.286  50.632  1.00  0.00    -0.011 A 
HETATM   21  C19 UNL     1      24.011   7.057  51.039  1.00  0.00    -0.000 A 
HETATM   22  C20 UNL     1      23.073   7.874  50.239  1.00  0.00     0.038 A 
HETATM   23  C21 UNL     1      23.818   8.562  49.381  1.00  0.00     0.105 A 
HETATM   24  F1  UNL     1      23.487   9.459  48.417  1.00  0.00    -0.210 F 
ENDBRANCH  16  19
ENDBRANCH   8  10
BRANCH   1  25
HETATM   25  C4  UNL     1      31.707   6.711  46.116  1.00  0.00     0.158 C 
BRANCH  25  26
HETATM   26  N2  UNL     1      32.853   5.959  46.560  1.00  0.00    -0.408 N 
HETATM   27  C3  UNL     1      33.512   5.125  45.642  1.00  0.00     0.119 C 
HETATM   28  C2  UNL     1      34.631   4.344  46.334  1.00  0.00     0.055 C 
HETATM   29  C1  UNL     1      34.132   3.522  47.488  1.00  0.00     0.221 C 
HETATM   30  C24 UNL     1      32.715   3.955  47.861  1.00  0.00     0.055 C 
HETATM   31  C23 UNL     1      32.745   5.468  47.906  1.00  0.00     0.119 C 
BRANCH  29  32
HETATM   32  N1  UNL     1      35.012   3.745  48.614  1.00  0.00     0.083 N 
HETATM   33  H1  UNL     1      35.937   3.312  48.488  1.00  0.00     0.313 HD
HETATM   34  H2  UNL     1      34.588   3.425  49.524  1.00  0.00     0.313 HD
ENDBRANCH  29  32
ENDBRANCH  25  26
ENDBRANCH   1  25
TORSDOF 5
ENDMDL
MODEL 8
REMARK VINA RESULT:      -8.2      8.975     12.372
REMARK  5 active torsions:
REMARK  status: ('A' for Active; 'I' for Inactive)
REMARK    1  A    between atoms: N1_1  and  C1_2 
REMARK    2  A    between atoms: N2_5  and  C4_6 
REMARK    3  A    between atoms: C4_6  and  C5_7 
REMARK    4  A    between atoms: C9_14  and  C10_15 
REMARK    5  A    between atoms: C16_23  and  C17_24 
ROOT
HETATM    1  C5  UNL     1      31.540   9.371  45.686  1.00  0.00    -0.008 A 
HETATM    2  C6  UNL     1      32.293  10.373  45.034  1.00  0.00     0.030 A 
HETATM    3  C7  UNL     1      32.387  11.517  45.791  1.00  0.00     0.119 A 
HETATM    4  N3  UNL     1      31.697  11.229  46.901  1.00  0.00    -0.241 N 
HETATM    5  N4  UNL     1      31.502  11.934  47.978  1.00  0.00    -0.161 NA
HETATM    6  C8  UNL     1      30.836  11.480  49.014  1.00  0.00     0.256 A 
HETATM    7  N5  UNL     1      30.333  10.259  48.975  1.00  0.00    -0.237 NA
HETATM    8  C9  UNL     1      30.486   9.460  47.894  1.00  0.00     0.096 A 
HETATM    9  C22 UNL     1      31.199   9.990  46.849  1.00  0.00     0.095 A 
ENDROOT
BRANCH   8  10
HETATM   10  C10 UNL     1      29.860   8.167  48.009  1.00  0.00     0.001 C 
HETATM   11  C11 UNL     1      28.706   7.562  47.982  1.00  0.00     0.013 C 
HETATM   12  C12 UNL     1      28.143   6.241  48.098  1.00  0.00     0.018 C 
HETATM   13  C13 UNL     1      29.052   5.313  48.299  1.00  0.00     0.089 C 
HETATM   14  N6  UNL     1      30.381   5.781  48.362  1.00  0.00    -0.353 N 
HETATM   15  C14 UNL     1      30.899   7.082  48.120  1.00  0.00     0.162 C 
HETATM   16  C16 UNL     1      31.651   5.206  48.662  1.00  0.00     0.221 C 
HETATM   17  C15 UNL     1      31.889   7.394  49.151  1.00  0.00     0.116 C 
HETATM   18  N7  UNL     1      32.327   6.225  49.457  1.00  0.00    -0.276 NA
BRANCH  16  19
HETATM   19  C17 UNL     1      32.489   4.838  47.484  1.00  0.00     0.115 A 
HETATM   20  C18 UNL     1      31.883   3.693  46.724  1.00  0.00    -0.011 A 
HETATM   21  C19 UNL     1      32.667   2.628  46.762  1.00  0.00    -0.000 A 
HETATM   22  C20 UNL     1      33.881   2.940  47.547  1.00  0.00     0.038 A 
HETATM   23  C21 UNL     1      33.751   4.202  47.943  1.00  0.00     0.105 A 
HETATM   24  F1  UNL     1      34.561   5.001  48.687  1.00  0.00    -0.210 F 
ENDBRANCH  16  19
ENDBRANCH   8  10
BRANCH   1  25
HETATM   25  C4  UNL     1      31.468   8.071  45.069  1.00  0.00     0.158 C 
BRANCH  25  26
HETATM   26  N2  UNL     1      32.617   7.824  44.236  1.00  0.00    -0.408 N 
HETATM   27  C3  UNL     1      32.417   7.531  42.878  1.00  0.00     0.119 C 
HETATM   28  C2  UNL     1      33.748   7.202  42.197  1.00  0.00     0.055 C 
HETATM   29  C1  UNL     1      34.464   6.057  42.856  1.00  0.00     0.221 C 
HETATM   30  C24 UNL     1      33.834   5.763  44.217  1.00  0.00     0.055 C 
HETATM   31  C23 UNL     1      33.674   7.107  44.895  1.00  0.00     0.119 C 
BRANCH  29  32
HETATM   32  N1  UNL     1      35.847   6.438  43.040  1.00  0.00     0.083 N 
HETATM   33  H1  UNL     1      36.424   5.674  43.417  1.00  0.00     0.313 HD
HETATM   34  H2  UNL     1      35.949   7.295  43.645  1.00  0.00     0.313 HD
ENDBRANCH  29  32
ENDBRANCH  25  26
ENDBRANCH   1  25
TORSDOF 5
ENDMDL
MODEL 9
REMARK VINA RESULT:      -8.0      3.174      5.178
REMARK  5 active torsions:
REMARK  status: ('A' for Active; 'I' for Inactive)
REMARK    1  A    between atoms: N1_1  and  C1_2 
REMARK    2  A    between atoms: N2_5  and  C4_6 
REMARK    3  A    between atoms: C4_6  and  C5_7 
REMARK    4  A    between atoms: C9_14  and  C10_15 
REMARK    5  A    between atoms: C16_23  and  C17_24 
ROOT
HETATM    1  C5  UNL     1      19.983   2.810  51.195  1.00  0.00    -0.008 A 
HETATM    2  C6  UNL     1      18.577   2.914  51.089  1.00  0.00     0.030 A 
HETATM    3  C7  UNL     1      18.172   3.062  49.783  1.00  0.00     0.119 A 
HETATM    4  N3  UNL     1      19.315   3.051  49.086  1.00  0.00    -0.241 N 
HETATM    5  N4  UNL     1      19.517   3.107  47.800  1.00  0.00    -0.161 NA
HETATM    6  C8  UNL     1      20.713   3.032  47.266  1.00  0.00     0.256 A 
HETATM    7  N5  UNL     1      21.766   2.897  48.053  1.00  0.00    -0.237 NA
HETATM    8  C9  UNL     1      21.646   2.835  49.398  1.00  0.00     0.096 A 
HETATM    9  C22 UNL     1      20.370   2.911  49.893  1.00  0.00     0.095 A 
ENDROOT
BRANCH   8  10
HETATM   10  C10 UNL     1      22.894   2.706  50.108  1.00  0.00     0.001 C 
HETATM   11  C11 UNL     1      23.574   1.910  50.883  1.00  0.00     0.013 C 
HETATM   12  C12 UNL     1      24.842   1.839  51.563  1.00  0.00     0.018 C 
HETATM   13  C13 UNL     1      25.588   2.903  51.367  1.00  0.00     0.089 C 
HETATM   14  N6  UNL     1      25.013   3.893  50.544  1.00  0.00    -0.353 N 
HETATM   15  C14 UNL     1      23.804   3.865  49.796  1.00  0.00     0.162 C 
HETATM   16  C16 UNL     1      25.363   5.217  50.144  1.00  0.00     0.221 C 
HETATM   17  C15 UNL     1      23.117   5.145  49.962  1.00  0.00     0.116 C 
HETATM   18  N7  UNL     1      24.099   5.945  50.172  1.00  0.00    -0.276 NA
BRANCH  16  19
HETATM   19  C17 UNL     1      25.994   5.341  48.798  1.00  0.00     0.115 A 
HETATM   20  C18 UNL     1      27.291   4.585  48.737  1.00  0.00    -0.011 A 
HETATM   21  C19 UNL     1      28.311   5.405  48.544  1.00  0.00    -0.000 A 
HETATM   22  C20 UNL     1      27.813   6.795  48.456  1.00  0.00     0.038 A 
HETATM   23  C21 UNL     1      26.494   6.727  48.603  1.00  0.00     0.105 A 
HETATM   24  F1  UNL     1      25.537   7.690  48.607  1.00  0.00    -0.210 F 
ENDBRANCH  16  19
ENDBRANCH   8  10
BRANCH   1  25
HETATM   25  C4  UNL     1      20.543   2.520  52.490  1.00  0.00     0.158 C 
BRANCH  25  26
HETATM   26  N2  UNL     1      20.646   1.100  52.709  1.00  0.00    -0.408 N 
HETATM   27  C3  UNL     1      19.468   0.356  52.886  1.00  0.00     0.119 C 
HETATM   28  C2  UNL     1      19.799  -1.104  53.204  1.00  0.00     0.055 C 
HETATM   29  C1  UNL     1      20.668  -1.246  54.421  1.00  0.00     0.221 C 
HETATM   30  C24 UNL     1      21.257   0.112  54.801  1.00  0.00     0.055 C 
HETATM   31  C23 UNL     1      21.773   0.712  53.511  1.00  0.00     0.119 C 
BRANCH  29  32
HETATM   32  N1  UNL     1      21.742  -2.162  54.102  1.00  0.00     0.083 N 
HETATM   33  H1  UNL     1      21.749  -2.437  53.111  1.00  0.00     0.313 HD
HETATM   34  H2  UNL     1      21.730  -3.021  54.712  1.00  0.00     0.313 HD
ENDBRANCH  29  32
ENDBRANCH  25  26
ENDBRANCH   1  25
TORSDOF 5
ENDMDL
