MODEL 1
REMARK VINA RESULT:      -9.6      0.000      0.000
REMARK  0 active torsions:
REMARK  status: ('A' for Active; 'I' for Inactive)
ROOT
HETATM    1  C1  UNL     1      29.769   0.249  53.768  1.00  0.00     0.045 C 
HETATM    2  C2  UNL     1      28.280   0.276  53.683  1.00  0.00    -0.067 C 
HETATM    3  C3  UNL     1      27.588   0.419  52.557  1.00  0.00     0.088 C 
HETATM    4  N1  UNL     1      26.192   0.400  52.845  1.00  0.00    -0.381 N 
HETATM    5  C4  UNL     1      24.799   0.357  52.382  1.00  0.00     0.158 C 
HETATM    6  C5  UNL     1      24.053  -0.314  53.484  1.00  0.00    -0.044 C 
HETATM    7  C6  UNL     1      22.756  -0.511  53.632  1.00  0.00     0.049 A 
HETATM    8  C7  UNL     1      22.049  -1.183  54.742  1.00  0.00     0.257 A 
HETATM    9  O1  UNL     1      22.589  -1.691  55.758  1.00  0.00    -0.267 OA
HETATM   10  N2  UNL     1      20.665  -1.164  54.481  1.00  0.00    -0.322 N 
HETATM   11  C8  UNL     1      20.449  -0.506  53.244  1.00  0.00     0.046 A 
HETATM   12  C9  UNL     1      19.255  -0.253  52.584  1.00  0.00     0.032 A 
HETATM   13  C10 UNL     1      19.278   0.413  51.374  1.00  0.00     0.021 A 
HETATM   14  C11 UNL     1      20.479   0.818  50.832  1.00  0.00     0.011 A 
HETATM   15 BR1  UNL     1      20.430   1.727  49.166  1.00  0.00    -0.051 Br
HETATM   16  C12 UNL     1      21.632   0.536  51.536  1.00  0.00     0.034 A 
HETATM   17  C13 UNL     1      21.675  -0.117  52.735  1.00  0.00     0.008 A 
HETATM   18  C14 UNL     1      25.096  -0.750  54.452  1.00  0.00     0.062 C 
HETATM   19  C15 UNL     1      26.048   0.442  54.292  1.00  0.00     0.092 C 
HETATM   20  C16 UNL     1      27.401   0.145  54.868  1.00  0.00     0.060 C 
HETATM   21  H7  UNL     1      19.907  -1.569  55.094  1.00  0.00     0.169 HD
ENDROOT
TORSDOF 0
ENDMDL
MODEL 2
REMARK VINA RESULT:      -8.3      2.034      6.272
REMARK  0 active torsions:
REMARK  status: ('A' for Active; 'I' for Inactive)
ROOT
HETATM    1  C1  UNL     1      17.687  -1.414  53.456  1.00  0.00     0.045 C 
HETATM    2  C2  UNL     1      19.150  -1.134  53.390  1.00  0.00    -0.067 C 
HETATM    3  C3  UNL     1      19.694  -0.085  52.780  1.00  0.00     0.088 C 
HETATM    4  N1  UNL     1      21.112  -0.133  52.915  1.00  0.00    -0.381 N 
HETATM    5  C4  UNL     1      22.427   0.502  52.751  1.00  0.00     0.158 C 
HETATM    6  C5  UNL     1      23.272  -0.093  53.826  1.00  0.00    -0.044 C 
HETATM    7  C6  UNL     1      24.563   0.045  54.063  1.00  0.00     0.049 A 
HETATM    8  C7  UNL     1      25.370  -0.562  55.142  1.00  0.00     0.257 A 
HETATM    9  O1  UNL     1      24.941  -1.336  56.036  1.00  0.00    -0.267 OA
HETATM   10  N2  UNL     1      26.706  -0.135  55.009  1.00  0.00    -0.322 N 
HETATM   11  C8  UNL     1      26.794   0.726  53.885  1.00  0.00     0.046 A 
HETATM   12  C9  UNL     1      27.903   1.382  53.371  1.00  0.00     0.032 A 
HETATM   13  C10 UNL     1      27.759   2.181  52.254  1.00  0.00     0.021 A 
HETATM   14  C11 UNL     1      26.522   2.322  51.661  1.00  0.00     0.011 A 
HETATM   15 BR1  UNL     1      26.403   3.436  50.129  1.00  0.00    -0.051 Br
HETATM   16  C12 UNL     1      25.458   1.643  52.219  1.00  0.00     0.034 A 
HETATM   17  C13 UNL     1      25.536   0.839  53.321  1.00  0.00     0.008 A 
HETATM   18  C14 UNL     1      22.342  -0.927  54.636  1.00  0.00     0.062 C 
HETATM   19  C15 UNL     1      21.449  -1.425  53.492  1.00  0.00     0.092 C 
HETATM   20  C16 UNL     1      20.169  -2.011  54.011  1.00  0.00     0.060 C 
HETATM   21  H7  UNL     1      27.513  -0.403  55.634  1.00  0.00     0.169 HD
ENDROOT
TORSDOF 0
ENDMDL
MODEL 3
REMARK VINA RESULT:      -8.0      2.731      3.352
REMARK  0 active torsions:
REMARK  status: ('A' for Active; 'I' for Inactive)
ROOT
HETATM    1  C1  UNL     1      26.606   3.835  49.687  1.00  0.00     0.045 C 
HETATM    2  C2  UNL     1      25.402   3.195  50.292  1.00  0.00    -0.067 C 
HETATM    3  C3  UNL     1      24.302   2.868  49.622  1.00  0.00     0.088 C 
HETATM    4  N1  UNL     1      23.355   2.278  50.510  1.00  0.00    -0.381 N 
HETATM    5  C4  UNL     1      22.089   1.568  50.730  1.00  0.00     0.158 C 
HETATM    6  C5  UNL     1      22.302   0.791  51.984  1.00  0.00    -0.044 C 
HETATM    7  C6  UNL     1      21.452   0.066  52.687  1.00  0.00     0.049 A 
HETATM    8  C7  UNL     1      21.699  -0.693  53.930  1.00  0.00     0.257 A 
HETATM    9  O1  UNL     1      22.797  -0.773  54.538  1.00  0.00    -0.267 OA
HETATM   10  N2  UNL     1      20.501  -1.318  54.330  1.00  0.00    -0.322 N 
HETATM   11  C8  UNL     1      19.488  -0.992  53.393  1.00  0.00     0.046 A 
HETATM   12  C9  UNL     1      18.156  -1.379  53.375  1.00  0.00     0.032 A 
HETATM   13  C10 UNL     1      17.337  -0.938  52.354  1.00  0.00     0.021 A 
HETATM   14  C11 UNL     1      17.845  -0.124  51.364  1.00  0.00     0.011 A 
HETATM   15 BR1  UNL     1      16.659   0.441  49.994  1.00  0.00    -0.051 Br
HETATM   16  C12 UNL     1      19.179   0.225  51.437  1.00  0.00     0.034 A 
HETATM   17  C13 UNL     1      20.038  -0.177  52.421  1.00  0.00     0.008 A 
HETATM   18  C14 UNL     1      23.737   0.989  52.327  1.00  0.00     0.062 C 
HETATM   19  C15 UNL     1      23.869   2.445  51.862  1.00  0.00     0.092 C 
HETATM   20  C16 UNL     1      25.307   2.851  51.729  1.00  0.00     0.060 C 
HETATM   21  H7  UNL     1      20.368  -1.929  55.180  1.00  0.00     0.169 HD
ENDROOT
TORSDOF 0
ENDMDL
MODEL 4
REMARK VINA RESULT:      -8.0      2.098      2.273
REMARK  0 active torsions:
REMARK  status: ('A' for Active; 'I' for Inactive)
ROOT
HETATM    1  C1  UNL     1      29.796   0.124  53.806  1.00  0.00     0.045 C 
HETATM    2  C2  UNL     1      28.355   0.489  53.685  1.00  0.00    -0.067 C 
HETATM    3  C3  UNL     1      27.884   1.468  52.918  1.00  0.00     0.088 C 
HETATM    4  N1  UNL     1      26.465   1.536  53.044  1.00  0.00    -0.381 N 
HETATM    5  C4  UNL     1      25.174   2.080  52.603  1.00  0.00     0.158 C 
HETATM    6  C5  UNL     1      24.184   1.012  52.919  1.00  0.00    -0.044 C 
HETATM    7  C6  UNL     1      22.867   1.022  52.826  1.00  0.00     0.049 A 
HETATM    8  C7  UNL     1      21.914  -0.060  53.149  1.00  0.00     0.257 A 
HETATM    9  O1  UNL     1      22.216  -1.203  53.579  1.00  0.00    -0.267 OA
HETATM   10  N2  UNL     1      20.604   0.395  52.898  1.00  0.00    -0.322 N 
HETATM   11  C8  UNL     1      20.673   1.730  52.424  1.00  0.00     0.046 A 
HETATM   12  C9  UNL     1      19.643   2.579  52.050  1.00  0.00     0.032 A 
HETATM   13  C10 UNL     1      19.943   3.855  51.613  1.00  0.00     0.021 A 
HETATM   14  C11 UNL     1      21.255   4.273  51.552  1.00  0.00     0.011 A 
HETATM   15 BR1  UNL     1      21.587   6.040  50.942  1.00  0.00    -0.051 Br
HETATM   16  C12 UNL     1      22.235   3.381  51.938  1.00  0.00     0.034 A 
HETATM   17  C13 UNL     1      22.003   2.109  52.378  1.00  0.00     0.008 A 
HETATM   18  C14 UNL     1      24.995  -0.145  53.388  1.00  0.00     0.062 C 
HETATM   19  C15 UNL     1      26.084   0.643  54.128  1.00  0.00     0.092 C 
HETATM   20  C16 UNL     1      27.279  -0.215  54.420  1.00  0.00     0.060 C 
HETATM   21  H7  UNL     1      19.714  -0.156  53.034  1.00  0.00     0.169 HD
ENDROOT
TORSDOF 0
ENDMDL
MODEL 5
REMARK VINA RESULT:      -8.0      4.104      6.393
REMARK  0 active torsions:
REMARK  status: ('A' for Active; 'I' for Inactive)
ROOT
HETATM    1  C1  UNL     1      22.656   6.117  46.757  1.00  0.00     0.045 C 
HETATM    2  C2  UNL     1      23.028   5.276  47.931  1.00  0.00    -0.067 C 
HETATM    3  C3  UNL     1      22.337   4.223  48.357  1.00  0.00     0.088 C 
HETATM    4  N1  UNL     1      22.978   3.658  49.499  1.00  0.00    -0.381 N 
HETATM    5  C4  UNL     1      23.092   2.579  50.488  1.00  0.00     0.158 C 
HETATM    6  C5  UNL     1      24.531   2.574  50.880  1.00  0.00    -0.044 C 
HETATM    7  C6  UNL     1      25.153   1.877  51.813  1.00  0.00     0.049 A 
HETATM    8  C7  UNL     1      26.585   1.898  52.175  1.00  0.00     0.257 A 
HETATM    9  O1  UNL     1      27.471   2.609  51.634  1.00  0.00    -0.267 OA
HETATM   10  N2  UNL     1      26.804   0.990  53.230  1.00  0.00    -0.322 N 
HETATM   11  C8  UNL     1      25.567   0.382  53.565  1.00  0.00     0.046 A 
HETATM   12  C9  UNL     1      25.295  -0.570  54.536  1.00  0.00     0.032 A 
HETATM   13  C10 UNL     1      24.001  -1.028  54.691  1.00  0.00     0.021 A 
HETATM   14  C11 UNL     1      22.995  -0.541  53.885  1.00  0.00     0.011 A 
HETATM   15 BR1  UNL     1      21.243  -1.219  54.158  1.00  0.00    -0.051 Br
HETATM   16  C12 UNL     1      23.329   0.405  52.936  1.00  0.00     0.034 A 
HETATM   17  C13 UNL     1      24.588   0.898  52.735  1.00  0.00     0.008 A 
HETATM   18  C14 UNL     1      25.185   3.559  49.976  1.00  0.00     0.062 C 
HETATM   19  C15 UNL     1      24.037   4.573  49.898  1.00  0.00     0.092 C 
HETATM   20  C16 UNL     1      24.228   5.532  48.761  1.00  0.00     0.060 C 
HETATM   21  H7  UNL     1      27.727   0.788  53.699  1.00  0.00     0.169 HD
ENDROOT
TORSDOF 0
ENDMDL
MODEL 6
REMARK VINA RESULT:      -7.9      3.635      4.972
REMARK  0 active torsions:
REMARK  status: ('A' for Active; 'I' for Inactive)
ROOT
HETATM    1  C1  UNL     1      24.478   6.483  48.178  1.00  0.00     0.045 C 
HETATM    2  C2  UNL     1      24.174   5.427  49.187  1.00  0.00    -0.067 C 
HETATM    3  C3  UNL     1      23.107   4.634  49.154  1.00  0.00     0.088 C 
HETATM    4  N1  UNL     1      23.134   3.746  50.270  1.00  0.00    -0.381 N 
HETATM    5  C4  UNL     1      22.592   2.581  50.980  1.00  0.00     0.158 C 
HETATM    6  C5  UNL     1      23.747   2.030  51.744  1.00  0.00    -0.044 C 
HETATM    7  C6  UNL     1      23.790   1.051  52.629  1.00  0.00     0.049 A 
HETATM    8  C7  UNL     1      24.958   0.530  53.368  1.00  0.00     0.257 A 
HETATM    9  O1  UNL     1      26.139   0.951  53.269  1.00  0.00    -0.267 OA
HETATM   10  N2  UNL     1      24.536  -0.520  54.208  1.00  0.00    -0.322 N 
HETATM   11  C8  UNL     1      23.140  -0.698  54.040  1.00  0.00     0.046 A 
HETATM   12  C9  UNL     1      22.294  -1.609  54.655  1.00  0.00     0.032 A 
HETATM   13  C10 UNL     1      20.950  -1.606  54.337  1.00  0.00     0.021 A 
HETATM   14  C11 UNL     1      20.460  -0.705  53.416  1.00  0.00     0.011 A 
HETATM   15 BR1  UNL     1      18.602  -0.762  53.032  1.00  0.00    -0.051 Br
HETATM   16  C12 UNL     1      21.352   0.176  52.838  1.00  0.00     0.034 A 
HETATM   17  C13 UNL     1      22.690   0.223  53.111  1.00  0.00     0.008 A 
HETATM   18  C14 UNL     1      24.923   2.831  51.304  1.00  0.00     0.062 C 
HETATM   19  C15 UNL     1      24.213   4.182  51.143  1.00  0.00     0.092 C 
HETATM   20  C16 UNL     1      25.045   5.147  50.352  1.00  0.00     0.060 C 
HETATM   21  H7  UNL     1      25.147  -1.086  54.856  1.00  0.00     0.169 HD
ENDROOT
TORSDOF 0
ENDMDL
MODEL 7
REMARK VINA RESULT:      -7.9      4.768      6.954
REMARK  0 active torsions:
REMARK  status: ('A' for Active; 'I' for Inactive)
ROOT
HETATM    1  C1  UNL     1      21.401   8.623  49.761  1.00  0.00     0.045 C 
HETATM    2  C2  UNL     1      22.070   7.410  50.313  1.00  0.00    -0.067 C 
HETATM    3  C3  UNL     1      21.437   6.304  50.694  1.00  0.00     0.088 C 
HETATM    4  N1  UNL     1      22.382   5.349  51.170  1.00  0.00    -0.381 N 
HETATM    5  C4  UNL     1      22.696   3.988  51.625  1.00  0.00     0.158 C 
HETATM    6  C5  UNL     1      24.126   3.785  51.257  1.00  0.00    -0.044 C 
HETATM    7  C6  UNL     1      24.937   2.780  51.530  1.00  0.00     0.049 A 
HETATM    8  C7  UNL     1      26.354   2.612  51.148  1.00  0.00     0.257 A 
HETATM    9  O1  UNL     1      27.038   3.428  50.479  1.00  0.00    -0.267 OA
HETATM   10  N2  UNL     1      26.822   1.384  51.656  1.00  0.00    -0.322 N 
HETATM   11  C8  UNL     1      25.762   0.751  52.353  1.00  0.00     0.046 A 
HETATM   12  C9  UNL     1      25.754  -0.468  53.014  1.00  0.00     0.032 A 
HETATM   13  C10 UNL     1      24.596  -0.896  53.632  1.00  0.00     0.021 A 
HETATM   14  C11 UNL     1      23.461  -0.115  53.588  1.00  0.00     0.011 A 
HETATM   15 BR1  UNL     1      21.908  -0.769  54.461  1.00  0.00    -0.051 Br
HETATM   16  C12 UNL     1      23.531   1.088  52.914  1.00  0.00     0.034 A 
HETATM   17  C13 UNL     1      24.646   1.565  52.284  1.00  0.00     0.008 A 
HETATM   18  C14 UNL     1      24.504   4.995  50.477  1.00  0.00     0.062 C 
HETATM   19  C15 UNL     1      23.670   6.021  51.256  1.00  0.00     0.092 C 
HETATM   20  C16 UNL     1      23.536   7.308  50.497  1.00  0.00     0.060 C 
HETATM   21  H7  UNL     1      27.795   0.991  51.544  1.00  0.00     0.169 HD
ENDROOT
TORSDOF 0
ENDMDL
MODEL 8
REMARK VINA RESULT:      -7.8      4.636      6.043
REMARK  0 active torsions:
REMARK  status: ('A' for Active; 'I' for Inactive)
ROOT
HETATM    1  C1  UNL     1      25.078   7.853  47.222  1.00  0.00     0.045 C 
HETATM    2  C2  UNL     1      24.922   6.743  48.206  1.00  0.00    -0.067 C 
HETATM    3  C3  UNL     1      23.893   5.901  48.241  1.00  0.00     0.088 C 
HETATM    4  N1  UNL     1      24.070   4.970  49.307  1.00  0.00    -0.381 N 
HETATM    5  C4  UNL     1      23.653   3.752  50.013  1.00  0.00     0.158 C 
HETATM    6  C5  UNL     1      24.903   3.227  50.634  1.00  0.00    -0.044 C 
HETATM    7  C6  UNL     1      25.076   2.216  51.465  1.00  0.00     0.049 A 
HETATM    8  C7  UNL     1      26.334   1.722  52.062  1.00  0.00     0.257 A 
HETATM    9  O1  UNL     1      27.480   2.203  51.868  1.00  0.00    -0.267 OA
HETATM   10  N2  UNL     1      26.045   0.619  52.890  1.00  0.00    -0.322 N 
HETATM   11  C8  UNL     1      24.647   0.380  52.851  1.00  0.00     0.046 A 
HETATM   12  C9  UNL     1      23.908  -0.596  53.503  1.00  0.00     0.032 A 
HETATM   13  C10 UNL     1      22.540  -0.644  53.318  1.00  0.00     0.021 A 
HETATM   14  C11 UNL     1      21.922   0.269  52.492  1.00  0.00     0.011 A 
HETATM   15 BR1  UNL     1      20.039   0.138  52.289  1.00  0.00    -0.051 Br
HETATM   16  C12 UNL     1      22.712   1.216  51.871  1.00  0.00     0.034 A 
HETATM   17  C13 UNL     1      24.067   1.316  52.013  1.00  0.00     0.008 A 
HETATM   18  C14 UNL     1      25.992   4.101  50.118  1.00  0.00     0.062 C 
HETATM   19  C15 UNL     1      25.211   5.421  50.090  1.00  0.00     0.092 C 
HETATM   20  C16 UNL     1      25.916   6.458  49.266  1.00  0.00     0.060 C 
HETATM   21  H7  UNL     1      26.741   0.057  53.449  1.00  0.00     0.169 HD
ENDROOT
TORSDOF 0
ENDMDL
MODEL 9
REMARK VINA RESULT:      -7.7      2.318      6.966
REMARK  0 active torsions:
REMARK  status: ('A' for Active; 'I' for Inactive)
ROOT
HETATM    1  C1  UNL     1      14.673   0.451  51.406  1.00  0.00     0.045 C 
HETATM    2  C2  UNL     1      16.150   0.336  51.576  1.00  0.00    -0.067 C 
HETATM    3  C3  UNL     1      17.027   1.275  51.234  1.00  0.00     0.088 C 
HETATM    4  N1  UNL     1      18.348   0.831  51.535  1.00  0.00    -0.381 N 
HETATM    5  C4  UNL     1      19.786   1.107  51.654  1.00  0.00     0.158 C 
HETATM    6  C5  UNL     1      20.268   0.165  52.703  1.00  0.00    -0.044 C 
HETATM    7  C6  UNL     1      21.495  -0.081  53.122  1.00  0.00     0.049 A 
HETATM    8  C7  UNL     1      21.938  -1.025  54.169  1.00  0.00     0.257 A 
HETATM    9  O1  UNL     1      21.190  -1.772  54.851  1.00  0.00    -0.267 OA
HETATM   10  N2  UNL     1      23.340  -0.958  54.283  1.00  0.00    -0.322 N 
HETATM   11  C8  UNL     1      23.823  -0.005  53.349  1.00  0.00     0.046 A 
HETATM   12  C9  UNL     1      25.128   0.395  53.103  1.00  0.00     0.032 A 
HETATM   13  C10 UNL     1      25.372   1.350  52.136  1.00  0.00     0.021 A 
HETATM   14  C11 UNL     1      24.324   1.897  51.426  1.00  0.00     0.011 A 
HETATM   15 BR1  UNL     1      24.739   3.204  50.113  1.00  0.00    -0.051 Br
HETATM   16  C12 UNL     1      23.048   1.458  51.717  1.00  0.00     0.034 A 
HETATM   17  C13 UNL     1      22.743   0.517  52.661  1.00  0.00     0.008 A 
HETATM   18  C14 UNL     1      19.041  -0.493  53.230  1.00  0.00     0.062 C 
HETATM   19  C15 UNL     1      18.258  -0.571  51.913  1.00  0.00     0.092 C 
HETATM   20  C16 UNL     1      16.806  -0.859  52.155  1.00  0.00     0.060 C 
HETATM   21  H7  UNL     1      23.941  -1.516  54.947  1.00  0.00     0.169 HD
ENDROOT
TORSDOF 0
ENDMDL
