MODEL 1
REMARK VINA RESULT:      -9.4      0.000      0.000
REMARK  4 active torsions:
REMARK  status: ('A' for Active; 'I' for Inactive)
REMARK    1  A    between atoms: O1_2  and  C2_3 
REMARK    2  A    between atoms: C4_5  and  C5_6 
REMARK    3  A    between atoms: C10_12  and  N1_13 
REMARK    4  A    between atoms: N1_13  and  C11_14 
ROOT
HETATM    1  C2  UNL     1      19.809  -0.514  53.125  1.00  0.00     0.071 A 
HETATM    2  C3  UNL     1      20.618   0.206  52.234  1.00  0.00     0.045 A 
HETATM    3  C4  UNL     1      22.016   0.333  52.376  1.00  0.00    -0.033 A 
HETATM    4  C9  UNL     1      22.514  -0.316  53.473  1.00  0.00     0.046 A 
HETATM    5  C10 UNL     1      23.867  -0.131  53.536  1.00  0.00     0.142 A 
HETATM    6  N2  UNL     1      24.573  -0.685  54.551  1.00  0.00    -0.223 NA
HETATM    7  C17 UNL     1      23.872  -1.411  55.472  1.00  0.00     0.236 A 
HETATM    8  N3  UNL     1      22.519  -1.584  55.396  1.00  0.00    -0.241 NA
HETATM    9  C18 UNL     1      21.809  -1.041  54.395  1.00  0.00     0.075 A 
HETATM   10  C19 UNL     1      20.452  -1.123  54.195  1.00  0.00     0.069 A 
ENDROOT
BRANCH   5  11
HETATM   11  N1  UNL     1      24.827   0.578  52.761  1.00  0.00    -0.340 N 
HETATM   12  H12 UNL     1      24.617   1.282  51.982  1.00  0.00     0.167 HD
BRANCH  11  13
HETATM   13  C11 UNL     1      26.236   0.275  53.041  1.00  0.00     0.035 A 
HETATM   14  C12 UNL     1      26.724  -0.975  52.715  1.00  0.00     0.032 A 
HETATM   15  C13 UNL     1      28.037  -1.339  52.947  1.00  0.00     0.046 A 
HETATM   16  C14 UNL     1      28.859  -0.413  53.518  1.00  0.00     0.138 A 
HETATM   17  F1  UNL     1      30.164  -0.743  53.759  1.00  0.00    -0.204 F 
HETATM   18  C15 UNL     1      28.372   0.822  53.837  1.00  0.00     0.074 A 
HETATM   19 CL1  UNL     1      29.474   1.963  54.565  1.00  0.00    -0.081 Cl
HETATM   20  C16 UNL     1      27.062   1.217  53.618  1.00  0.00     0.056 A 
ENDBRANCH  11  13
ENDBRANCH   5  11
BRANCH   3  21
HETATM   21  C5  UNL     1      22.539   1.092  51.261  1.00  0.00     0.045 C 
HETATM   22  C6  UNL     1      21.559   0.768  50.076  1.00  0.00     0.037 C 
HETATM   23  C7  UNL     1      21.836   2.031  49.275  1.00  0.00     0.168 C 
HETATM   24  O2  UNL     1      21.426   2.899  50.281  1.00  0.00    -0.390 OA
HETATM   25  C8  UNL     1      22.267   2.570  51.318  1.00  0.00     0.177 C 
ENDBRANCH   3  21
BRANCH   1  26
HETATM   26  O1  UNL     1      18.446  -0.643  52.994  1.00  0.00    -0.356 OA
HETATM   27  C1  UNL     1      17.818  -1.822  53.449  1.00  0.00     0.210 C 
ENDBRANCH   1  26
TORSDOF 4
ENDMDL
MODEL 2
REMARK VINA RESULT:      -9.3      2.160      4.168
REMARK  4 active torsions:
REMARK  status: ('A' for Active; 'I' for Inactive)
REMARK    1  A    between atoms: O1_2  and  C2_3 
REMARK    2  A    between atoms: C4_5  and  C5_6 
REMARK    3  A    between atoms: C10_12  and  N1_13 
REMARK    4  A    between atoms: N1_13  and  C11_14 
ROOT
HETATM    1  C2  UNL     1      21.481   1.325  49.991  1.00  0.00     0.071 A 
HETATM    2  C3  UNL     1      21.758   0.877  51.291  1.00  0.00     0.045 A 
HETATM    3  C4  UNL     1      22.944   1.190  51.989  1.00  0.00    -0.033 A 
HETATM    4  C9  UNL     1      23.806   1.976  51.273  1.00  0.00     0.046 A 
HETATM    5  C10 UNL     1      24.926   2.219  52.019  1.00  0.00     0.142 A 
HETATM    6  N2  UNL     1      25.923   2.977  51.504  1.00  0.00    -0.223 NA
HETATM    7  C17 UNL     1      25.745   3.464  50.240  1.00  0.00     0.236 A 
HETATM    8  N3  UNL     1      24.620   3.209  49.507  1.00  0.00    -0.241 NA
HETATM    9  C18 UNL     1      23.625   2.460  50.006  1.00  0.00     0.075 A 
HETATM   10  C19 UNL     1      22.449   2.116  49.387  1.00  0.00     0.069 A 
ENDROOT
BRANCH   5  11
HETATM   11  N1  UNL     1      25.385   1.831  53.309  1.00  0.00    -0.340 N 
HETATM   12  H12 UNL     1      24.938   2.095  54.246  1.00  0.00     0.167 HD
BRANCH  11  13
HETATM   13  C11 UNL     1      26.610   1.023  53.344  1.00  0.00     0.035 A 
HETATM   14  C12 UNL     1      27.794   1.628  53.719  1.00  0.00     0.032 A 
HETATM   15  C13 UNL     1      28.990   0.938  53.776  1.00  0.00     0.046 A 
HETATM   16  C14 UNL     1      28.974  -0.385  53.447  1.00  0.00     0.138 A 
HETATM   17  F1  UNL     1      30.142  -1.095  53.496  1.00  0.00    -0.204 F 
HETATM   18  C15 UNL     1      27.800  -0.979  53.079  1.00  0.00     0.074 A 
HETATM   19 CL1  UNL     1      27.846  -2.674  52.670  1.00  0.00    -0.081 Cl
HETATM   20  C16 UNL     1      26.586  -0.315  53.011  1.00  0.00     0.056 A 
ENDBRANCH  11  13
ENDBRANCH   5  11
BRANCH   3  21
HETATM   21  C5  UNL     1      22.880   0.615  53.314  1.00  0.00     0.045 C 
HETATM   22  C6  UNL     1      21.357   0.679  53.694  1.00  0.00     0.037 C 
HETATM   23  C7  UNL     1      21.386  -0.451  54.710  1.00  0.00     0.168 C 
HETATM   24  O2  UNL     1      21.823  -1.412  53.804  1.00  0.00    -0.390 OA
HETATM   25  C8  UNL     1      23.013  -0.882  53.362  1.00  0.00     0.177 C 
ENDBRANCH   3  21
BRANCH   1  26
HETATM   26  O1  UNL     1      20.328   1.025  49.304  1.00  0.00    -0.356 OA
HETATM   27  C1  UNL     1      19.091   1.062  49.982  1.00  0.00     0.210 C 
ENDBRANCH   1  26
TORSDOF 4
ENDMDL
MODEL 3
REMARK VINA RESULT:      -8.8      2.462      4.056
REMARK  4 active torsions:
REMARK  status: ('A' for Active; 'I' for Inactive)
REMARK    1  A    between atoms: O1_2  and  C2_3 
REMARK    2  A    between atoms: C4_5  and  C5_6 
REMARK    3  A    between atoms: C10_12  and  N1_13 
REMARK    4  A    between atoms: N1_13  and  C11_14 
ROOT
HETATM    1  C2  UNL     1      22.113   2.135  49.055  1.00  0.00     0.071 A 
HETATM    2  C3  UNL     1      23.267   2.816  49.469  1.00  0.00     0.045 A 
HETATM    3  C4  UNL     1      23.918   2.575  50.698  1.00  0.00    -0.033 A 
HETATM    4  C9  UNL     1      23.314   1.607  51.454  1.00  0.00     0.046 A 
HETATM    5  C10 UNL     1      24.003   1.448  52.624  1.00  0.00     0.142 A 
HETATM    6  N2  UNL     1      23.578   0.539  53.534  1.00  0.00    -0.223 NA
HETATM    7  C17 UNL     1      22.460  -0.180  53.220  1.00  0.00     0.236 A 
HETATM    8  N3  UNL     1      21.781  -0.007  52.046  1.00  0.00    -0.241 NA
HETATM    9  C18 UNL     1      22.193   0.891  51.136  1.00  0.00     0.075 A 
HETATM   10  C19 UNL     1      21.611   1.177  49.926  1.00  0.00     0.069 A 
ENDROOT
BRANCH   5  11
HETATM   11  N1  UNL     1      25.145   2.058  53.215  1.00  0.00    -0.340 N 
HETATM   12  H12 UNL     1      25.196   3.048  53.619  1.00  0.00     0.167 HD
BRANCH  11  13
HETATM   13  C11 UNL     1      26.374   1.254  53.229  1.00  0.00     0.035 A 
HETATM   14  C12 UNL     1      27.568   1.872  53.541  1.00  0.00     0.032 A 
HETATM   15  C13 UNL     1      28.768   1.186  53.574  1.00  0.00     0.046 A 
HETATM   16  C14 UNL     1      28.743  -0.146  53.287  1.00  0.00     0.138 A 
HETATM   17  F1  UNL     1      29.915  -0.852  53.313  1.00  0.00    -0.204 F 
HETATM   18  C15 UNL     1      27.559  -0.753  52.980  1.00  0.00     0.074 A 
HETATM   19 CL1  UNL     1      27.594  -2.460  52.622  1.00  0.00    -0.081 Cl
HETATM   20  C16 UNL     1      26.341  -0.093  52.937  1.00  0.00     0.056 A 
ENDBRANCH  11  13
ENDBRANCH   5  11
BRANCH   3  21
HETATM   21  C5  UNL     1      25.097   3.408  50.781  1.00  0.00     0.045 C 
HETATM   22  C6  UNL     1      26.040   2.864  49.648  1.00  0.00     0.037 C 
HETATM   23  C7  UNL     1      26.842   4.143  49.463  1.00  0.00     0.168 C 
HETATM   24  O2  UNL     1      25.741   4.922  49.120  1.00  0.00    -0.390 OA
HETATM   25  C8  UNL     1      24.932   4.796  50.225  1.00  0.00     0.177 C 
ENDBRANCH   3  21
BRANCH   1  26
HETATM   26  O1  UNL     1      21.473   2.364  47.860  1.00  0.00    -0.356 OA
HETATM   27  C1  UNL     1      22.035   3.273  46.939  1.00  0.00     0.210 C 
ENDBRANCH   1  26
TORSDOF 4
ENDMDL
MODEL 4
REMARK VINA RESULT:      -8.6      4.106      5.510
REMARK  4 active torsions:
REMARK  status: ('A' for Active; 'I' for Inactive)
REMARK    1  A    between atoms: O1_2  and  C2_3 
REMARK    2  A    between atoms: C4_5  and  C5_6 
REMARK    3  A    between atoms: C10_12  and  N1_13 
REMARK    4  A    between atoms: N1_13  and  C11_14 
ROOT
HETATM    1  C2  UNL     1      22.793   0.295  52.906  1.00  0.00     0.071 A 
HETATM    2  C3  UNL     1      22.456   0.983  51.732  1.00  0.00     0.045 A 
HETATM    3  C4  UNL     1      23.371   1.762  50.993  1.00  0.00    -0.033 A 
HETATM    4  C9  UNL     1      24.628   1.785  51.533  1.00  0.00     0.046 A 
HETATM    5  C10 UNL     1      25.441   2.568  50.761  1.00  0.00     0.142 A 
HETATM    6  N2  UNL     1      26.738   2.739  51.111  1.00  0.00    -0.223 NA
HETATM    7  C17 UNL     1      27.165   2.104  52.244  1.00  0.00     0.236 A 
HETATM    8  N3  UNL     1      26.338   1.326  53.005  1.00  0.00    -0.241 NA
HETATM    9  C18 UNL     1      25.051   1.149  52.668  1.00  0.00     0.075 A 
HETATM   10  C19 UNL     1      24.109   0.408  53.337  1.00  0.00     0.069 A 
ENDROOT
BRANCH   5  11
HETATM   11  N1  UNL     1      25.269   3.351  49.585  1.00  0.00    -0.340 N 
HETATM   12  H12 UNL     1      25.072   2.979  48.600  1.00  0.00     0.167 HD
BRANCH  11  13
HETATM   13  C11 UNL     1      25.417   4.803  49.747  1.00  0.00     0.035 A 
HETATM   14  C12 UNL     1      24.596   5.457  50.644  1.00  0.00     0.032 A 
HETATM   15  C13 UNL     1      24.671   6.822  50.854  1.00  0.00     0.046 A 
HETATM   16  C14 UNL     1      25.597   7.522  50.140  1.00  0.00     0.138 A 
HETATM   17  F1  UNL     1      25.696   8.873  50.327  1.00  0.00    -0.204 F 
HETATM   18  C15 UNL     1      26.408   6.869  49.255  1.00  0.00     0.074 A 
HETATM   19 CL1  UNL     1      27.572   7.821  48.372  1.00  0.00    -0.081 Cl
HETATM   20  C16 UNL     1      26.356   5.505  49.022  1.00  0.00     0.056 A 
ENDBRANCH  11  13
ENDBRANCH   5  11
BRANCH   3  21
HETATM   21  C5  UNL     1      22.708   2.284  49.818  1.00  0.00     0.045 C 
HETATM   22  C6  UNL     1      21.739   1.130  49.372  1.00  0.00     0.037 C 
HETATM   23  C7  UNL     1      20.756   2.013  48.620  1.00  0.00     0.168 C 
HETATM   24  O2  UNL     1      20.428   2.790  49.727  1.00  0.00    -0.390 OA
HETATM   25  C8  UNL     1      21.646   3.312  50.095  1.00  0.00     0.177 C 
ENDBRANCH   3  21
BRANCH   1  26
HETATM   26  O1  UNL     1      21.908  -0.467  53.633  1.00  0.00    -0.356 OA
HETATM   27  C1  UNL     1      22.335  -1.056  54.842  1.00  0.00     0.210 C 
ENDBRANCH   1  26
TORSDOF 4
ENDMDL
MODEL 5
REMARK VINA RESULT:      -8.6      4.295      7.126
REMARK  4 active torsions:
REMARK  status: ('A' for Active; 'I' for Inactive)
REMARK    1  A    between atoms: O1_2  and  C2_3 
REMARK    2  A    between atoms: C4_5  and  C5_6 
REMARK    3  A    between atoms: C10_12  and  N1_13 
REMARK    4  A    between atoms: N1_13  and  C11_14 
ROOT
HETATM    1  C2  UNL     1      26.362  -0.997  53.084  1.00  0.00     0.071 A 
HETATM    2  C3  UNL     1      25.053  -0.882  53.574  1.00  0.00     0.045 A 
HETATM    3  C4  UNL     1      24.197   0.198  53.269  1.00  0.00    -0.033 A 
HETATM    4  C9  UNL     1      24.768   1.130  52.445  1.00  0.00     0.046 A 
HETATM    5  C10 UNL     1      23.874   2.139  52.213  1.00  0.00     0.142 A 
HETATM    6  N2  UNL     1      24.230   3.179  51.422  1.00  0.00    -0.223 NA
HETATM    7  C17 UNL     1      25.489   3.157  50.893  1.00  0.00     0.236 A 
HETATM    8  N3  UNL     1      26.370   2.141  51.137  1.00  0.00    -0.241 NA
HETATM    9  C18 UNL     1      26.030   1.105  51.919  1.00  0.00     0.075 A 
HETATM   10  C19 UNL     1      26.809   0.025  52.257  1.00  0.00     0.069 A 
ENDROOT
BRANCH   5  11
HETATM   11  N1  UNL     1      22.550   2.434  52.640  1.00  0.00    -0.340 N 
HETATM   12  H12 UNL     1      22.239   2.635  53.645  1.00  0.00     0.167 HD
BRANCH  11  13
HETATM   13  C11 UNL     1      21.515   2.419  51.598  1.00  0.00     0.035 A 
HETATM   14  C12 UNL     1      21.511   1.386  50.682  1.00  0.00     0.032 A 
HETATM   15  C13 UNL     1      20.573   1.299  49.670  1.00  0.00     0.046 A 
HETATM   16  C14 UNL     1      19.629   2.280  49.598  1.00  0.00     0.138 A 
HETATM   17  F1  UNL     1      18.686   2.221  48.609  1.00  0.00    -0.204 F 
HETATM   18  C15 UNL     1      19.636   3.299  50.508  1.00  0.00     0.074 A 
HETATM   19 CL1  UNL     1      18.401   4.522  50.362  1.00  0.00    -0.081 Cl
HETATM   20  C16 UNL     1      20.563   3.414  51.531  1.00  0.00     0.056 A 
ENDBRANCH  11  13
ENDBRANCH   5  11
BRANCH   3  21
HETATM   21  C5  UNL     1      22.911  -0.026  53.892  1.00  0.00     0.045 C 
HETATM   22  C6  UNL     1      22.288  -1.219  53.082  1.00  0.00     0.037 C 
HETATM   23  C7  UNL     1      21.351  -1.700  54.180  1.00  0.00     0.168 C 
HETATM   24  O2  UNL     1      22.367  -1.955  55.096  1.00  0.00    -0.390 OA
HETATM   25  C8  UNL     1      22.966  -0.724  55.224  1.00  0.00     0.177 C 
ENDBRANCH   3  21
BRANCH   1  26
HETATM   26  O1  UNL     1      27.203  -2.045  53.377  1.00  0.00    -0.356 OA
HETATM   27  C1  UNL     1      28.583  -1.918  53.110  1.00  0.00     0.210 C 
ENDBRANCH   1  26
TORSDOF 4
ENDMDL
MODEL 6
REMARK VINA RESULT:      -8.4      1.575      1.905
REMARK  4 active torsions:
REMARK  status: ('A' for Active; 'I' for Inactive)
REMARK    1  A    between atoms: O1_2  and  C2_3 
REMARK    2  A    between atoms: C4_5  and  C5_6 
REMARK    3  A    between atoms: C10_12  and  N1_13 
REMARK    4  A    between atoms: N1_13  and  C11_14 
ROOT
HETATM    1  C2  UNL     1      19.157   0.112  51.889  1.00  0.00     0.071 A 
HETATM    2  C3  UNL     1      20.160   0.741  51.137  1.00  0.00     0.045 A 
HETATM    3  C4  UNL     1      21.523   0.747  51.504  1.00  0.00    -0.033 A 
HETATM    4  C9  UNL     1      21.776   0.079  52.672  1.00  0.00     0.046 A 
HETATM    5  C10 UNL     1      23.113   0.146  52.953  1.00  0.00     0.142 A 
HETATM    6  N2  UNL     1      23.592  -0.447  54.072  1.00  0.00    -0.223 NA
HETATM    7  C17 UNL     1      22.689  -1.090  54.872  1.00  0.00     0.236 A 
HETATM    8  N3  UNL     1      21.356  -1.145  54.576  1.00  0.00    -0.241 NA
HETATM    9  C18 UNL     1      20.869  -0.562  53.470  1.00  0.00     0.075 A 
HETATM   10  C19 UNL     1      19.561  -0.529  53.053  1.00  0.00     0.069 A 
ENDROOT
BRANCH   5  11
HETATM   11  N1  UNL     1      24.245   0.752  52.341  1.00  0.00    -0.340 N 
HETATM   12  H12 UNL     1      24.229   1.434  51.516  1.00  0.00     0.167 HD
BRANCH  11  13
HETATM   13  C11 UNL     1      25.556   0.363  52.877  1.00  0.00     0.035 A 
HETATM   14  C12 UNL     1      26.228   1.250  53.694  1.00  0.00     0.032 A 
HETATM   15  C13 UNL     1      27.466   0.961  54.238  1.00  0.00     0.046 A 
HETATM   16  C14 UNL     1      28.019  -0.249  53.942  1.00  0.00     0.138 A 
HETATM   17  F1  UNL     1      29.242  -0.565  54.466  1.00  0.00    -0.204 F 
HETATM   18  C15 UNL     1      27.350  -1.123  53.134  1.00  0.00     0.074 A 
HETATM   19 CL1  UNL     1      28.111  -2.655  52.793  1.00  0.00    -0.081 Cl
HETATM   20  C16 UNL     1      26.110  -0.862  52.574  1.00  0.00     0.056 A 
ENDBRANCH  11  13
ENDBRANCH   5  11
BRANCH   3  21
HETATM   21  C5  UNL     1      22.285   1.434  50.485  1.00  0.00     0.045 C 
HETATM   22  C6  UNL     1      21.428   1.268  49.179  1.00  0.00     0.037 C 
HETATM   23  C7  UNL     1      21.981   2.486  48.455  1.00  0.00     0.168 C 
HETATM   24  O2  UNL     1      21.573   3.394  49.427  1.00  0.00    -0.390 OA
HETATM   25  C8  UNL     1      22.221   2.936  50.551  1.00  0.00     0.177 C 
ENDBRANCH   3  21
BRANCH   1  26
HETATM   26  O1  UNL     1      17.827   0.101  51.538  1.00  0.00    -0.356 OA
HETATM   27  C1  UNL     1      17.155   1.326  51.339  1.00  0.00     0.210 C 
ENDBRANCH   1  26
TORSDOF 4
ENDMDL
MODEL 7
REMARK VINA RESULT:      -8.3      4.460      7.289
REMARK  4 active torsions:
REMARK  status: ('A' for Active; 'I' for Inactive)
REMARK    1  A    between atoms: O1_2  and  C2_3 
REMARK    2  A    between atoms: C4_5  and  C5_6 
REMARK    3  A    between atoms: C10_12  and  N1_13 
REMARK    4  A    between atoms: N1_13  and  C11_14 
ROOT
HETATM    1  C2  UNL     1      26.389   0.523  53.825  1.00  0.00     0.071 A 
HETATM    2  C3  UNL     1      25.028   0.325  53.551  1.00  0.00     0.045 A 
HETATM    3  C4  UNL     1      24.350   0.941  52.478  1.00  0.00    -0.033 A 
HETATM    4  C9  UNL     1      25.149   1.755  51.723  1.00  0.00     0.046 A 
HETATM    5  C10 UNL     1      24.409   2.314  50.718  1.00  0.00     0.142 A 
HETATM    6  N2  UNL     1      24.999   3.165  49.845  1.00  0.00    -0.223 NA
HETATM    7  C17 UNL     1      26.329   3.421  50.027  1.00  0.00     0.236 A 
HETATM    8  N3  UNL     1      27.053   2.855  51.039  1.00  0.00    -0.241 NA
HETATM    9  C18 UNL     1      26.480   2.010  51.910  1.00  0.00     0.075 A 
HETATM   10  C19 UNL     1      27.077   1.377  52.973  1.00  0.00     0.069 A 
ENDROOT
BRANCH   5  11
HETATM   11  N1  UNL     1      23.045   2.258  50.316  1.00  0.00    -0.340 N 
HETATM   12  H12 UNL     1      22.504   1.378  50.034  1.00  0.00     0.167 HD
BRANCH  11  13
HETATM   13  C11 UNL     1      22.337   3.543  50.250  1.00  0.00     0.035 A 
HETATM   14  C12 UNL     1      22.260   4.317  51.390  1.00  0.00     0.032 A 
HETATM   15  C13 UNL     1      21.611   5.538  51.412  1.00  0.00     0.046 A 
HETATM   16  C14 UNL     1      21.036   5.969  50.253  1.00  0.00     0.138 A 
HETATM   17  F1  UNL     1      20.388   7.173  50.242  1.00  0.00    -0.204 F 
HETATM   18  C15 UNL     1      21.117   5.199  49.128  1.00  0.00     0.074 A 
HETATM   19 CL1  UNL     1      20.362   5.807  47.677  1.00  0.00    -0.081 Cl
HETATM   20  C16 UNL     1      21.759   3.973  49.075  1.00  0.00     0.056 A 
ENDBRANCH  11  13
ENDBRANCH   5  11
BRANCH   3  21
HETATM   21  C5  UNL     1      22.979   0.479  52.456  1.00  0.00     0.045 C 
HETATM   22  C6  UNL     1      23.024  -0.910  53.189  1.00  0.00     0.037 C 
HETATM   23  C7  UNL     1      21.566  -0.925  53.619  1.00  0.00     0.168 C 
HETATM   24  O2  UNL     1      21.655   0.244  54.368  1.00  0.00    -0.390 OA
HETATM   25  C8  UNL     1      22.064   1.166  53.433  1.00  0.00     0.177 C 
ENDBRANCH   3  21
BRANCH   1  26
HETATM   26  O1  UNL     1      27.058  -0.073  54.868  1.00  0.00    -0.356 OA
HETATM   27  C1  UNL     1      28.465   0.018  54.928  1.00  0.00     0.210 C 
ENDBRANCH   1  26
TORSDOF 4
ENDMDL
MODEL 8
REMARK VINA RESULT:      -8.1      4.398      6.926
REMARK  4 active torsions:
REMARK  status: ('A' for Active; 'I' for Inactive)
REMARK    1  A    between atoms: O1_2  and  C2_3 
REMARK    2  A    between atoms: C4_5  and  C5_6 
REMARK    3  A    between atoms: C10_12  and  N1_13 
REMARK    4  A    between atoms: N1_13  and  C11_14 
ROOT
HETATM    1  C2  UNL     1      25.775   0.373  52.543  1.00  0.00     0.071 A 
HETATM    2  C3  UNL     1      24.906   1.339  52.017  1.00  0.00     0.045 A 
HETATM    3  C4  UNL     1      23.540   1.432  52.360  1.00  0.00    -0.033 A 
HETATM    4  C9  UNL     1      23.139   0.483  53.261  1.00  0.00     0.046 A 
HETATM    5  C10 UNL     1      21.807   0.641  53.526  1.00  0.00     0.142 A 
HETATM    6  N2  UNL     1      21.192  -0.197  54.394  1.00  0.00    -0.223 NA
HETATM    7  C17 UNL     1      21.958  -1.175  54.964  1.00  0.00     0.236 A 
HETATM    8  N3  UNL     1      23.288  -1.320  54.686  1.00  0.00    -0.241 NA
HETATM    9  C18 UNL     1      23.909  -0.495  53.828  1.00  0.00     0.075 A 
HETATM   10  C19 UNL     1      25.229  -0.527  53.449  1.00  0.00     0.069 A 
ENDROOT
BRANCH   5  11
HETATM   11  N1  UNL     1      20.784   1.521  53.073  1.00  0.00    -0.340 N 
HETATM   12  H12 UNL     1      20.700   2.563  53.300  1.00  0.00     0.167 HD
BRANCH  11  13
HETATM   13  C11 UNL     1      19.731   0.916  52.247  1.00  0.00     0.035 A 
HETATM   14  C12 UNL     1      19.624   1.297  50.924  1.00  0.00     0.032 A 
HETATM   15  C13 UNL     1      18.660   0.776  50.081  1.00  0.00     0.046 A 
HETATM   16  C14 UNL     1      17.797  -0.144  50.599  1.00  0.00     0.138 A 
HETATM   17  F1  UNL     1      16.833  -0.678  49.790  1.00  0.00    -0.204 F 
HETATM   18  C15 UNL     1      17.908  -0.517  51.908  1.00  0.00     0.074 A 
HETATM   19 CL1  UNL     1      16.775  -1.699  52.510  1.00  0.00    -0.081 Cl
HETATM   20  C16 UNL     1      18.862  -0.014  52.777  1.00  0.00     0.056 A 
ENDBRANCH  11  13
ENDBRANCH   5  11
BRANCH   3  21
HETATM   21  C5  UNL     1      22.956   2.567  51.680  1.00  0.00     0.045 C 
HETATM   22  C6  UNL     1      23.657   3.814  52.329  1.00  0.00     0.037 C 
HETATM   23  C7  UNL     1      23.443   4.760  51.158  1.00  0.00     0.168 C 
HETATM   24  O2  UNL     1      24.146   3.979  50.247  1.00  0.00    -0.390 OA
HETATM   25  C8  UNL     1      23.455   2.791  50.279  1.00  0.00     0.177 C 
ENDBRANCH   3  21
BRANCH   1  26
HETATM   26  O1  UNL     1      27.107   0.276  52.214  1.00  0.00    -0.356 OA
HETATM   27  C1  UNL     1      27.985  -0.403  53.085  1.00  0.00     0.210 C 
ENDBRANCH   1  26
TORSDOF 4
ENDMDL
MODEL 9
REMARK VINA RESULT:      -7.9      4.578      7.598
REMARK  4 active torsions:
REMARK  status: ('A' for Active; 'I' for Inactive)
REMARK    1  A    between atoms: O1_2  and  C2_3 
REMARK    2  A    between atoms: C4_5  and  C5_6 
REMARK    3  A    between atoms: C10_12  and  N1_13 
REMARK    4  A    between atoms: N1_13  and  C11_14 
ROOT
HETATM    1  C2  UNL     1      26.418   3.718  49.761  1.00  0.00     0.071 A 
HETATM    2  C3  UNL     1      26.364   2.712  50.737  1.00  0.00     0.045 A 
HETATM    3  C4  UNL     1      25.226   2.455  51.531  1.00  0.00    -0.033 A 
HETATM    4  C9  UNL     1      24.173   3.286  51.260  1.00  0.00     0.046 A 
HETATM    5  C10 UNL     1      23.124   2.973  52.080  1.00  0.00     0.142 A 
HETATM    6  N2  UNL     1      21.969   3.674  51.988  1.00  0.00    -0.223 NA
HETATM    7  C17 UNL     1      21.922   4.677  51.062  1.00  0.00     0.236 A 
HETATM    8  N3  UNL     1      22.981   4.978  50.251  1.00  0.00    -0.241 NA
HETATM    9  C18 UNL     1      24.130   4.290  50.332  1.00  0.00     0.075 A 
HETATM   10  C19 UNL     1      25.272   4.484  49.594  1.00  0.00     0.069 A 
ENDROOT
BRANCH   5  11
HETATM   11  N1  UNL     1      22.904   2.032  53.125  1.00  0.00    -0.340 N 
HETATM   12  H12 UNL     1      23.533   1.874  53.977  1.00  0.00     0.167 HD
BRANCH  11  13
HETATM   13  C11 UNL     1      21.718   1.177  52.987  1.00  0.00     0.035 A 
HETATM   14  C12 UNL     1      21.398   0.315  54.017  1.00  0.00     0.032 A 
HETATM   15  C13 UNL     1      20.299  -0.523  53.965  1.00  0.00     0.046 A 
HETATM   16  C14 UNL     1      19.522  -0.476  52.846  1.00  0.00     0.138 A 
HETATM   17  F1  UNL     1      18.427  -1.293  52.765  1.00  0.00    -0.204 F 
HETATM   18  C15 UNL     1      19.842   0.379  51.830  1.00  0.00     0.074 A 
HETATM   19 CL1  UNL     1      18.807   0.391  50.426  1.00  0.00    -0.081 Cl
HETATM   20  C16 UNL     1      20.936   1.229  51.853  1.00  0.00     0.056 A 
ENDBRANCH  11  13
ENDBRANCH   5  11
BRANCH   3  21
HETATM   21  C5  UNL     1      25.494   1.324  52.391  1.00  0.00     0.045 C 
HETATM   22  C6  UNL     1      26.598   0.507  51.628  1.00  0.00     0.037 C 
HETATM   23  C7  UNL     1      27.172  -0.192  52.851  1.00  0.00     0.168 C 
HETATM   24  O2  UNL     1      27.523   0.986  53.503  1.00  0.00    -0.390 OA
HETATM   25  C8  UNL     1      26.317   1.637  53.612  1.00  0.00     0.177 C 
ENDBRANCH   3  21
BRANCH   1  26
HETATM   26  O1  UNL     1      27.522   3.975  48.982  1.00  0.00    -0.356 OA
HETATM   27  C1  UNL     1      27.760   5.292  48.536  1.00  0.00     0.210 C 
ENDBRANCH   1  26
TORSDOF 4
ENDMDL
