MODEL 1
REMARK VINA RESULT:      -8.8      0.000      0.000
REMARK  7 active torsions:
REMARK  status: ('A' for Active; 'I' for Inactive)
REMARK    1  A    between atoms: N1_7  and  C6_8 
REMARK    2  A    between atoms: C6_8  and  C7_9 
REMARK    3  A    between atoms: C7_9  and  N2_10 
REMARK    4  A    between atoms: N2_10  and  O2_11 
REMARK    5  A    between atoms: N2_10  and  C8_12 
REMARK    6  A    between atoms: C14_20  and  N5_21 
REMARK    7  A    between atoms: N5_21  and  C15_22 
ROOT
HETATM    1  C8  UNL     1      26.279   2.367  51.471  1.00  0.00     0.367 C 
HETATM    2  C9  UNL     1      26.981   3.392  50.603  1.00  0.00     0.042 C 
HETATM    3  C10 UNL     1      26.007   4.159  50.064  1.00  0.00     0.004 C 
HETATM    4  C11 UNL     1      26.018   5.301  49.162  1.00  0.00     0.070 C 
HETATM    5  C12 UNL     1      27.221   5.704  48.502  1.00  0.00     0.101 C 
HETATM    6  N3  UNL     1      28.181   6.037  47.979  1.00  0.00    -0.191 NA
HETATM    7  C13 UNL     1      24.868   5.927  48.994  1.00  0.00     0.142 C 
HETATM    8  N4  UNL     1      23.697   5.506  49.637  1.00  0.00    -0.243 NA
HETATM    9  C14 UNL     1      23.575   4.496  50.425  1.00  0.00     0.142 C 
HETATM   10  C21 UNL     1      24.717   3.624  50.570  1.00  0.00     0.326 C 
HETATM   11  N6  UNL     1      25.106   3.192  51.886  1.00  0.00     0.128 N 
HETATM   12  H23 UNL     1      24.381   2.544  52.254  1.00  0.00     0.320 HD
ENDROOT
BRANCH   1  13
HETATM   13  N2  UNL     1      27.155   2.066  52.549  1.00  0.00    -0.258 N 
BRANCH  13  14
HETATM   14  C7  UNL     1      26.536   1.789  53.803  1.00  0.00     0.172 C 
BRANCH  14  15
HETATM   15  C6  UNL     1      27.340   0.724  54.520  1.00  0.00     0.145 C 
BRANCH  15  16
HETATM   16  N1  UNL     1      27.482  -0.468  53.696  1.00  0.00    -0.379 N 
HETATM   17  C2  UNL     1      28.810  -0.921  53.517  1.00  0.00     0.021 C 
HETATM   18  C1  UNL     1      29.843  -0.112  53.525  1.00  0.00     0.040 C 
HETATM   19  C3  UNL     1      29.149  -2.369  53.310  1.00  0.00     0.223 C 
HETATM   20  O1  UNL     1      27.941  -3.066  53.132  1.00  0.00    -0.384 OA
HETATM   21  C4  UNL     1      27.185  -2.311  52.231  1.00  0.00     0.187 C 
HETATM   22  C5  UNL     1      26.447  -1.250  53.048  1.00  0.00     0.149 C 
ENDBRANCH  15  16
ENDBRANCH  14  15
ENDBRANCH  13  14
BRANCH  13  23
HETATM   23  O2  UNL     1      28.235   2.864  52.615  1.00  0.00    -0.290 OA
HETATM   24  H13 UNL     1      27.948   3.727  52.176  1.00  0.00     0.244 HD
ENDBRANCH  13  23
ENDBRANCH   1  13
BRANCH   9  25
HETATM   25  N5  UNL     1      22.331   4.197  51.015  1.00  0.00    -0.342 N 
HETATM   26  H17 UNL     1      21.784   4.990  51.450  1.00  0.00     0.167 HD
BRANCH  25  27
HETATM   27  C15 UNL     1      21.840   2.839  51.014  1.00  0.00     0.034 A 
HETATM   28  C16 UNL     1      21.581   2.055  49.917  1.00  0.00     0.029 A 
HETATM   29  C17 UNL     1      21.116   0.762  50.076  1.00  0.00     0.004 A 
HETATM   30  C18 UNL     1      20.907   0.244  51.331  1.00  0.00     0.019 A 
HETATM   31  C19 UNL     1      21.158   1.004  52.454  1.00  0.00     0.013 A 
HETATM   32 BR1  UNL     1      20.839   0.200  54.147  1.00  0.00    -0.051 Br
HETATM   33  C20 UNL     1      21.625   2.306  52.288  1.00  0.00     0.048 A 
ENDBRANCH  25  27
ENDBRANCH   9  25
TORSDOF 7
ENDMDL
MODEL 2
REMARK VINA RESULT:      -8.5      4.250      6.610
REMARK  7 active torsions:
REMARK  status: ('A' for Active; 'I' for Inactive)
REMARK    1  A    between atoms: N1_7  and  C6_8 
REMARK    2  A    between atoms: C6_8  and  C7_9 
REMARK    3  A    between atoms: C7_9  and  N2_10 
REMARK    4  A    between atoms: N2_10  and  O2_11 
REMARK    5  A    between atoms: N2_10  and  C8_12 
REMARK    6  A    between atoms: C14_20  and  N5_21 
REMARK    7  A    between atoms: N5_21  and  C15_22 
ROOT
HETATM    1  C8  UNL     1      26.412   8.330  49.669  1.00  0.00     0.367 C 
HETATM    2  C9  UNL     1      25.085   9.021  49.419  1.00  0.00     0.042 C 
HETATM    3  C10 UNL     1      24.128   8.139  49.782  1.00  0.00     0.004 C 
HETATM    4  C11 UNL     1      22.673   8.191  49.792  1.00  0.00     0.070 C 
HETATM    5  C12 UNL     1      21.972   9.272  49.170  1.00  0.00     0.101 C 
HETATM    6  N3  UNL     1      21.407  10.137  48.682  1.00  0.00    -0.191 NA
HETATM    7  C13 UNL     1      22.054   7.196  50.400  1.00  0.00     0.142 C 
HETATM    8  N4  UNL     1      22.759   6.139  50.989  1.00  0.00    -0.243 NA
HETATM    9  C14 UNL     1      24.036   5.983  51.008  1.00  0.00     0.142 C 
HETATM   10  C21 UNL     1      24.830   6.913  50.239  1.00  0.00     0.326 C 
HETATM   11  N6  UNL     1      26.008   7.488  50.834  1.00  0.00     0.128 N 
HETATM   12  H23 UNL     1      26.725   6.743  50.945  1.00  0.00     0.320 HD
ENDROOT
BRANCH   1  13
HETATM   13  N2  UNL     1      27.349   9.341  50.014  1.00  0.00    -0.258 N 
BRANCH  13  14
HETATM   14  C7  UNL     1      28.480   9.468  49.156  1.00  0.00     0.172 C 
BRANCH  14  15
HETATM   15  C6  UNL     1      28.545   8.257  48.250  1.00  0.00     0.145 C 
BRANCH  15  16
HETATM   16  N1  UNL     1      29.711   7.439  48.551  1.00  0.00    -0.379 N 
HETATM   17  C2  UNL     1      29.561   6.057  48.288  1.00  0.00     0.021 C 
HETATM   18  C1  UNL     1      28.404   5.442  48.360  1.00  0.00     0.040 C 
HETATM   19  C3  UNL     1      30.714   5.179  47.895  1.00  0.00     0.223 C 
HETATM   20  O1  UNL     1      31.892   5.931  48.053  1.00  0.00    -0.384 OA
HETATM   21  C4  UNL     1      31.787   6.563  49.295  1.00  0.00     0.187 C 
HETATM   22  C5  UNL     1      30.998   7.854  49.073  1.00  0.00     0.149 C 
ENDBRANCH  15  16
ENDBRANCH  14  15
ENDBRANCH  13  14
BRANCH  13  23
HETATM   23  O2  UNL     1      27.624   9.405  51.329  1.00  0.00    -0.290 OA
HETATM   24  H13 UNL     1      27.000   8.737  51.758  1.00  0.00     0.244 HD
ENDBRANCH  13  23
ENDBRANCH   1  13
BRANCH   9  25
HETATM   25  N5  UNL     1      24.611   4.871  51.654  1.00  0.00    -0.342 N 
HETATM   26  H17 UNL     1      25.542   5.003  52.137  1.00  0.00     0.167 HD
BRANCH  25  27
HETATM   27  C15 UNL     1      23.930   3.598  51.642  1.00  0.00     0.034 A 
HETATM   28  C16 UNL     1      23.788   2.727  52.694  1.00  0.00     0.029 A 
HETATM   29  C17 UNL     1      23.098   1.539  52.530  1.00  0.00     0.004 A 
HETATM   30  C18 UNL     1      22.546   1.214  51.315  1.00  0.00     0.019 A 
HETATM   31  C19 UNL     1      22.669   2.066  50.238  1.00  0.00     0.013 A 
HETATM   32 BR1  UNL     1      21.871   1.530  48.598  1.00  0.00    -0.051 Br
HETATM   33  C20 UNL     1      23.366   3.262  50.409  1.00  0.00     0.048 A 
ENDBRANCH  25  27
ENDBRANCH   9  25
TORSDOF 7
ENDMDL
MODEL 3
REMARK VINA RESULT:      -8.4      3.335      5.728
REMARK  7 active torsions:
REMARK  status: ('A' for Active; 'I' for Inactive)
REMARK    1  A    between atoms: N1_7  and  C6_8 
REMARK    2  A    between atoms: C6_8  and  C7_9 
REMARK    3  A    between atoms: C7_9  and  N2_10 
REMARK    4  A    between atoms: N2_10  and  O2_11 
REMARK    5  A    between atoms: N2_10  and  C8_12 
REMARK    6  A    between atoms: C14_20  and  N5_21 
REMARK    7  A    between atoms: N5_21  and  C15_22 
ROOT
HETATM    1  C8  UNL     1      23.824   3.489  52.863  1.00  0.00     0.367 C 
HETATM    2  C9  UNL     1      22.461   3.451  52.198  1.00  0.00     0.042 C 
HETATM    3  C10 UNL     1      22.281   4.669  51.641  1.00  0.00     0.004 C 
HETATM    4  C11 UNL     1      21.202   5.264  50.867  1.00  0.00     0.070 C 
HETATM    5  C12 UNL     1      19.945   4.597  50.725  1.00  0.00     0.101 C 
HETATM    6  N3  UNL     1      18.941   4.064  50.601  1.00  0.00    -0.191 NA
HETATM    7  C13 UNL     1      21.452   6.437  50.315  1.00  0.00     0.142 C 
HETATM    8  N4  UNL     1      22.684   7.082  50.480  1.00  0.00    -0.243 NA
HETATM    9  C14 UNL     1      23.687   6.658  51.166  1.00  0.00     0.142 C 
HETATM   10  C21 UNL     1      23.495   5.465  51.956  1.00  0.00     0.326 C 
HETATM   11  N6  UNL     1      24.501   4.437  51.929  1.00  0.00     0.128 N 
HETATM   12  H23 UNL     1      25.355   4.790  52.406  1.00  0.00     0.320 HD
ENDROOT
BRANCH   1  13
HETATM   13  N2  UNL     1      24.354   2.173  52.799  1.00  0.00    -0.258 N 
BRANCH  13  14
HETATM   14  C7  UNL     1      25.075   1.842  51.614  1.00  0.00     0.172 C 
BRANCH  14  15
HETATM   15  C6  UNL     1      26.548   2.100  51.851  1.00  0.00     0.145 C 
BRANCH  15  16
HETATM   16  N1  UNL     1      27.176   0.972  52.525  1.00  0.00    -0.379 N 
HETATM   17  C2  UNL     1      28.058   1.315  53.576  1.00  0.00     0.021 C 
HETATM   18  C1  UNL     1      28.739   2.437  53.595  1.00  0.00     0.040 C 
HETATM   19  C3  UNL     1      28.283   0.425  54.765  1.00  0.00     0.223 C 
HETATM   20  O1  UNL     1      27.646  -0.801  54.503  1.00  0.00    -0.384 OA
HETATM   21  C4  UNL     1      27.997  -1.150  53.196  1.00  0.00     0.187 C 
HETATM   22  C5  UNL     1      27.010  -0.444  52.265  1.00  0.00     0.149 C 
ENDBRANCH  15  16
ENDBRANCH  14  15
ENDBRANCH  13  14
BRANCH  13  23
HETATM   23  O2  UNL     1      23.508   1.221  53.231  1.00  0.00    -0.290 OA
HETATM   24  H13 UNL     1      23.593   0.473  52.558  1.00  0.00     0.244 HD
ENDBRANCH  13  23
ENDBRANCH   1  13
BRANCH   9  25
HETATM   25  N5  UNL     1      24.877   7.410  51.232  1.00  0.00    -0.342 N 
HETATM   26  H17 UNL     1      25.015   8.051  52.062  1.00  0.00     0.167 HD
BRANCH  25  27
HETATM   27  C15 UNL     1      25.864   7.293  50.184  1.00  0.00     0.034 A 
HETATM   28  C16 UNL     1      26.062   6.218  49.353  1.00  0.00     0.029 A 
HETATM   29  C17 UNL     1      27.050   6.256  48.385  1.00  0.00     0.004 A 
HETATM   30  C18 UNL     1      27.845   7.366  48.242  1.00  0.00     0.019 A 
HETATM   31  C19 UNL     1      27.672   8.463  49.059  1.00  0.00     0.013 A 
HETATM   32 BR1  UNL     1      28.820   9.953  48.784  1.00  0.00    -0.051 Br
HETATM   33  C20 UNL     1      26.676   8.420  50.033  1.00  0.00     0.048 A 
ENDBRANCH  25  27
ENDBRANCH   9  25
TORSDOF 7
ENDMDL
MODEL 4
REMARK VINA RESULT:      -8.3      3.484      6.716
REMARK  7 active torsions:
REMARK  status: ('A' for Active; 'I' for Inactive)
REMARK    1  A    between atoms: N1_7  and  C6_8 
REMARK    2  A    between atoms: C6_8  and  C7_9 
REMARK    3  A    between atoms: C7_9  and  N2_10 
REMARK    4  A    between atoms: N2_10  and  O2_11 
REMARK    5  A    between atoms: N2_10  and  C8_12 
REMARK    6  A    between atoms: C14_20  and  N5_21 
REMARK    7  A    between atoms: N5_21  and  C15_22 
ROOT
HETATM    1  C8  UNL     1      23.477  -0.394  53.199  1.00  0.00     0.367 C 
HETATM    2  C9  UNL     1      24.894  -0.877  53.442  1.00  0.00     0.042 C 
HETATM    3  C10 UNL     1      25.707   0.085  52.953  1.00  0.00     0.004 C 
HETATM    4  C11 UNL     1      27.154   0.231  52.884  1.00  0.00     0.070 C 
HETATM    5  C12 UNL     1      28.019  -0.858  53.218  1.00  0.00     0.101 C 
HETATM    6  N3  UNL     1      28.715  -1.722  53.493  1.00  0.00    -0.191 NA
HETATM    7  C13 UNL     1      27.607   1.410  52.501  1.00  0.00     0.142 C 
HETATM    8  N4  UNL     1      26.744   2.459  52.162  1.00  0.00    -0.243 NA
HETATM    9  C14 UNL     1      25.457   2.423  52.159  1.00  0.00     0.142 C 
HETATM   10  C21 UNL     1      24.827   1.147  52.401  1.00  0.00     0.326 C 
HETATM   11  N6  UNL     1      23.718   1.074  53.315  1.00  0.00     0.128 N 
HETATM   12  H23 UNL     1      22.902   1.560  52.892  1.00  0.00     0.320 HD
ENDROOT
BRANCH   1  13
HETATM   13  N2  UNL     1      22.675  -0.910  54.253  1.00  0.00    -0.258 N 
BRANCH  13  14
HETATM   14  C7  UNL     1      21.430  -0.253  54.475  1.00  0.00     0.172 C 
BRANCH  14  15
HETATM   15  C6  UNL     1      20.306  -1.230  54.201  1.00  0.00     0.145 C 
BRANCH  15  16
HETATM   16  N1  UNL     1      19.454  -0.758  53.119  1.00  0.00    -0.379 N 
HETATM   17  C2  UNL     1      18.143  -1.289  53.111  1.00  0.00     0.021 C 
HETATM   18  C1  UNL     1      17.856  -2.481  53.580  1.00  0.00     0.040 C 
HETATM   19  C3  UNL     1      16.966  -0.527  52.573  1.00  0.00     0.223 C 
HETATM   20  O1  UNL     1      17.461   0.627  51.940  1.00  0.00    -0.384 OA
HETATM   21  C4  UNL     1      18.539   0.208  51.154  1.00  0.00     0.187 C 
HETATM   22  C5  UNL     1      19.769   0.182  52.062  1.00  0.00     0.149 C 
ENDBRANCH  15  16
ENDBRANCH  14  15
ENDBRANCH  13  14
BRANCH  13  23
HETATM   23  O2  UNL     1      23.365  -1.210  55.368  1.00  0.00    -0.290 OA
HETATM   24  H13 UNL     1      23.423  -0.341  55.879  1.00  0.00     0.244 HD
ENDBRANCH  13  23
ENDBRANCH   1  13
BRANCH   9  25
HETATM   25  N5  UNL     1      24.711   3.566  51.807  1.00  0.00    -0.342 N 
HETATM   26  H17 UNL     1      24.900   4.463  52.333  1.00  0.00     0.167 HD
BRANCH  25  27
HETATM   27  C15 UNL     1      23.724   3.487  50.756  1.00  0.00     0.034 A 
HETATM   28  C16 UNL     1      23.950   3.216  49.429  1.00  0.00     0.029 A 
HETATM   29  C17 UNL     1      22.894   3.169  48.536  1.00  0.00     0.004 A 
HETATM   30  C18 UNL     1      21.608   3.391  48.962  1.00  0.00     0.019 A 
HETATM   31  C19 UNL     1      21.346   3.665  50.287  1.00  0.00     0.013 A 
HETATM   32 BR1  UNL     1      19.534   3.958  50.782  1.00  0.00    -0.051 Br
HETATM   33  C20 UNL     1      22.413   3.712  51.183  1.00  0.00     0.048 A 
ENDBRANCH  25  27
ENDBRANCH   9  25
TORSDOF 7
ENDMDL
MODEL 5
REMARK VINA RESULT:      -8.3      3.363      6.427
REMARK  7 active torsions:
REMARK  status: ('A' for Active; 'I' for Inactive)
REMARK    1  A    between atoms: N1_7  and  C6_8 
REMARK    2  A    between atoms: C6_8  and  C7_9 
REMARK    3  A    between atoms: C7_9  and  N2_10 
REMARK    4  A    between atoms: N2_10  and  O2_11 
REMARK    5  A    between atoms: N2_10  and  C8_12 
REMARK    6  A    between atoms: C14_20  and  N5_21 
REMARK    7  A    between atoms: N5_21  and  C15_22 
ROOT
HETATM    1  C8  UNL     1      26.051   6.227  49.567  1.00  0.00     0.367 C 
HETATM    2  C9  UNL     1      24.909   5.998  48.597  1.00  0.00     0.042 C 
HETATM    3  C10 UNL     1      24.142   5.028  49.142  1.00  0.00     0.004 C 
HETATM    4  C11 UNL     1      22.915   4.369  48.720  1.00  0.00     0.070 C 
HETATM    5  C12 UNL     1      22.386   4.572  47.406  1.00  0.00     0.101 C 
HETATM    6  N3  UNL     1      21.954   4.738  46.361  1.00  0.00    -0.191 NA
HETATM    7  C13 UNL     1      22.333   3.586  49.609  1.00  0.00     0.142 C 
HETATM    8  N4  UNL     1      22.876   3.386  50.884  1.00  0.00    -0.243 NA
HETATM    9  C14 UNL     1      23.966   3.895  51.343  1.00  0.00     0.142 C 
HETATM   10  C21 UNL     1      24.789   4.642  50.422  1.00  0.00     0.326 C 
HETATM   11  N6  UNL     1      25.333   5.908  50.837  1.00  0.00     0.128 N 
HETATM   12  H23 UNL     1      26.051   5.741  51.570  1.00  0.00     0.320 HD
ENDROOT
BRANCH   1  13
HETATM   13  N2  UNL     1      26.416   7.596  49.465  1.00  0.00    -0.258 N 
BRANCH  13  14
HETATM   14  C7  UNL     1      27.212   7.952  48.337  1.00  0.00     0.172 C 
BRANCH  14  15
HETATM   15  C6  UNL     1      28.582   8.378  48.821  1.00  0.00     0.145 C 
BRANCH  15  16
HETATM   16  N1  UNL     1      29.570   7.335  48.583  1.00  0.00    -0.379 N 
HETATM   17  C2  UNL     1      30.876   7.628  49.041  1.00  0.00     0.021 C 
HETATM   18  C1  UNL     1      31.347   8.851  49.107  1.00  0.00     0.040 C 
HETATM   19  C3  UNL     1      31.830   6.563  49.498  1.00  0.00     0.223 C 
HETATM   20  O1  UNL     1      31.257   5.318  49.185  1.00  0.00    -0.384 OA
HETATM   21  C4  UNL     1      30.785   5.425  47.873  1.00  0.00     0.187 C 
HETATM   22  C5  UNL     1      29.389   6.044  47.950  1.00  0.00     0.149 C 
ENDBRANCH  15  16
ENDBRANCH  14  15
ENDBRANCH  13  14
BRANCH  13  23
HETATM   23  O2  UNL     1      26.804   8.148  50.628  1.00  0.00    -0.290 OA
HETATM   24  H13 UNL     1      27.064   7.366  51.213  1.00  0.00     0.244 HD
ENDBRANCH  13  23
ENDBRANCH   1  13
BRANCH   9  25
HETATM   25  N5  UNL     1      24.386   3.617  52.659  1.00  0.00    -0.342 N 
HETATM   26  H17 UNL     1      24.497   4.429  53.327  1.00  0.00     0.167 HD
BRANCH  25  27
HETATM   27  C15 UNL     1      24.650   2.255  53.059  1.00  0.00     0.034 A 
HETATM   28  C16 UNL     1      23.771   1.201  53.033  1.00  0.00     0.029 A 
HETATM   29  C17 UNL     1      24.174  -0.057  53.446  1.00  0.00     0.004 A 
HETATM   30  C18 UNL     1      25.457  -0.269  53.886  1.00  0.00     0.019 A 
HETATM   31  C19 UNL     1      26.366   0.767  53.924  1.00  0.00     0.013 A 
HETATM   32 BR1  UNL     1      28.119   0.376  54.547  1.00  0.00    -0.051 Br
HETATM   33  C20 UNL     1      25.954   2.032  53.508  1.00  0.00     0.048 A 
ENDBRANCH  25  27
ENDBRANCH   9  25
TORSDOF 7
ENDMDL
MODEL 6
REMARK VINA RESULT:      -8.3      3.363      7.112
REMARK  7 active torsions:
REMARK  status: ('A' for Active; 'I' for Inactive)
REMARK    1  A    between atoms: N1_7  and  C6_8 
REMARK    2  A    between atoms: C6_8  and  C7_9 
REMARK    3  A    between atoms: C7_9  and  N2_10 
REMARK    4  A    between atoms: N2_10  and  O2_11 
REMARK    5  A    between atoms: N2_10  and  C8_12 
REMARK    6  A    between atoms: C14_20  and  N5_21 
REMARK    7  A    between atoms: N5_21  and  C15_22 
ROOT
HETATM    1  C8  UNL     1      22.899  -0.111  53.073  1.00  0.00     0.367 C 
HETATM    2  C9  UNL     1      24.178  -0.916  53.201  1.00  0.00     0.042 C 
HETATM    3  C10 UNL     1      25.180  -0.092  52.825  1.00  0.00     0.004 C 
HETATM    4  C11 UNL     1      26.624  -0.253  52.731  1.00  0.00     0.070 C 
HETATM    5  C12 UNL     1      27.232  -1.538  52.881  1.00  0.00     0.101 C 
HETATM    6  N3  UNL     1      27.723  -2.562  53.010  1.00  0.00    -0.191 NA
HETATM    7  C13 UNL     1      27.323   0.843  52.501  1.00  0.00     0.142 C 
HETATM    8  N4  UNL     1      26.708   2.091  52.340  1.00  0.00    -0.243 NA
HETATM    9  C14 UNL     1      25.444   2.334  52.373  1.00  0.00     0.142 C 
HETATM   10  C21 UNL     1      24.552   1.202  52.455  1.00  0.00     0.326 C 
HETATM   11  N6  UNL     1      23.455   1.239  53.386  1.00  0.00     0.128 N 
HETATM   12  H23 UNL     1      22.764   1.945  53.061  1.00  0.00     0.320 HD
ENDROOT
BRANCH   1  13
HETATM   13  N2  UNL     1      22.006  -0.588  54.070  1.00  0.00    -0.258 N 
BRANCH  13  14
HETATM   14  C7  UNL     1      20.797   0.149  54.235  1.00  0.00     0.172 C 
BRANCH  14  15
HETATM   15  C6  UNL     1      19.963   0.006  52.979  1.00  0.00     0.145 C 
BRANCH  15  16
HETATM   16  N1  UNL     1      19.665   1.307  52.396  1.00  0.00    -0.379 N 
HETATM   17  C2  UNL     1      18.531   1.342  51.552  1.00  0.00     0.021 C 
HETATM   18  C1  UNL     1      18.133   0.303  50.854  1.00  0.00     0.040 C 
HETATM   19  C3  UNL     1      17.683   2.569  51.388  1.00  0.00     0.223 C 
HETATM   20  O1  UNL     1      18.343   3.630  52.033  1.00  0.00    -0.384 OA
HETATM   21  C4  UNL     1      19.681   3.554  51.636  1.00  0.00     0.187 C 
HETATM   22  C5  UNL     1      20.369   2.561  52.574  1.00  0.00     0.149 C 
ENDBRANCH  15  16
ENDBRANCH  14  15
ENDBRANCH  13  14
BRANCH  13  23
HETATM   23  O2  UNL     1      22.609  -0.951  55.216  1.00  0.00    -0.290 OA
HETATM   24  H13 UNL     1      21.863  -1.287  55.807  1.00  0.00     0.244 HD
ENDBRANCH  13  23
ENDBRANCH   1  13
BRANCH   9  25
HETATM   25  N5  UNL     1      24.964   3.648  52.208  1.00  0.00    -0.342 N 
HETATM   26  H17 UNL     1      25.185   4.356  52.962  1.00  0.00     0.167 HD
BRANCH  25  27
HETATM   27  C15 UNL     1      24.196   3.995  51.035  1.00  0.00     0.034 A 
HETATM   28  C16 UNL     1      24.203   3.349  49.824  1.00  0.00     0.029 A 
HETATM   29  C17 UNL     1      23.403   3.797  48.788  1.00  0.00     0.004 A 
HETATM   30  C18 UNL     1      22.591   4.892  48.956  1.00  0.00     0.019 A 
HETATM   31  C19 UNL     1      22.560   5.563  50.160  1.00  0.00     0.013 A 
HETATM   32 BR1  UNL     1      21.405   7.067  50.297  1.00  0.00    -0.051 Br
HETATM   33  C20 UNL     1      23.369   5.108  51.200  1.00  0.00     0.048 A 
ENDBRANCH  25  27
ENDBRANCH   9  25
TORSDOF 7
ENDMDL
MODEL 7
REMARK VINA RESULT:      -8.3      3.028      7.134
REMARK  7 active torsions:
REMARK  status: ('A' for Active; 'I' for Inactive)
REMARK    1  A    between atoms: N1_7  and  C6_8 
REMARK    2  A    between atoms: C6_8  and  C7_9 
REMARK    3  A    between atoms: C7_9  and  N2_10 
REMARK    4  A    between atoms: N2_10  and  O2_11 
REMARK    5  A    between atoms: N2_10  and  C8_12 
REMARK    6  A    between atoms: C14_20  and  N5_21 
REMARK    7  A    between atoms: N5_21  and  C15_22 
ROOT
HETATM    1  C8  UNL     1      26.312   3.855  49.556  1.00  0.00     0.367 C 
HETATM    2  C9  UNL     1      24.887   3.568  49.126  1.00  0.00     0.042 C 
HETATM    3  C10 UNL     1      24.312   2.899  50.150  1.00  0.00     0.004 C 
HETATM    4  C11 UNL     1      22.981   2.354  50.365  1.00  0.00     0.070 C 
HETATM    5  C12 UNL     1      22.029   2.296  49.299  1.00  0.00     0.101 C 
HETATM    6  N3  UNL     1      21.261   2.256  48.453  1.00  0.00    -0.191 NA
HETATM    7  C13 UNL     1      22.713   1.922  51.584  1.00  0.00     0.142 C 
HETATM    8  N4  UNL     1      23.664   1.971  52.610  1.00  0.00    -0.243 NA
HETATM    9  C14 UNL     1      24.873   2.404  52.517  1.00  0.00     0.142 C 
HETATM   10  C21 UNL     1      25.352   2.756  51.201  1.00  0.00     0.326 C 
HETATM   11  N6  UNL     1      26.079   3.985  51.025  1.00  0.00     0.128 N 
HETATM   12  H23 UNL     1      27.001   3.900  51.497  1.00  0.00     0.320 HD
ENDROOT
BRANCH   1  13
HETATM   13  N2  UNL     1      26.692   5.080  48.944  1.00  0.00    -0.258 N 
BRANCH  13  14
HETATM   14  C7  UNL     1      28.004   5.124  48.388  1.00  0.00     0.172 C 
BRANCH  14  15
HETATM   15  C6  UNL     1      28.470   6.564  48.351  1.00  0.00     0.145 C 
BRANCH  15  16
HETATM   16  N1  UNL     1      29.924   6.644  48.315  1.00  0.00    -0.379 N 
HETATM   17  C2  UNL     1      30.476   7.817  48.883  1.00  0.00     0.021 C 
HETATM   18  C1  UNL     1      29.845   8.967  48.888  1.00  0.00     0.040 C 
HETATM   19  C3  UNL     1      31.828   7.840  49.533  1.00  0.00     0.223 C 
HETATM   20  O1  UNL     1      32.445   6.603  49.274  1.00  0.00    -0.384 OA
HETATM   21  C4  UNL     1      32.243   6.345  47.915  1.00  0.00     0.187 C 
HETATM   22  C5  UNL     1      30.871   5.683  47.786  1.00  0.00     0.149 C 
ENDBRANCH  15  16
ENDBRANCH  14  15
ENDBRANCH  13  14
BRANCH  13  23
HETATM   23  O2  UNL     1      26.335   6.173  49.641  1.00  0.00    -0.290 OA
HETATM   24  H13 UNL     1      27.122   6.367  50.243  1.00  0.00     0.244 HD
ENDBRANCH  13  23
ENDBRANCH   1  13
BRANCH   9  25
HETATM   25  N5  UNL     1      25.720   2.407  53.642  1.00  0.00    -0.342 N 
HETATM   26  H17 UNL     1      25.428   2.980  54.482  1.00  0.00     0.167 HD
BRANCH  25  27
HETATM   27  C15 UNL     1      26.945   1.644  53.626  1.00  0.00     0.034 A 
HETATM   28  C16 UNL     1      28.210   2.106  53.897  1.00  0.00     0.029 A 
HETATM   29  C17 UNL     1      29.293   1.247  53.846  1.00  0.00     0.004 A 
HETATM   30  C18 UNL     1      29.121  -0.077  53.526  1.00  0.00     0.019 A 
HETATM   31  C19 UNL     1      27.865  -0.574  53.249  1.00  0.00     0.013 A 
HETATM   32 BR1  UNL     1      27.726  -2.420  52.816  1.00  0.00    -0.051 Br
HETATM   33  C20 UNL     1      26.776   0.296  53.301  1.00  0.00     0.048 A 
ENDBRANCH  25  27
ENDBRANCH   9  25
TORSDOF 7
ENDMDL
MODEL 8
REMARK VINA RESULT:      -8.3      3.361      7.599
REMARK  7 active torsions:
REMARK  status: ('A' for Active; 'I' for Inactive)
REMARK    1  A    between atoms: N1_7  and  C6_8 
REMARK    2  A    between atoms: C6_8  and  C7_9 
REMARK    3  A    between atoms: C7_9  and  N2_10 
REMARK    4  A    between atoms: N2_10  and  O2_11 
REMARK    5  A    between atoms: N2_10  and  C8_12 
REMARK    6  A    between atoms: C14_20  and  N5_21 
REMARK    7  A    between atoms: N5_21  and  C15_22 
ROOT
HETATM    1  C8  UNL     1      23.710   5.999  50.272  1.00  0.00     0.367 C 
HETATM    2  C9  UNL     1      22.496   5.373  50.929  1.00  0.00     0.042 C 
HETATM    3  C10 UNL     1      22.900   4.170  51.395  1.00  0.00     0.004 C 
HETATM    4  C11 UNL     1      22.226   3.101  52.117  1.00  0.00     0.070 C 
HETATM    5  C12 UNL     1      20.808   3.117  52.299  1.00  0.00     0.101 C 
HETATM    6  N3  UNL     1      19.676   3.129  52.455  1.00  0.00    -0.191 NA
HETATM    7  C13 UNL     1      22.994   2.133  52.583  1.00  0.00     0.142 C 
HETATM    8  N4  UNL     1      24.379   2.127  52.380  1.00  0.00    -0.243 NA
HETATM    9  C14 UNL     1      25.064   3.004  51.732  1.00  0.00     0.142 C 
HETATM   10  C21 UNL     1      24.333   4.032  51.030  1.00  0.00     0.326 C 
HETATM   11  N6  UNL     1      24.768   5.399  51.138  1.00  0.00     0.128 N 
HETATM   12  H23 UNL     1      25.675   5.503  50.642  1.00  0.00     0.320 HD
ENDROOT
BRANCH   1  13
HETATM   13  N2  UNL     1      23.592   7.406  50.435  1.00  0.00    -0.258 N 
BRANCH  13  14
HETATM   14  C7  UNL     1      23.900   8.199  49.291  1.00  0.00     0.172 C 
BRANCH  14  15
HETATM   15  C6  UNL     1      24.996   7.514  48.502  1.00  0.00     0.145 C 
BRANCH  15  16
HETATM   16  N1  UNL     1      26.308   8.022  48.878  1.00  0.00    -0.379 N 
HETATM   17  C2  UNL     1      27.390   7.151  48.607  1.00  0.00     0.021 C 
HETATM   18  C1  UNL     1      27.266   5.845  48.606  1.00  0.00     0.040 C 
HETATM   19  C3  UNL     1      28.769   7.651  48.290  1.00  0.00     0.223 C 
HETATM   20  O1  UNL     1      28.781   9.038  48.521  1.00  0.00    -0.384 OA
HETATM   21  C4  UNL     1      28.151   9.232  49.754  1.00  0.00     0.187 C 
HETATM   22  C5  UNL     1      26.648   9.295  49.480  1.00  0.00     0.149 C 
ENDBRANCH  15  16
ENDBRANCH  14  15
ENDBRANCH  13  14
BRANCH  13  23
HETATM   23  O2  UNL     1      24.092   7.866  51.595  1.00  0.00    -0.290 OA
HETATM   24  H13 UNL     1      23.449   8.587  51.888  1.00  0.00     0.244 HD
ENDBRANCH  13  23
ENDBRANCH   1  13
BRANCH   9  25
HETATM   25  N5  UNL     1      26.463   2.877  51.619  1.00  0.00    -0.342 N 
HETATM   26  H17 UNL     1      26.962   3.487  50.915  1.00  0.00     0.167 HD
BRANCH  25  27
HETATM   27  C15 UNL     1      27.171   1.932  52.451  1.00  0.00     0.034 A 
HETATM   28  C16 UNL     1      28.039   2.222  53.475  1.00  0.00     0.029 A 
HETATM   29  C17 UNL     1      28.641   1.203  54.191  1.00  0.00     0.004 A 
HETATM   30  C18 UNL     1      28.379  -0.111  53.890  1.00  0.00     0.019 A 
HETATM   31  C19 UNL     1      27.512  -0.437  52.869  1.00  0.00     0.013 A 
HETATM   32 BR1  UNL     1      27.213  -2.283  52.526  1.00  0.00    -0.051 Br
HETATM   33  C20 UNL     1      26.909   0.594  52.150  1.00  0.00     0.048 A 
ENDBRANCH  25  27
ENDBRANCH   9  25
TORSDOF 7
ENDMDL
MODEL 9
REMARK VINA RESULT:      -8.1      3.136      6.048
REMARK  7 active torsions:
REMARK  status: ('A' for Active; 'I' for Inactive)
REMARK    1  A    between atoms: N1_7  and  C6_8 
REMARK    2  A    between atoms: C6_8  and  C7_9 
REMARK    3  A    between atoms: C7_9  and  N2_10 
REMARK    4  A    between atoms: N2_10  and  O2_11 
REMARK    5  A    between atoms: N2_10  and  C8_12 
REMARK    6  A    between atoms: C14_20  and  N5_21 
REMARK    7  A    between atoms: N5_21  and  C15_22 
ROOT
HETATM    1  C8  UNL     1      22.314   0.657  53.154  1.00  0.00     0.367 C 
HETATM    2  C9  UNL     1      20.917   0.082  53.282  1.00  0.00     0.042 C 
HETATM    3  C10 UNL     1      20.261   0.432  52.154  1.00  0.00     0.004 C 
HETATM    4  C11 UNL     1      18.912   0.188  51.665  1.00  0.00     0.070 C 
HETATM    5  C12 UNL     1      17.915  -0.386  52.515  1.00  0.00     0.101 C 
HETATM    6  N3  UNL     1      17.118  -0.853  53.187  1.00  0.00    -0.191 NA
HETATM    7  C13 UNL     1      18.671   0.525  50.412  1.00  0.00     0.142 C 
HETATM    8  N4  UNL     1      19.656   1.102  49.600  1.00  0.00    -0.243 NA
HETATM    9  C14 UNL     1      20.864   1.386  49.943  1.00  0.00     0.142 C 
HETATM   10  C21 UNL     1      21.216   1.220  51.333  1.00  0.00     0.326 C 
HETATM   11  N6  UNL     1      22.455   0.569  51.670  1.00  0.00     0.128 N 
HETATM   12  H23 UNL     1      23.244   1.187  51.393  1.00  0.00     0.320 HD
ENDROOT
BRANCH   1  13
HETATM   13  N2  UNL     1      23.190  -0.221  53.847  1.00  0.00    -0.258 N 
BRANCH  13  14
HETATM   14  C7  UNL     1      24.541  -0.249  53.393  1.00  0.00     0.172 C 
BRANCH  14  15
HETATM   15  C6  UNL     1      25.156   1.119  53.607  1.00  0.00     0.145 C 
BRANCH  15  16
HETATM   16  N1  UNL     1      26.581   1.015  53.885  1.00  0.00    -0.379 N 
HETATM   17  C2  UNL     1      27.408   1.862  53.111  1.00  0.00     0.021 C 
HETATM   18  C1  UNL     1      27.094   2.242  51.894  1.00  0.00     0.040 C 
HETATM   19  C3  UNL     1      28.713   2.404  53.620  1.00  0.00     0.223 C 
HETATM   20  O1  UNL     1      28.994   1.757  54.836  1.00  0.00    -0.384 OA
HETATM   21  C4  UNL     1      28.751   0.398  54.620  1.00  0.00     0.187 C 
HETATM   22  C5  UNL     1      27.256   0.170  54.849  1.00  0.00     0.149 C 
ENDBRANCH  15  16
ENDBRANCH  14  15
ENDBRANCH  13  14
BRANCH  13  23
HETATM   23  O2  UNL     1      22.657  -1.427  54.114  1.00  0.00    -0.290 OA
HETATM   24  H13 UNL     1      21.785  -1.444  53.605  1.00  0.00     0.244 HD
ENDBRANCH  13  23
ENDBRANCH   1  13
BRANCH   9  25
HETATM   25  N5  UNL     1      21.756   1.954  49.012  1.00  0.00    -0.342 N 
HETATM   26  H17 UNL     1      22.031   1.376  48.171  1.00  0.00     0.167 HD
BRANCH  25  27
HETATM   27  C15 UNL     1      22.267   3.288  49.224  1.00  0.00     0.034 A 
HETATM   28  C16 UNL     1      21.536   4.419  49.495  1.00  0.00     0.029 A 
HETATM   29  C17 UNL     1      22.171   5.634  49.680  1.00  0.00     0.004 A 
HETATM   30  C18 UNL     1      23.539   5.727  49.598  1.00  0.00     0.019 A 
HETATM   31  C19 UNL     1      24.303   4.611  49.329  1.00  0.00     0.013 A 
HETATM   32 BR1  UNL     1      26.188   4.838  49.234  1.00  0.00    -0.051 Br
HETATM   33  C20 UNL     1      23.657   3.389  49.142  1.00  0.00     0.048 A 
ENDBRANCH  25  27
ENDBRANCH   9  25
TORSDOF 7
ENDMDL
