MODEL 1
REMARK VINA RESULT:      -8.7      0.000      0.000
REMARK  5 active torsions:
REMARK  status: ('A' for Active; 'I' for Inactive)
REMARK    1  A    between atoms: N1_5  and  C5_6 
REMARK    2  A    between atoms: C5_6  and  C6_7 
REMARK    3  A    between atoms: C10_14  and  N5_15 
REMARK    4  A    between atoms: N5_15  and  C11_16 
REMARK    5  A    between atoms: C17_24  and  N7_25 
ROOT
HETATM    1  C6  UNL     1      22.687   0.593  52.696  1.00  0.00     0.004 A 
HETATM    2  C7  UNL     1      21.378   0.420  53.107  1.00  0.00     0.030 A 
HETATM    3  C8  UNL     1      21.276  -0.336  54.246  1.00  0.00     0.119 A 
HETATM    4  N2  UNL     1      22.552  -0.649  54.568  1.00  0.00    -0.240 N 
HETATM    5  N3  UNL     1      22.943  -1.370  55.609  1.00  0.00    -0.161 NA
HETATM    6  C9  UNL     1      24.260  -1.572  55.771  1.00  0.00     0.258 A 
HETATM    7  N4  UNL     1      25.173  -1.059  54.902  1.00  0.00    -0.220 NA
HETATM    8  C10 UNL     1      24.715  -0.324  53.847  1.00  0.00     0.159 A 
HETATM    9  C16 UNL     1      23.367  -0.107  53.667  1.00  0.00     0.112 A 
ENDROOT
BRANCH   1  10
HETATM   10  C5  UNL     1      23.323   1.310  51.574  1.00  0.00     0.316 C 
BRANCH  10  11
HETATM   11  N1  UNL     1      23.103   2.711  51.683  1.00  0.00     0.115 N 
HETATM   12  C4  UNL     1      23.955   3.325  52.708  1.00  0.00     0.276 C 
HETATM   13  C3  UNL     1      23.421   4.754  52.637  1.00  0.00     0.038 C 
HETATM   14  C2  UNL     1      23.356   4.930  51.126  1.00  0.00     0.036 C 
HETATM   15  C1  UNL     1      24.506   5.765  50.609  1.00  0.00     0.014 C 
HETATM   16  C17 UNL     1      23.461   3.511  50.545  1.00  0.00     0.319 C 
BRANCH  16  17
HETATM   17  N7  UNL     1      24.757   3.331  50.015  1.00  0.00    -0.402 N 
HETATM   18  H21 UNL     1      25.566   3.710  50.478  1.00  0.00     0.152 HD
HETATM   19  H22 UNL     1      24.895   2.497  49.423  1.00  0.00     0.152 HD
ENDBRANCH  16  17
ENDBRANCH  10  11
ENDBRANCH   1  10
BRANCH   8  20
HETATM   20  N5  UNL     1      25.785   0.119  53.053  1.00  0.00    -0.339 N 
HETATM   21  H14 UNL     1      25.406   0.080  52.081  1.00  0.00     0.167 HD
BRANCH  20  22
HETATM   22  C11 UNL     1      27.102   0.551  53.309  1.00  0.00     0.035 A 
HETATM   23  C12 UNL     1      27.321   1.846  53.449  1.00  0.00     0.022 A 
HETATM   24  C13 UNL     1      28.668   2.378  53.717  1.00  0.00     0.151 A 
HETATM   25  N6  UNL     1      29.687   1.345  53.761  1.00  0.00    -0.363 N 
HETATM   26  C14 UNL     1      29.465  -0.044  53.617  1.00  0.00     0.186 A 
HETATM   27  H18 UNL     1      30.657   1.741  53.918  1.00  0.00     0.162 HD
HETATM   28  F1  UNL     1      30.528  -0.874  53.711  1.00  0.00    -0.186 F 
HETATM   29  C15 UNL     1      28.214  -0.415  53.399  1.00  0.00     0.090 A 
ENDBRANCH  20  22
ENDBRANCH   8  20
TORSDOF 5
ENDMDL
MODEL 2
REMARK VINA RESULT:      -8.2      2.672      5.809
REMARK  5 active torsions:
REMARK  status: ('A' for Active; 'I' for Inactive)
REMARK    1  A    between atoms: N1_5  and  C5_6 
REMARK    2  A    between atoms: C5_6  and  C6_7 
REMARK    3  A    between atoms: C10_14  and  N5_15 
REMARK    4  A    between atoms: N5_15  and  C11_16 
REMARK    5  A    between atoms: C17_24  and  N7_25 
ROOT
HETATM    1  C6  UNL     1      23.684   1.519  52.240  1.00  0.00     0.004 A 
HETATM    2  C7  UNL     1      22.788   0.470  52.334  1.00  0.00     0.030 A 
HETATM    3  C8  UNL     1      21.972   0.371  51.237  1.00  0.00     0.119 A 
HETATM    4  N2  UNL     1      22.360   1.381  50.425  1.00  0.00    -0.240 N 
HETATM    5  N3  UNL     1      21.850   1.673  49.237  1.00  0.00    -0.161 NA
HETATM    6  C9  UNL     1      22.371   2.714  48.570  1.00  0.00     0.258 A 
HETATM    7  N4  UNL     1      23.391   3.454  49.086  1.00  0.00    -0.220 NA
HETATM    8  C10 UNL     1      23.878   3.110  50.313  1.00  0.00     0.159 A 
HETATM    9  C16 UNL     1      23.355   2.044  51.011  1.00  0.00     0.112 A 
ENDROOT
BRANCH   1  10
HETATM   10  C5  UNL     1      24.753   2.036  53.116  1.00  0.00     0.316 C 
BRANCH  10  11
HETATM   11  N1  UNL     1      25.715   1.023  53.386  1.00  0.00     0.115 N 
HETATM   12  C4  UNL     1      26.540   0.718  52.210  1.00  0.00     0.276 C 
HETATM   13  C3  UNL     1      27.367  -0.427  52.790  1.00  0.00     0.038 C 
HETATM   14  C2  UNL     1      27.711   0.166  54.149  1.00  0.00     0.036 C 
HETATM   15  C1  UNL     1      29.132   0.680  54.194  1.00  0.00     0.014 C 
HETATM   16  C17 UNL     1      26.742   1.345  54.337  1.00  0.00     0.319 C 
BRANCH  16  17
HETATM   17  N7  UNL     1      27.449   2.552  54.135  1.00  0.00    -0.402 N 
HETATM   18  H21 UNL     1      27.475   3.264  54.845  1.00  0.00     0.152 HD
HETATM   19  H22 UNL     1      28.238   2.511  53.471  1.00  0.00     0.152 HD
ENDBRANCH  16  17
ENDBRANCH  10  11
ENDBRANCH   1  10
BRANCH   8  20
HETATM   20  N5  UNL     1      24.915   3.977  50.693  1.00  0.00    -0.339 N 
HETATM   21  H14 UNL     1      24.943   3.890  51.733  1.00  0.00     0.167 HD
BRANCH  20  22
HETATM   22  C11 UNL     1      25.805   4.826  50.005  1.00  0.00     0.035 A 
HETATM   23  C12 UNL     1      25.567   6.125  50.014  1.00  0.00     0.022 A 
HETATM   24  C13 UNL     1      26.447   7.079  49.319  1.00  0.00     0.151 A 
HETATM   25  N6  UNL     1      27.539   6.431  48.615  1.00  0.00    -0.363 N 
HETATM   26  C14 UNL     1      27.809   5.044  48.600  1.00  0.00     0.186 A 
HETATM   27  H18 UNL     1      28.145   7.122  48.087  1.00  0.00     0.162 HD
HETATM   28  F1  UNL     1      28.887   4.608  47.911  1.00  0.00    -0.186 F 
HETATM   29  C15 UNL     1      26.965   4.278  49.274  1.00  0.00     0.090 A 
ENDBRANCH  20  22
ENDBRANCH   8  20
TORSDOF 5
ENDMDL
MODEL 3
REMARK VINA RESULT:      -8.2      2.263      5.244
REMARK  5 active torsions:
REMARK  status: ('A' for Active; 'I' for Inactive)
REMARK    1  A    between atoms: N1_5  and  C5_6 
REMARK    2  A    between atoms: C5_6  and  C6_7 
REMARK    3  A    between atoms: C10_14  and  N5_15 
REMARK    4  A    between atoms: N5_15  and  C11_16 
REMARK    5  A    between atoms: C17_24  and  N7_25 
ROOT
HETATM    1  C6  UNL     1      23.691  -0.070  53.437  1.00  0.00     0.004 A 
HETATM    2  C7  UNL     1      23.500  -0.879  54.543  1.00  0.00     0.030 A 
HETATM    3  C8  UNL     1      22.181  -1.190  54.749  1.00  0.00     0.119 A 
HETATM    4  N2  UNL     1      21.518  -0.564  53.751  1.00  0.00    -0.240 N 
HETATM    5  N3  UNL     1      20.209  -0.587  53.544  1.00  0.00    -0.161 NA
HETATM    6  C9  UNL     1      19.730   0.093  52.491  1.00  0.00     0.258 A 
HETATM    7  N4  UNL     1      20.550   0.786  51.655  1.00  0.00    -0.220 NA
HETATM    8  C10 UNL     1      21.890   0.776  51.914  1.00  0.00     0.159 A 
HETATM    9  C16 UNL     1      22.398   0.083  52.991  1.00  0.00     0.112 A 
ENDROOT
BRANCH   1  10
HETATM   10  C5  UNL     1      24.880   0.520  52.792  1.00  0.00     0.316 C 
BRANCH  10  11
HETATM   11  N1  UNL     1      26.071   0.058  53.415  1.00  0.00     0.115 N 
HETATM   12  C4  UNL     1      27.145  -0.180  52.443  1.00  0.00     0.276 C 
HETATM   13  C3  UNL     1      28.205  -0.736  53.391  1.00  0.00     0.038 C 
HETATM   14  C2  UNL     1      28.071   0.255  54.538  1.00  0.00     0.036 C 
HETATM   15  C1  UNL     1      29.189   1.274  54.533  1.00  0.00     0.014 C 
HETATM   16  C17 UNL     1      26.733   0.975  54.302  1.00  0.00     0.319 C 
BRANCH  16  17
HETATM   17  N7  UNL     1      26.994   2.271  53.807  1.00  0.00    -0.402 N 
HETATM   18  H21 UNL     1      27.267   2.418  52.850  1.00  0.00     0.152 HD
HETATM   19  H22 UNL     1      26.516   3.047  54.291  1.00  0.00     0.152 HD
ENDBRANCH  16  17
ENDBRANCH  10  11
ENDBRANCH   1  10
BRANCH   8  20
HETATM   20  N5  UNL     1      22.583   1.543  50.963  1.00  0.00    -0.339 N 
HETATM   21  H14 UNL     1      22.505   0.981  50.087  1.00  0.00     0.167 HD
BRANCH  20  22
HETATM   22  C11 UNL     1      23.268   2.774  50.986  1.00  0.00     0.035 A 
HETATM   23  C12 UNL     1      22.941   3.657  51.912  1.00  0.00     0.022 A 
HETATM   24  C13 UNL     1      23.609   4.966  52.003  1.00  0.00     0.151 A 
HETATM   25  N6  UNL     1      24.600   5.170  50.962  1.00  0.00    -0.363 N 
HETATM   26  C14 UNL     1      24.964   4.232  49.969  1.00  0.00     0.186 A 
HETATM   27  H18 UNL     1      25.049   6.128  51.013  1.00  0.00     0.162 HD
HETATM   28  F1  UNL     1      25.929   4.574  49.087  1.00  0.00    -0.186 F 
HETATM   29  C15 UNL     1      24.314   3.079  49.990  1.00  0.00     0.090 A 
ENDBRANCH  20  22
ENDBRANCH   8  20
TORSDOF 5
ENDMDL
MODEL 4
REMARK VINA RESULT:      -8.1      1.638      5.057
REMARK  5 active torsions:
REMARK  status: ('A' for Active; 'I' for Inactive)
REMARK    1  A    between atoms: N1_5  and  C5_6 
REMARK    2  A    between atoms: C5_6  and  C6_7 
REMARK    3  A    between atoms: C10_14  and  N5_15 
REMARK    4  A    between atoms: N5_15  and  C11_16 
REMARK    5  A    between atoms: C17_24  and  N7_25 
ROOT
HETATM    1  C6  UNL     1      23.852   2.942  52.171  1.00  0.00     0.004 A 
HETATM    2  C7  UNL     1      22.969   4.005  52.103  1.00  0.00     0.030 A 
HETATM    3  C8  UNL     1      23.398   4.996  51.258  1.00  0.00     0.119 A 
HETATM    4  N2  UNL     1      24.582   4.552  50.777  1.00  0.00    -0.240 N 
HETATM    5  N3  UNL     1      25.364   5.184  49.914  1.00  0.00    -0.161 NA
HETATM    6  C9  UNL     1      26.505   4.581  49.545  1.00  0.00     0.258 A 
HETATM    7  N4  UNL     1      26.858   3.361  50.033  1.00  0.00    -0.220 NA
HETATM    8  C10 UNL     1      26.015   2.754  50.920  1.00  0.00     0.159 A 
HETATM    9  C16 UNL     1      24.841   3.359  51.309  1.00  0.00     0.112 A 
ENDROOT
BRANCH   1  10
HETATM   10  C5  UNL     1      23.858   1.659  52.899  1.00  0.00     0.316 C 
BRANCH  10  11
HETATM   11  N1  UNL     1      22.530   1.197  53.113  1.00  0.00     0.115 N 
HETATM   12  C4  UNL     1      22.036   0.397  51.986  1.00  0.00     0.276 C 
HETATM   13  C3  UNL     1      20.611   0.151  52.475  1.00  0.00     0.038 C 
HETATM   14  C2  UNL     1      20.895  -0.204  53.928  1.00  0.00     0.036 C 
HETATM   15  C1  UNL     1      20.806  -1.694  54.170  1.00  0.00     0.014 C 
HETATM   16  C17 UNL     1      22.336   0.263  54.188  1.00  0.00     0.319 C 
BRANCH  16  17
HETATM   17  N7  UNL     1      23.183  -0.866  54.217  1.00  0.00    -0.402 N 
HETATM   18  H21 UNL     1      24.069  -0.865  53.741  1.00  0.00     0.152 HD
HETATM   19  H22 UNL     1      23.082  -1.489  55.033  1.00  0.00     0.152 HD
ENDBRANCH  16  17
ENDBRANCH  10  11
ENDBRANCH   1  10
BRANCH   8  20
HETATM   20  N5  UNL     1      26.534   1.514  51.325  1.00  0.00    -0.339 N 
HETATM   21  H14 UNL     1      26.153   0.844  50.621  1.00  0.00     0.167 HD
BRANCH  20  22
HETATM   22  C11 UNL     1      27.369   1.079  52.374  1.00  0.00     0.035 A 
HETATM   23  C12 UNL     1      27.360  -0.203  52.693  1.00  0.00     0.022 A 
HETATM   24  C13 UNL     1      28.203  -0.736  53.777  1.00  0.00     0.151 A 
HETATM   25  N6  UNL     1      28.977   0.291  54.450  1.00  0.00    -0.363 N 
HETATM   26  C14 UNL     1      28.999   1.665  54.116  1.00  0.00     0.186 A 
HETATM   27  H18 UNL     1      29.551  -0.096  55.252  1.00  0.00     0.162 HD
HETATM   28  F1  UNL     1      29.800   2.485  54.833  1.00  0.00    -0.186 F 
HETATM   29  C15 UNL     1      28.219   2.034  53.113  1.00  0.00     0.090 A 
ENDBRANCH  20  22
ENDBRANCH   8  20
TORSDOF 5
ENDMDL
MODEL 5
REMARK VINA RESULT:      -8.0      1.587      2.161
REMARK  5 active torsions:
REMARK  status: ('A' for Active; 'I' for Inactive)
REMARK    1  A    between atoms: N1_5  and  C5_6 
REMARK    2  A    between atoms: C5_6  and  C6_7 
REMARK    3  A    between atoms: C10_14  and  N5_15 
REMARK    4  A    between atoms: N5_15  and  C11_16 
REMARK    5  A    between atoms: C17_24  and  N7_25 
ROOT
HETATM    1  C6  UNL     1      22.056   1.188  51.425  1.00  0.00     0.004 A 
HETATM    2  C7  UNL     1      20.750   0.993  51.014  1.00  0.00     0.030 A 
HETATM    3  C8  UNL     1      20.063   0.127  51.825  1.00  0.00     0.119 A 
HETATM    4  N2  UNL     1      20.956  -0.238  52.774  1.00  0.00    -0.240 N 
HETATM    5  N3  UNL     1      20.732  -1.068  53.783  1.00  0.00    -0.161 NA
HETATM    6  C9  UNL     1      21.742  -1.307  54.634  1.00  0.00     0.258 A 
HETATM    7  N4  UNL     1      22.961  -0.722  54.477  1.00  0.00    -0.220 NA
HETATM    8  C10 UNL     1      23.136   0.125  53.421  1.00  0.00     0.159 A 
HETATM    9  C16 UNL     1      22.110   0.381  52.539  1.00  0.00     0.112 A 
ENDROOT
BRANCH   1  10
HETATM   10  C5  UNL     1      23.177   2.005  50.923  1.00  0.00     0.316 C 
BRANCH  10  11
HETATM   11  N1  UNL     1      22.804   3.375  50.844  1.00  0.00     0.115 N 
HETATM   12  C4  UNL     1      22.519   3.946  52.166  1.00  0.00     0.276 C 
HETATM   13  C3  UNL     1      22.074   5.341  51.732  1.00  0.00     0.038 C 
HETATM   14  C2  UNL     1      23.152   5.647  50.702  1.00  0.00     0.036 C 
HETATM   15  C1  UNL     1      24.200   6.590  51.249  1.00  0.00     0.014 C 
HETATM   16  C17 UNL     1      23.809   4.293  50.386  1.00  0.00     0.319 C 
BRANCH  16  17
HETATM   17  N7  UNL     1      25.068   4.238  51.023  1.00  0.00    -0.402 N 
HETATM   18  H21 UNL     1      25.198   3.716  51.874  1.00  0.00     0.152 HD
HETATM   19  H22 UNL     1      25.892   4.373  50.417  1.00  0.00     0.152 HD
ENDBRANCH  16  17
ENDBRANCH  10  11
ENDBRANCH   1  10
BRANCH   8  20
HETATM   20  N5  UNL     1      24.446   0.631  53.406  1.00  0.00    -0.339 N 
HETATM   21  H14 UNL     1      24.314   1.660  53.294  1.00  0.00     0.167 HD
BRANCH  20  22
HETATM   22  C11 UNL     1      25.733   0.064  53.506  1.00  0.00     0.035 A 
HETATM   23  C12 UNL     1      26.013  -0.992  52.763  1.00  0.00     0.022 A 
HETATM   24  C13 UNL     1      27.333  -1.643  52.810  1.00  0.00     0.151 A 
HETATM   25  N6  UNL     1      28.233  -1.029  53.768  1.00  0.00    -0.363 N 
HETATM   26  C14 UNL     1      27.949   0.104  54.566  1.00  0.00     0.186 A 
HETATM   27  H18 UNL     1      29.168  -1.526  53.821  1.00  0.00     0.162 HD
HETATM   28  F1  UNL     1      28.915   0.564  55.392  1.00  0.00    -0.186 F 
HETATM   29  C15 UNL     1      26.739   0.623  54.431  1.00  0.00     0.090 A 
ENDBRANCH  20  22
ENDBRANCH   8  20
TORSDOF 5
ENDMDL
MODEL 6
REMARK VINA RESULT:      -7.8      1.875      2.684
REMARK  5 active torsions:
REMARK  status: ('A' for Active; 'I' for Inactive)
REMARK    1  A    between atoms: N1_5  and  C5_6 
REMARK    2  A    between atoms: C5_6  and  C6_7 
REMARK    3  A    between atoms: C10_14  and  N5_15 
REMARK    4  A    between atoms: N5_15  and  C11_16 
REMARK    5  A    between atoms: C17_24  and  N7_25 
ROOT
HETATM    1  C6  UNL     1      22.282   2.820  52.385  1.00  0.00     0.004 A 
HETATM    2  C7  UNL     1      20.952   3.014  52.057  1.00  0.00     0.030 A 
HETATM    3  C8  UNL     1      20.188   1.895  52.263  1.00  0.00     0.119 A 
HETATM    4  N2  UNL     1      21.053   0.968  52.733  1.00  0.00    -0.240 N 
HETATM    5  N3  UNL     1      20.757  -0.278  53.078  1.00  0.00    -0.161 NA
HETATM    6  C9  UNL     1      21.752  -1.055  53.532  1.00  0.00     0.258 A 
HETATM    7  N4  UNL     1      23.027  -0.592  53.640  1.00  0.00    -0.220 NA
HETATM    8  C10 UNL     1      23.276   0.698  53.271  1.00  0.00     0.159 A 
HETATM    9  C16 UNL     1      22.266   1.509  52.803  1.00  0.00     0.112 A 
ENDROOT
BRANCH   1  10
HETATM   10  C5  UNL     1      23.479   3.682  52.361  1.00  0.00     0.316 C 
BRANCH  10  11
HETATM   11  N1  UNL     1      23.923   3.889  51.025  1.00  0.00     0.115 N 
HETATM   12  C4  UNL     1      24.309   5.284  50.782  1.00  0.00     0.276 C 
HETATM   13  C3  UNL     1      24.630   5.185  49.292  1.00  0.00     0.038 C 
HETATM   14  C2  UNL     1      25.431   3.891  49.286  1.00  0.00     0.036 C 
HETATM   15  C1  UNL     1      26.917   4.152  49.177  1.00  0.00     0.014 C 
HETATM   16  C17 UNL     1      25.135   3.222  50.638  1.00  0.00     0.319 C 
BRANCH  16  17
HETATM   17  N7  UNL     1      26.255   3.383  51.482  1.00  0.00    -0.402 N 
HETATM   18  H21 UNL     1      26.623   4.296  51.689  1.00  0.00     0.152 HD
HETATM   19  H22 UNL     1      26.412   2.637  52.177  1.00  0.00     0.152 HD
ENDBRANCH  16  17
ENDBRANCH  10  11
ENDBRANCH   1  10
BRANCH   8  20
HETATM   20  N5  UNL     1      24.636   1.006  53.439  1.00  0.00    -0.339 N 
HETATM   21  H14 UNL     1      24.645   2.045  53.536  1.00  0.00     0.167 HD
BRANCH  20  22
HETATM   22  C11 UNL     1      25.827   0.254  53.493  1.00  0.00     0.035 A 
HETATM   23  C12 UNL     1      25.938  -0.803  52.709  1.00  0.00     0.022 A 
HETATM   24  C13 UNL     1      27.149  -1.641  52.707  1.00  0.00     0.151 A 
HETATM   25  N6  UNL     1      28.144  -1.201  53.667  1.00  0.00    -0.363 N 
HETATM   26  C14 UNL     1      28.040  -0.070  54.509  1.00  0.00     0.186 A 
HETATM   27  H18 UNL     1      28.996  -1.831  53.685  1.00  0.00     0.162 HD
HETATM   28  F1  UNL     1      29.075   0.214  55.331  1.00  0.00    -0.186 F 
HETATM   29  C15 UNL     1      26.918   0.625  54.417  1.00  0.00     0.090 A 
ENDBRANCH  20  22
ENDBRANCH   8  20
TORSDOF 5
ENDMDL
MODEL 7
REMARK VINA RESULT:      -7.7      2.018      3.053
REMARK  5 active torsions:
REMARK  status: ('A' for Active; 'I' for Inactive)
REMARK    1  A    between atoms: N1_5  and  C5_6 
REMARK    2  A    between atoms: C5_6  and  C6_7 
REMARK    3  A    between atoms: C10_14  and  N5_15 
REMARK    4  A    between atoms: N5_15  and  C11_16 
REMARK    5  A    between atoms: C17_24  and  N7_25 
ROOT
HETATM    1  C6  UNL     1      22.733   3.554  52.029  1.00  0.00     0.004 A 
HETATM    2  C7  UNL     1      21.481   4.138  52.093  1.00  0.00     0.030 A 
HETATM    3  C8  UNL     1      20.494   3.240  52.411  1.00  0.00     0.119 A 
HETATM    4  N2  UNL     1      21.136   2.058  52.554  1.00  0.00    -0.240 N 
HETATM    5  N3  UNL     1      20.580   0.896  52.868  1.00  0.00    -0.161 NA
HETATM    6  C9  UNL     1      21.382  -0.174  52.972  1.00  0.00     0.258 A 
HETATM    7  N4  UNL     1      22.724  -0.084  52.764  1.00  0.00    -0.220 NA
HETATM    8  C10 UNL     1      23.244   1.136  52.443  1.00  0.00     0.159 A 
HETATM    9  C16 UNL     1      22.435   2.245  52.332  1.00  0.00     0.112 A 
ENDROOT
BRANCH   1  10
HETATM   10  C5  UNL     1      24.088   4.065  51.747  1.00  0.00     0.316 C 
BRANCH  10  11
HETATM   11  N1  UNL     1      24.069   4.957  50.639  1.00  0.00     0.115 N 
HETATM   12  C4  UNL     1      24.361   6.339  51.038  1.00  0.00     0.276 C 
HETATM   13  C3  UNL     1      24.173   7.021  49.685  1.00  0.00     0.038 C 
HETATM   14  C2  UNL     1      24.920   6.039  48.794  1.00  0.00     0.036 C 
HETATM   15  C1  UNL     1      26.288   6.557  48.412  1.00  0.00     0.014 C 
HETATM   16  C17 UNL     1      25.081   4.764  49.638  1.00  0.00     0.319 C 
BRANCH  16  17
HETATM   17  N7  UNL     1      26.418   4.680  50.085  1.00  0.00    -0.402 N 
HETATM   18  H21 UNL     1      26.773   3.839  50.510  1.00  0.00     0.152 HD
HETATM   19  H22 UNL     1      27.096   5.296  49.610  1.00  0.00     0.152 HD
ENDBRANCH  16  17
ENDBRANCH  10  11
ENDBRANCH   1  10
BRANCH   8  20
HETATM   20  N5  UNL     1      24.633   1.047  52.257  1.00  0.00    -0.339 N 
HETATM   21  H14 UNL     1      24.808   1.628  51.408  1.00  0.00     0.167 HD
BRANCH  20  22
HETATM   22  C11 UNL     1      25.688   0.399  52.932  1.00  0.00     0.035 A 
HETATM   23  C12 UNL     1      26.161   0.951  54.034  1.00  0.00     0.022 A 
HETATM   24  C13 UNL     1      27.261   0.337  54.796  1.00  0.00     0.151 A 
HETATM   25  N6  UNL     1      27.767  -0.877  54.182  1.00  0.00    -0.363 N 
HETATM   26  C14 UNL     1      27.267  -1.481  53.006  1.00  0.00     0.186 A 
HETATM   27  H18 UNL     1      28.582  -1.291  54.717  1.00  0.00     0.162 HD
HETATM   28  F1  UNL     1      27.840  -2.630  52.583  1.00  0.00    -0.186 F 
HETATM   29  C15 UNL     1      26.264  -0.856  52.410  1.00  0.00     0.090 A 
ENDBRANCH  20  22
ENDBRANCH   8  20
TORSDOF 5
ENDMDL
MODEL 8
REMARK VINA RESULT:      -7.6      2.420      6.697
REMARK  5 active torsions:
REMARK  status: ('A' for Active; 'I' for Inactive)
REMARK    1  A    between atoms: N1_5  and  C5_6 
REMARK    2  A    between atoms: C5_6  and  C6_7 
REMARK    3  A    between atoms: C10_14  and  N5_15 
REMARK    4  A    between atoms: N5_15  and  C11_16 
REMARK    5  A    between atoms: C17_24  and  N7_25 
ROOT
HETATM    1  C6  UNL     1      25.867   2.916  50.688  1.00  0.00     0.004 A 
HETATM    2  C7  UNL     1      26.636   3.496  49.696  1.00  0.00     0.030 A 
HETATM    3  C8  UNL     1      26.151   4.715  49.296  1.00  0.00     0.119 A 
HETATM    4  N2  UNL     1      25.048   4.913  50.053  1.00  0.00    -0.240 N 
HETATM    5  N3  UNL     1      24.251   5.972  50.015  1.00  0.00    -0.161 NA
HETATM    6  C9  UNL     1      23.202   5.996  50.851  1.00  0.00     0.258 A 
HETATM    7  N4  UNL     1      22.953   4.973  51.714  1.00  0.00    -0.220 NA
HETATM    8  C10 UNL     1      23.806   3.908  51.712  1.00  0.00     0.159 A 
HETATM    9  C16 UNL     1      24.887   3.868  50.860  1.00  0.00     0.112 A 
ENDROOT
BRANCH   1  10
HETATM   10  C5  UNL     1      25.957   1.655  51.449  1.00  0.00     0.316 C 
BRANCH  10  11
HETATM   11  N1  UNL     1      27.206   1.563  52.123  1.00  0.00     0.115 N 
HETATM   12  C4  UNL     1      27.258   2.429  53.308  1.00  0.00     0.276 C 
HETATM   13  C3  UNL     1      28.704   2.175  53.725  1.00  0.00     0.038 C 
HETATM   14  C2  UNL     1      28.757   0.662  53.567  1.00  0.00     0.036 C 
HETATM   15  C1  UNL     1      28.672  -0.045  54.900  1.00  0.00     0.014 C 
HETATM   16  C17 UNL     1      27.524   0.297  52.723  1.00  0.00     0.319 C 
BRANCH  16  17
HETATM   17  N7  UNL     1      26.549  -0.277  53.568  1.00  0.00    -0.402 N 
HETATM   18  H21 UNL     1      25.610   0.083  53.598  1.00  0.00     0.152 HD
HETATM   19  H22 UNL     1      26.686  -1.270  53.812  1.00  0.00     0.152 HD
ENDBRANCH  16  17
ENDBRANCH  10  11
ENDBRANCH   1  10
BRANCH   8  20
HETATM   20  N5  UNL     1      23.399   2.948  52.652  1.00  0.00    -0.339 N 
HETATM   21  H14 UNL     1      24.003   3.142  53.481  1.00  0.00     0.167 HD
BRANCH  20  22
HETATM   22  C11 UNL     1      22.444   1.911  52.667  1.00  0.00     0.035 A 
HETATM   23  C12 UNL     1      21.190   2.210  52.382  1.00  0.00     0.022 A 
HETATM   24  C13 UNL     1      20.132   1.184  52.376  1.00  0.00     0.151 A 
HETATM   25  N6  UNL     1      20.617  -0.131  52.752  1.00  0.00    -0.363 N 
HETATM   26  C14 UNL     1      21.957  -0.465  53.055  1.00  0.00     0.186 A 
HETATM   27  H18 UNL     1      19.843  -0.854  52.781  1.00  0.00     0.162 HD
HETATM   28  F1  UNL     1      22.242  -1.750  53.363  1.00  0.00    -0.186 F 
HETATM   29  C15 UNL     1      22.830   0.528  53.012  1.00  0.00     0.090 A 
ENDBRANCH  20  22
ENDBRANCH   8  20
TORSDOF 5
ENDMDL
MODEL 9
REMARK VINA RESULT:      -7.4      3.296      6.888
REMARK  5 active torsions:
REMARK  status: ('A' for Active; 'I' for Inactive)
REMARK    1  A    between atoms: N1_5  and  C5_6 
REMARK    2  A    between atoms: C5_6  and  C6_7 
REMARK    3  A    between atoms: C10_14  and  N5_15 
REMARK    4  A    between atoms: N5_15  and  C11_16 
REMARK    5  A    between atoms: C17_24  and  N7_25 
ROOT
HETATM    1  C6  UNL     1      23.410   3.282  52.448  1.00  0.00     0.004 A 
HETATM    2  C7  UNL     1      23.744   4.624  52.447  1.00  0.00     0.030 A 
HETATM    3  C8  UNL     1      22.960   5.364  51.600  1.00  0.00     0.119 A 
HETATM    4  N2  UNL     1      22.105   4.470  51.052  1.00  0.00    -0.240 N 
HETATM    5  N3  UNL     1      21.152   4.737  50.169  1.00  0.00    -0.161 NA
HETATM    6  C9  UNL     1      20.394   3.716  49.740  1.00  0.00     0.258 A 
HETATM    7  N4  UNL     1      20.587   2.446  50.188  1.00  0.00    -0.220 NA
HETATM    8  C10 UNL     1      21.582   2.228  51.096  1.00  0.00     0.159 A 
HETATM    9  C16 UNL     1      22.369   3.264  51.547  1.00  0.00     0.112 A 
ENDROOT
BRANCH   1  10
HETATM   10  C5  UNL     1      23.920   2.099  53.168  1.00  0.00     0.316 C 
BRANCH  10  11
HETATM   11  N1  UNL     1      25.153   1.664  52.609  1.00  0.00     0.115 N 
HETATM   12  C4  UNL     1      26.303   2.072  53.425  1.00  0.00     0.276 C 
HETATM   13  C3  UNL     1      27.426   1.552  52.531  1.00  0.00     0.038 C 
HETATM   14  C2  UNL     1      26.862   0.183  52.179  1.00  0.00     0.036 C 
HETATM   15  C1  UNL     1      27.529  -0.919  52.971  1.00  0.00     0.014 C 
HETATM   16  C17 UNL     1      25.373   0.246  52.557  1.00  0.00     0.319 C 
BRANCH  16  17
HETATM   17  N7  UNL     1      25.175  -0.480  53.752  1.00  0.00    -0.402 N 
HETATM   18  H21 UNL     1      24.631  -0.099  54.507  1.00  0.00     0.152 HD
HETATM   19  H22 UNL     1      25.230  -1.507  53.674  1.00  0.00     0.152 HD
ENDBRANCH  16  17
ENDBRANCH  10  11
ENDBRANCH   1  10
BRANCH   8  20
HETATM   20  N5  UNL     1      21.646   0.868  51.443  1.00  0.00    -0.339 N 
HETATM   21  H14 UNL     1      22.389   0.487  50.817  1.00  0.00     0.167 HD
BRANCH  20  22
HETATM   22  C11 UNL     1      20.971   0.044  52.366  1.00  0.00     0.035 A 
HETATM   23  C12 UNL     1      21.691  -0.671  53.211  1.00  0.00     0.022 A 
HETATM   24  C13 UNL     1      21.063  -1.557  54.206  1.00  0.00     0.151 A 
HETATM   25  N6  UNL     1      19.615  -1.575  54.113  1.00  0.00    -0.363 N 
HETATM   26  C14 UNL     1      18.832  -0.812  53.217  1.00  0.00     0.186 A 
HETATM   27  H18 UNL     1      19.174  -2.243  54.808  1.00  0.00     0.162 HD
HETATM   28  F1  UNL     1      17.487  -0.931  53.281  1.00  0.00    -0.186 F 
HETATM   29  C15 UNL     1      19.497  -0.034  52.378  1.00  0.00     0.090 A 
ENDBRANCH  20  22
ENDBRANCH   8  20
TORSDOF 5
ENDMDL
