MODEL 1
REMARK VINA RESULT:      -7.3      0.000      0.000
REMARK  8 active torsions:
REMARK  status: ('A' for Active; 'I' for Inactive)
REMARK    1  A    between atoms: O1_2  and  C2_3 
REMARK    2  A    between atoms: C5_6  and  C6_7 
REMARK    3  A    between atoms: N2_9  and  C7_10 
REMARK    4  A    between atoms: C7_10  and  C8_11 
REMARK    5  A    between atoms: C9_13  and  O2_14 
REMARK    6  A    between atoms: C11_17  and  C12_18 
REMARK    7  A    between atoms: C12_18  and  N4_19 
REMARK    8  A    between atoms: N4_19  and  C13_20 
ROOT
HETATM    1  C6  UNL     1      24.263   2.148  52.183  1.00  0.00     0.067 C 
HETATM    2  N1  UNL     1      23.981   3.367  52.486  1.00  0.00    -0.180 NA
HETATM    3  N2  UNL     1      22.853   3.807  51.807  1.00  0.00    -0.292 N 
HETATM    4  C11 UNL     1      22.130   2.609  51.427  1.00  0.00     0.128 C 
HETATM    5  C15 UNL     1      23.269   1.636  51.201  1.00  0.00     0.090 C 
ENDROOT
BRANCH   1   6
HETATM    6  C5  UNL     1      25.386   1.375  52.715  1.00  0.00    -0.010 A 
HETATM    7  C4  UNL     1      25.936   1.637  53.953  1.00  0.00     0.016 A 
HETATM    8  C3  UNL     1      27.002   0.865  54.400  1.00  0.00     0.037 A 
HETATM    9  C2  UNL     1      27.544  -0.167  53.650  1.00  0.00     0.068 A 
HETATM   10  C17 UNL     1      26.988  -0.424  52.414  1.00  0.00     0.037 A 
HETATM   11  C16 UNL     1      25.930   0.346  51.974  1.00  0.00     0.016 A 
BRANCH   9  12
HETATM   12  O1  UNL     1      28.606  -0.847  54.234  1.00  0.00    -0.356 OA
HETATM   13  C1  UNL     1      29.897  -0.929  53.709  1.00  0.00     0.210 C 
ENDBRANCH   9  12
ENDBRANCH   1   6
BRANCH   3  14
HETATM   14  C7  UNL     1      22.643   5.252  51.630  1.00  0.00     0.212 C 
BRANCH  14  15
HETATM   15  C8  UNL     1      23.820   5.862  50.946  1.00  0.00     0.097 A 
HETATM   16  N3  UNL     1      24.680   6.647  51.089  1.00  0.00    -0.220 NA
HETATM   17  C9  UNL     1      25.621   6.947  50.193  1.00  0.00     0.169 A 
HETATM   18  C10 UNL     1      25.575   6.229  48.913  1.00  0.00     0.109 A 
HETATM   19  S1  UNL     1      24.057   5.134  49.209  1.00  0.00    -0.081 SA
BRANCH  17  20
HETATM   20  O2  UNL     1      26.516   7.932  50.658  1.00  0.00    -0.344 OA
HETATM   21  H8  UNL     1      26.166   8.900  50.581  1.00  0.00     0.219 HD
ENDBRANCH  17  20
ENDBRANCH  14  15
ENDBRANCH   3  14
BRANCH   4  22
HETATM   22  C12 UNL     1      21.210   2.084  52.490  1.00  0.00     0.146 C 
BRANCH  22  23
HETATM   23  N4  UNL     1      20.990   0.671  52.152  1.00  0.00    -0.396 N 
HETATM   24  H13 UNL     1      21.210  -0.061  51.416  1.00  0.00     0.158 HD
BRANCH  23  25
HETATM   25  C13 UNL     1      20.227  -0.066  53.068  1.00  0.00     0.090 C 
HETATM   26  C14 UNL     1      20.791  -0.782  54.012  1.00  0.00     0.072 C 
HETATM   27 BR1  UNL     1      22.681  -0.914  54.259  1.00  0.00    -0.062 Br
ENDBRANCH  23  25
ENDBRANCH  22  23
ENDBRANCH   4  22
TORSDOF 8
ENDMDL
MODEL 2
REMARK VINA RESULT:      -7.2      2.663      5.914
REMARK  8 active torsions:
REMARK  status: ('A' for Active; 'I' for Inactive)
REMARK    1  A    between atoms: O1_2  and  C2_3 
REMARK    2  A    between atoms: C5_6  and  C6_7 
REMARK    3  A    between atoms: N2_9  and  C7_10 
REMARK    4  A    between atoms: C7_10  and  C8_11 
REMARK    5  A    between atoms: C9_13  and  O2_14 
REMARK    6  A    between atoms: C11_17  and  C12_18 
REMARK    7  A    between atoms: C12_18  and  N4_19 
REMARK    8  A    between atoms: N4_19  and  C13_20 
ROOT
HETATM    1  C6  UNL     1      25.220   3.000  51.345  1.00  0.00     0.067 C 
HETATM    2  N1  UNL     1      25.682   1.813  51.535  1.00  0.00    -0.180 NA
HETATM    3  N2  UNL     1      24.934   1.125  52.480  1.00  0.00    -0.292 N 
HETATM    4  C11 UNL     1      23.643   1.784  52.515  1.00  0.00     0.128 C 
HETATM    5  C15 UNL     1      24.033   3.218  52.217  1.00  0.00     0.090 C 
ENDROOT
BRANCH   1   6
HETATM    6  C5  UNL     1      25.768   3.991  50.419  1.00  0.00    -0.010 A 
HETATM    7  C4  UNL     1      26.871   3.729  49.632  1.00  0.00     0.016 A 
HETATM    8  C3  UNL     1      27.342   4.714  48.773  1.00  0.00     0.037 A 
HETATM    9  C2  UNL     1      26.748   5.962  48.668  1.00  0.00     0.068 A 
HETATM   10  C17 UNL     1      25.644   6.216  49.456  1.00  0.00     0.037 A 
HETATM   11  C16 UNL     1      25.180   5.235  50.309  1.00  0.00     0.016 A 
BRANCH   9  12
HETATM   12  O1  UNL     1      27.334   6.839  47.763  1.00  0.00    -0.356 OA
HETATM   13  C1  UNL     1      28.702   6.935  47.505  1.00  0.00     0.210 C 
ENDBRANCH   9  12
ENDBRANCH   1   6
BRANCH   3  14
HETATM   14  C7  UNL     1      25.542  -0.015  53.183  1.00  0.00     0.212 C 
BRANCH  14  15
HETATM   15  C8  UNL     1      26.934   0.323  53.600  1.00  0.00     0.097 A 
HETATM   16  N3  UNL     1      27.577   1.154  54.122  1.00  0.00    -0.220 NA
HETATM   17  C9  UNL     1      28.893   1.104  54.338  1.00  0.00     0.169 A 
HETATM   18  C10 UNL     1      29.596  -0.100  53.882  1.00  0.00     0.109 A 
HETATM   19  S1  UNL     1      28.143  -1.068  53.147  1.00  0.00    -0.081 SA
BRANCH  17  20
HETATM   20  O2  UNL     1      29.378   2.258  54.987  1.00  0.00    -0.344 OA
HETATM   21  H8  UNL     1      29.085   2.351  55.972  1.00  0.00     0.219 HD
ENDBRANCH  17  20
ENDBRANCH  14  15
ENDBRANCH   3  14
BRANCH   4  22
HETATM   22  C12 UNL     1      22.674   1.291  51.481  1.00  0.00     0.146 C 
BRANCH  22  23
HETATM   23  N4  UNL     1      21.987   0.149  52.102  1.00  0.00    -0.396 N 
HETATM   24  H13 UNL     1      21.974  -0.912  52.125  1.00  0.00     0.158 HD
BRANCH  23  25
HETATM   25  C13 UNL     1      20.963   0.467  53.004  1.00  0.00     0.090 C 
HETATM   26  C14 UNL     1      20.958  -0.002  54.229  1.00  0.00     0.072 C 
HETATM   27 BR1  UNL     1      22.313  -1.152  54.931  1.00  0.00    -0.062 Br
ENDBRANCH  23  25
ENDBRANCH  22  23
ENDBRANCH   4  22
TORSDOF 8
ENDMDL
MODEL 3
REMARK VINA RESULT:      -6.9      2.984      6.133
REMARK  8 active torsions:
REMARK  status: ('A' for Active; 'I' for Inactive)
REMARK    1  A    between atoms: O1_2  and  C2_3 
REMARK    2  A    between atoms: C5_6  and  C6_7 
REMARK    3  A    between atoms: N2_9  and  C7_10 
REMARK    4  A    between atoms: C7_10  and  C8_11 
REMARK    5  A    between atoms: C9_13  and  O2_14 
REMARK    6  A    between atoms: C11_17  and  C12_18 
REMARK    7  A    between atoms: C12_18  and  N4_19 
REMARK    8  A    between atoms: N4_19  and  C13_20 
ROOT
HETATM    1  C6  UNL     1      24.822   3.143  51.443  1.00  0.00     0.067 C 
HETATM    2  N1  UNL     1      24.952   1.865  51.527  1.00  0.00    -0.180 NA
HETATM    3  N2  UNL     1      24.144   1.339  52.525  1.00  0.00    -0.292 N 
HETATM    4  C11 UNL     1      23.098   2.318  52.741  1.00  0.00     0.128 C 
HETATM    5  C15 UNL     1      23.839   3.610  52.458  1.00  0.00     0.090 C 
ENDROOT
BRANCH   1   6
HETATM    6  C5  UNL     1      25.525   4.012  50.500  1.00  0.00    -0.010 A 
HETATM    7  C4  UNL     1      26.637   3.590  49.800  1.00  0.00     0.016 A 
HETATM    8  C3  UNL     1      27.259   4.465  48.919  1.00  0.00     0.037 A 
HETATM    9  C2  UNL     1      26.810   5.760  48.709  1.00  0.00     0.068 A 
HETATM   10  C17 UNL     1      25.697   6.176  49.411  1.00  0.00     0.037 A 
HETATM   11  C16 UNL     1      25.083   5.302  50.286  1.00  0.00     0.016 A 
BRANCH   9  12
HETATM   12  O1  UNL     1      27.538   6.514  47.796  1.00  0.00    -0.356 OA
HETATM   13  C1  UNL     1      28.919   6.712  47.834  1.00  0.00     0.210 C 
ENDBRANCH   9  12
ENDBRANCH   1   6
BRANCH   3  14
HETATM   14  C7  UNL     1      24.481   0.028  53.102  1.00  0.00     0.212 C 
BRANCH  14  15
HETATM   15  C8  UNL     1      25.920  -0.006  53.493  1.00  0.00     0.097 A 
HETATM   16  N3  UNL     1      26.714   0.521  54.177  1.00  0.00    -0.220 NA
HETATM   17  C9  UNL     1      28.004   0.191  54.274  1.00  0.00     0.169 A 
HETATM   18  C10 UNL     1      28.467  -0.931  53.450  1.00  0.00     0.109 A 
HETATM   19  S1  UNL     1      26.846  -1.390  52.583  1.00  0.00    -0.081 SA
BRANCH  17  20
HETATM   20  O2  UNL     1      28.704   1.011  55.182  1.00  0.00    -0.344 OA
HETATM   21  H8  UNL     1      29.481   1.547  54.764  1.00  0.00     0.219 HD
ENDBRANCH  17  20
ENDBRANCH  14  15
ENDBRANCH   3  14
BRANCH   4  22
HETATM   22  C12 UNL     1      21.929   2.184  51.810  1.00  0.00     0.146 C 
BRANCH  22  23
HETATM   23  N4  UNL     1      22.235   1.022  50.964  1.00  0.00    -0.396 N 
HETATM   24  H13 UNL     1      22.957   0.259  50.814  1.00  0.00     0.158 HD
BRANCH  23  25
HETATM   25  C13 UNL     1      21.299   0.731  49.962  1.00  0.00     0.090 C 
HETATM   26  C14 UNL     1      21.361   1.297  48.780  1.00  0.00     0.072 C 
HETATM   27 BR1  UNL     1      22.700   2.564  48.278  1.00  0.00    -0.062 Br
ENDBRANCH  23  25
ENDBRANCH  22  23
ENDBRANCH   4  22
TORSDOF 8
ENDMDL
MODEL 4
REMARK VINA RESULT:      -6.8      3.037      5.724
REMARK  8 active torsions:
REMARK  status: ('A' for Active; 'I' for Inactive)
REMARK    1  A    between atoms: O1_2  and  C2_3 
REMARK    2  A    between atoms: C5_6  and  C6_7 
REMARK    3  A    between atoms: N2_9  and  C7_10 
REMARK    4  A    between atoms: C7_10  and  C8_11 
REMARK    5  A    between atoms: C9_13  and  O2_14 
REMARK    6  A    between atoms: C11_17  and  C12_18 
REMARK    7  A    between atoms: C12_18  and  N4_19 
REMARK    8  A    between atoms: N4_19  and  C13_20 
ROOT
HETATM    1  C6  UNL     1      24.237   1.965  52.184  1.00  0.00     0.067 C 
HETATM    2  N1  UNL     1      23.435   1.333  51.400  1.00  0.00    -0.180 NA
HETATM    3  N2  UNL     1      22.235   2.015  51.249  1.00  0.00    -0.292 N 
HETATM    4  C11 UNL     1      22.520   3.394  51.595  1.00  0.00     0.128 C 
HETATM    5  C15 UNL     1      23.587   3.217  52.657  1.00  0.00     0.090 C 
ENDROOT
BRANCH   1   6
HETATM    6  C5  UNL     1      25.582   1.529  52.560  1.00  0.00    -0.010 A 
HETATM    7  C4  UNL     1      26.412   2.302  53.346  1.00  0.00     0.016 A 
HETATM    8  C3  UNL     1      27.679   1.829  53.666  1.00  0.00     0.037 A 
HETATM    9  C2  UNL     1      28.153   0.603  53.227  1.00  0.00     0.068 A 
HETATM   10  C17 UNL     1      27.318  -0.165  52.442  1.00  0.00     0.037 A 
HETATM   11  C16 UNL     1      26.060   0.309  52.126  1.00  0.00     0.016 A 
BRANCH   9  12
HETATM   12  O1  UNL     1      29.440   0.270  53.632  1.00  0.00    -0.356 OA
HETATM   13  C1  UNL     1      29.963  -1.023  53.673  1.00  0.00     0.210 C 
ENDBRANCH   9  12
ENDBRANCH   1   6
BRANCH   3  14
HETATM   14  C7  UNL     1      21.041   1.275  50.813  1.00  0.00     0.212 C 
BRANCH  14  15
HETATM   15  C8  UNL     1      20.542   0.408  51.920  1.00  0.00     0.097 A 
HETATM   16  N3  UNL     1      20.879  -0.142  52.900  1.00  0.00    -0.220 NA
HETATM   17  C9  UNL     1      20.096  -0.877  53.692  1.00  0.00     0.169 A 
HETATM   18  C10 UNL     1      18.688  -1.006  53.301  1.00  0.00     0.109 A 
HETATM   19  S1  UNL     1      18.692   0.035  51.719  1.00  0.00    -0.081 SA
BRANCH  17  20
HETATM   20  O2  UNL     1      20.794  -1.411  54.794  1.00  0.00    -0.344 OA
HETATM   21  H8  UNL     1      20.491  -2.357  55.076  1.00  0.00     0.219 HD
ENDBRANCH  17  20
ENDBRANCH  14  15
ENDBRANCH   3  14
BRANCH   4  22
HETATM   22  C12 UNL     1      23.058   4.214  50.460  1.00  0.00     0.146 C 
BRANCH  22  23
HETATM   23  N4  UNL     1      24.145   5.016  51.038  1.00  0.00    -0.396 N 
HETATM   24  H13 UNL     1      24.662   5.200  51.947  1.00  0.00     0.158 HD
BRANCH  23  25
HETATM   25  C13 UNL     1      24.802   5.883  50.155  1.00  0.00     0.090 C 
HETATM   26  C14 UNL     1      25.855   5.498  49.472  1.00  0.00     0.072 C 
HETATM   27 BR1  UNL     1      26.614   3.748  49.586  1.00  0.00    -0.062 Br
ENDBRANCH  23  25
ENDBRANCH  22  23
ENDBRANCH   4  22
TORSDOF 8
ENDMDL
MODEL 5
REMARK VINA RESULT:      -6.8      2.895      6.981
REMARK  8 active torsions:
REMARK  status: ('A' for Active; 'I' for Inactive)
REMARK    1  A    between atoms: O1_2  and  C2_3 
REMARK    2  A    between atoms: C5_6  and  C6_7 
REMARK    3  A    between atoms: N2_9  and  C7_10 
REMARK    4  A    between atoms: C7_10  and  C8_11 
REMARK    5  A    between atoms: C9_13  and  O2_14 
REMARK    6  A    between atoms: C11_17  and  C12_18 
REMARK    7  A    between atoms: C12_18  and  N4_19 
REMARK    8  A    between atoms: N4_19  and  C13_20 
ROOT
HETATM    1  C6  UNL     1      25.502   3.378  50.299  1.00  0.00     0.067 C 
HETATM    2  N1  UNL     1      24.245   3.119  50.408  1.00  0.00    -0.180 NA
HETATM    3  N2  UNL     1      24.029   1.989  51.185  1.00  0.00    -0.292 N 
HETATM    4  C11 UNL     1      25.222   1.833  51.993  1.00  0.00     0.128 C 
HETATM    5  C15 UNL     1      26.287   2.365  51.054  1.00  0.00     0.090 C 
ENDROOT
BRANCH   1   6
HETATM    6  C5  UNL     1      26.080   4.496  49.552  1.00  0.00    -0.010 A 
HETATM    7  C4  UNL     1      27.372   4.465  49.068  1.00  0.00     0.016 A 
HETATM    8  C3  UNL     1      27.861   5.560  48.366  1.00  0.00     0.037 A 
HETATM    9  C2  UNL     1      27.102   6.695  48.127  1.00  0.00     0.068 A 
HETATM   10  C17 UNL     1      25.811   6.719  48.614  1.00  0.00     0.037 A 
HETATM   11  C16 UNL     1      25.330   5.629  49.311  1.00  0.00     0.016 A 
BRANCH   9  12
HETATM   12  O1  UNL     1      27.732   7.705  47.410  1.00  0.00    -0.356 OA
HETATM   13  C1  UNL     1      27.171   8.404  46.340  1.00  0.00     0.210 C 
ENDBRANCH   9  12
ENDBRANCH   1   6
BRANCH   3  14
HETATM   14  C7  UNL     1      22.762   1.255  51.043  1.00  0.00     0.212 C 
BRANCH  14  15
HETATM   15  C8  UNL     1      22.379   0.637  52.346  1.00  0.00     0.097 A 
HETATM   16  N3  UNL     1      22.745  -0.119  53.164  1.00  0.00    -0.220 NA
HETATM   17  C9  UNL     1      22.086  -0.445  54.278  1.00  0.00     0.169 A 
HETATM   18  C10 UNL     1      20.788   0.203  54.497  1.00  0.00     0.109 A 
HETATM   19  S1  UNL     1      20.694   1.277  52.940  1.00  0.00    -0.081 SA
BRANCH  17  20
HETATM   20  O2  UNL     1      22.786  -1.383  55.064  1.00  0.00    -0.344 OA
HETATM   21  H8  UNL     1      22.184  -2.043  55.581  1.00  0.00     0.219 HD
ENDBRANCH  17  20
ENDBRANCH  14  15
ENDBRANCH   3  14
BRANCH   4  22
HETATM   22  C12 UNL     1      25.213   2.632  53.262  1.00  0.00     0.146 C 
BRANCH  22  23
HETATM   23  N4  UNL     1      26.417   2.216  53.995  1.00  0.00    -0.396 N 
HETATM   24  H13 UNL     1      27.372   2.560  54.306  1.00  0.00     0.158 HD
BRANCH  23  25
HETATM   25  C13 UNL     1      26.402   0.913  54.510  1.00  0.00     0.090 C 
HETATM   26  C14 UNL     1      27.470   0.151  54.479  1.00  0.00     0.072 C 
HETATM   27 BR1  UNL     1      29.146   0.700  53.746  1.00  0.00    -0.062 Br
ENDBRANCH  23  25
ENDBRANCH  22  23
ENDBRANCH   4  22
TORSDOF 8
ENDMDL
MODEL 6
REMARK VINA RESULT:      -6.8      6.764      9.892
REMARK  8 active torsions:
REMARK  status: ('A' for Active; 'I' for Inactive)
REMARK    1  A    between atoms: O1_2  and  C2_3 
REMARK    2  A    between atoms: C5_6  and  C6_7 
REMARK    3  A    between atoms: N2_9  and  C7_10 
REMARK    4  A    between atoms: C7_10  and  C8_11 
REMARK    5  A    between atoms: C9_13  and  O2_14 
REMARK    6  A    between atoms: C11_17  and  C12_18 
REMARK    7  A    between atoms: C12_18  and  N4_19 
REMARK    8  A    between atoms: N4_19  and  C13_20 
ROOT
HETATM    1  C6  UNL     1      28.681   5.830  48.167  1.00  0.00     0.067 C 
HETATM    2  N1  UNL     1      29.754   5.127  48.063  1.00  0.00    -0.180 NA
HETATM    3  N2  UNL     1      30.808   5.885  47.572  1.00  0.00    -0.292 N 
HETATM    4  C11 UNL     1      30.462   7.265  47.847  1.00  0.00     0.128 C 
HETATM    5  C15 UNL     1      28.952   7.223  47.719  1.00  0.00     0.090 C 
ENDROOT
BRANCH   1   6
HETATM    6  C5  UNL     1      27.387   5.346  48.650  1.00  0.00    -0.010 A 
HETATM    7  C4  UNL     1      27.216   4.064  49.131  1.00  0.00     0.016 A 
HETATM    8  C3  UNL     1      25.960   3.666  49.574  1.00  0.00     0.037 A 
HETATM    9  C2  UNL     1      24.859   4.508  49.556  1.00  0.00     0.068 A 
HETATM   10  C17 UNL     1      25.038   5.789  49.074  1.00  0.00     0.037 A 
HETATM   11  C16 UNL     1      26.287   6.179  48.634  1.00  0.00     0.016 A 
BRANCH   9  12
HETATM   12  O1  UNL     1      23.673   3.965  50.033  1.00  0.00    -0.356 OA
HETATM   13  C1  UNL     1      23.170   4.134  51.324  1.00  0.00     0.210 C 
ENDBRANCH   9  12
ENDBRANCH   1   6
BRANCH   3  14
HETATM   14  C7  UNL     1      31.945   5.201  46.937  1.00  0.00     0.212 C 
BRANCH  14  15
HETATM   15  C8  UNL     1      33.201   5.487  47.690  1.00  0.00     0.097 A 
HETATM   16  N3  UNL     1      33.895   5.071  48.539  1.00  0.00    -0.220 NA
HETATM   17  C9  UNL     1      35.022   5.639  48.976  1.00  0.00     0.169 A 
HETATM   18  C10 UNL     1      35.426   6.894  48.333  1.00  0.00     0.109 A 
HETATM   19  S1  UNL     1      34.011   7.095  47.090  1.00  0.00    -0.081 SA
BRANCH  17  20
HETATM   20  O2  UNL     1      35.633   4.900  50.008  1.00  0.00    -0.344 OA
HETATM   21  H8  UNL     1      35.036   4.168  50.424  1.00  0.00     0.219 HD
ENDBRANCH  17  20
ENDBRANCH  14  15
ENDBRANCH   3  14
BRANCH   4  22
HETATM   22  C12 UNL     1      30.846   7.733  49.220  1.00  0.00     0.146 C 
BRANCH  22  23
HETATM   23  N4  UNL     1      29.950   8.860  49.514  1.00  0.00    -0.396 N 
HETATM   24  H13 UNL     1      28.929   9.100  49.676  1.00  0.00     0.158 HD
BRANCH  23  25
HETATM   25  C13 UNL     1      30.564  10.112  49.650  1.00  0.00     0.090 C 
HETATM   26  C14 UNL     1      30.296  11.099  48.827  1.00  0.00     0.072 C 
HETATM   27 BR1  UNL     1      29.067  10.965  47.371  1.00  0.00    -0.062 Br
ENDBRANCH  23  25
ENDBRANCH  22  23
ENDBRANCH   4  22
TORSDOF 8
ENDMDL
MODEL 7
REMARK VINA RESULT:      -6.6      1.421      1.806
REMARK  8 active torsions:
REMARK  status: ('A' for Active; 'I' for Inactive)
REMARK    1  A    between atoms: O1_2  and  C2_3 
REMARK    2  A    between atoms: C5_6  and  C6_7 
REMARK    3  A    between atoms: N2_9  and  C7_10 
REMARK    4  A    between atoms: C7_10  and  C8_11 
REMARK    5  A    between atoms: C9_13  and  O2_14 
REMARK    6  A    between atoms: C11_17  and  C12_18 
REMARK    7  A    between atoms: C12_18  and  N4_19 
REMARK    8  A    between atoms: N4_19  and  C13_20 
ROOT
HETATM    1  C6  UNL     1      24.235   1.859  52.391  1.00  0.00     0.067 C 
HETATM    2  N1  UNL     1      23.819   2.979  52.872  1.00  0.00    -0.180 NA
HETATM    3  N2  UNL     1      22.676   3.415  52.217  1.00  0.00    -0.292 N 
HETATM    4  C11 UNL     1      22.093   2.233  51.613  1.00  0.00     0.128 C 
HETATM    5  C15 UNL     1      23.333   1.424  51.290  1.00  0.00     0.090 C 
ENDROOT
BRANCH   1   6
HETATM    6  C5  UNL     1      25.413   1.120  52.848  1.00  0.00    -0.010 A 
HETATM    7  C4  UNL     1      26.111   0.266  52.019  1.00  0.00     0.016 A 
HETATM    8  C3  UNL     1      27.221  -0.406  52.515  1.00  0.00     0.037 A 
HETATM    9  C2  UNL     1      27.664  -0.258  53.820  1.00  0.00     0.068 A 
HETATM   10  C17 UNL     1      26.961   0.598  54.644  1.00  0.00     0.037 A 
HETATM   11  C16 UNL     1      25.859   1.264  54.146  1.00  0.00     0.016 A 
BRANCH   9  12
HETATM   12  O1  UNL     1      28.788  -0.997  54.167  1.00  0.00    -0.356 OA
HETATM   13  C1  UNL     1      29.457  -1.889  53.327  1.00  0.00     0.210 C 
ENDBRANCH   9  12
ENDBRANCH   1   6
BRANCH   3  14
HETATM   14  C7  UNL     1      22.325   4.843  52.264  1.00  0.00     0.212 C 
BRANCH  14  15
HETATM   15  C8  UNL     1      23.281   5.634  51.437  1.00  0.00     0.097 A 
HETATM   16  N3  UNL     1      24.314   6.188  51.478  1.00  0.00    -0.220 NA
HETATM   17  C9  UNL     1      24.896   6.832  50.464  1.00  0.00     0.169 A 
HETATM   18  C10 UNL     1      24.177   6.847  49.185  1.00  0.00     0.109 A 
HETATM   19  S1  UNL     1      22.639   5.849  49.664  1.00  0.00    -0.081 SA
BRANCH  17  20
HETATM   20  O2  UNL     1      26.136   7.398  50.824  1.00  0.00    -0.344 OA
HETATM   21  H8  UNL     1      26.642   7.852  50.048  1.00  0.00     0.219 HD
ENDBRANCH  17  20
ENDBRANCH  14  15
ENDBRANCH   3  14
BRANCH   4  22
HETATM   22  C12 UNL     1      21.196   1.454  52.529  1.00  0.00     0.146 C 
BRANCH  22  23
HETATM   23  N4  UNL     1      19.834   1.920  52.233  1.00  0.00    -0.396 N 
HETATM   24  H13 UNL     1      19.057   2.536  52.611  1.00  0.00     0.158 HD
BRANCH  23  25
HETATM   25  C13 UNL     1      19.265   1.436  51.048  1.00  0.00     0.090 C 
HETATM   26  C14 UNL     1      18.553   0.333  51.030  1.00  0.00     0.072 C 
HETATM   27 BR1  UNL     1      18.206  -0.733  52.577  1.00  0.00    -0.062 Br
ENDBRANCH  23  25
ENDBRANCH  22  23
ENDBRANCH   4  22
TORSDOF 8
ENDMDL
MODEL 8
REMARK VINA RESULT:      -6.5      2.345      2.843
REMARK  8 active torsions:
REMARK  status: ('A' for Active; 'I' for Inactive)
REMARK    1  A    between atoms: O1_2  and  C2_3 
REMARK    2  A    between atoms: C5_6  and  C6_7 
REMARK    3  A    between atoms: N2_9  and  C7_10 
REMARK    4  A    between atoms: C7_10  and  C8_11 
REMARK    5  A    between atoms: C9_13  and  O2_14 
REMARK    6  A    between atoms: C11_17  and  C12_18 
REMARK    7  A    between atoms: C12_18  and  N4_19 
REMARK    8  A    between atoms: N4_19  and  C13_20 
ROOT
HETATM    1  C6  UNL     1      22.438   1.249  52.423  1.00  0.00     0.067 C 
HETATM    2  N1  UNL     1      21.770   2.319  52.679  1.00  0.00    -0.180 NA
HETATM    3  N2  UNL     1      20.642   2.414  51.876  1.00  0.00    -0.292 N 
HETATM    4  C11 UNL     1      20.359   1.063  51.433  1.00  0.00     0.128 C 
HETATM    5  C15 UNL     1      21.757   0.483  51.344  1.00  0.00     0.090 C 
ENDROOT
BRANCH   1   6
HETATM    6  C5  UNL     1      23.678   0.839  53.083  1.00  0.00    -0.010 A 
HETATM    7  C4  UNL     1      23.821  -0.403  53.669  1.00  0.00     0.016 A 
HETATM    8  C3  UNL     1      25.025  -0.730  54.280  1.00  0.00     0.037 A 
HETATM    9  C2  UNL     1      26.101   0.142  54.330  1.00  0.00     0.068 A 
HETATM   10  C17 UNL     1      25.950   1.382  53.742  1.00  0.00     0.037 A 
HETATM   11  C16 UNL     1      24.752   1.703  53.136  1.00  0.00     0.016 A 
BRANCH   9  12
HETATM   12  O1  UNL     1      27.236  -0.331  54.977  1.00  0.00    -0.356 OA
HETATM   13  C1  UNL     1      28.511   0.230  54.882  1.00  0.00     0.210 C 
ENDBRANCH   9  12
ENDBRANCH   1   6
BRANCH   3  14
HETATM   14  C7  UNL     1      20.026   3.733  51.661  1.00  0.00     0.212 C 
BRANCH  14  15
HETATM   15  C8  UNL     1      21.044   4.698  51.154  1.00  0.00     0.097 A 
HETATM   16  N3  UNL     1      21.634   5.670  51.443  1.00  0.00    -0.220 NA
HETATM   17  C9  UNL     1      22.533   6.295  50.680  1.00  0.00     0.169 A 
HETATM   18  C10 UNL     1      22.805   5.712  49.361  1.00  0.00     0.109 A 
HETATM   19  S1  UNL     1      21.633   4.225  49.413  1.00  0.00    -0.081 SA
BRANCH  17  20
HETATM   20  O2  UNL     1      23.071   7.438  51.305  1.00  0.00    -0.344 OA
HETATM   21  H8  UNL     1      22.399   8.209  51.439  1.00  0.00     0.219 HD
ENDBRANCH  17  20
ENDBRANCH  14  15
ENDBRANCH   3  14
BRANCH   4  22
HETATM   22  C12 UNL     1      19.532   0.262  52.394  1.00  0.00     0.146 C 
BRANCH  22  23
HETATM   23  N4  UNL     1      18.517  -0.410  51.571  1.00  0.00    -0.396 N 
HETATM   24  H13 UNL     1      18.399  -0.982  50.685  1.00  0.00     0.158 HD
BRANCH  23  25
HETATM   25  C13 UNL     1      17.198  -0.325  52.035  1.00  0.00     0.090 C 
HETATM   26  C14 UNL     1      16.712  -1.199  52.884  1.00  0.00     0.072 C 
HETATM   27 BR1  UNL     1      17.711  -2.669  53.585  1.00  0.00    -0.062 Br
ENDBRANCH  23  25
ENDBRANCH  22  23
ENDBRANCH   4  22
TORSDOF 8
ENDMDL
MODEL 9
REMARK VINA RESULT:      -6.5      1.625      1.909
REMARK  8 active torsions:
REMARK  status: ('A' for Active; 'I' for Inactive)
REMARK    1  A    between atoms: O1_2  and  C2_3 
REMARK    2  A    between atoms: C5_6  and  C6_7 
REMARK    3  A    between atoms: N2_9  and  C7_10 
REMARK    4  A    between atoms: C7_10  and  C8_11 
REMARK    5  A    between atoms: C9_13  and  O2_14 
REMARK    6  A    between atoms: C11_17  and  C12_18 
REMARK    7  A    between atoms: C12_18  and  N4_19 
REMARK    8  A    between atoms: N4_19  and  C13_20 
ROOT
HETATM    1  C6  UNL     1      24.080   1.977  52.378  1.00  0.00     0.067 C 
HETATM    2  N1  UNL     1      23.759   3.166  52.755  1.00  0.00    -0.180 NA
HETATM    3  N2  UNL     1      22.602   3.600  52.124  1.00  0.00    -0.292 N 
HETATM    4  C11 UNL     1      21.916   2.399  51.690  1.00  0.00     0.128 C 
HETATM    5  C15 UNL     1      23.086   1.483  51.387  1.00  0.00     0.090 C 
ENDROOT
BRANCH   1   6
HETATM    6  C5  UNL     1      25.241   1.219  52.844  1.00  0.00    -0.010 A 
HETATM    7  C4  UNL     1      25.540  -0.038  52.360  1.00  0.00     0.016 A 
HETATM    8  C3  UNL     1      26.658  -0.706  52.846  1.00  0.00     0.037 A 
HETATM    9  C2  UNL     1      27.497  -0.160  53.805  1.00  0.00     0.068 A 
HETATM   10  C17 UNL     1      27.192   1.098  54.284  1.00  0.00     0.037 A 
HETATM   11  C16 UNL     1      26.080   1.756  53.799  1.00  0.00     0.016 A 
BRANCH   9  12
HETATM   12  O1  UNL     1      28.574  -0.950  54.188  1.00  0.00    -0.356 OA
HETATM   13  C1  UNL     1      29.851  -0.898  53.629  1.00  0.00     0.210 C 
ENDBRANCH   9  12
ENDBRANCH   1   6
BRANCH   3  14
HETATM   14  C7  UNL     1      22.335   5.043  52.033  1.00  0.00     0.212 C 
BRANCH  14  15
HETATM   15  C8  UNL     1      22.618   5.532  50.652  1.00  0.00     0.097 A 
HETATM   16  N3  UNL     1      22.555   5.225  49.522  1.00  0.00    -0.220 NA
HETATM   17  C9  UNL     1      22.927   5.979  48.486  1.00  0.00     0.169 A 
HETATM   18  C10 UNL     1      23.463   7.311  48.790  1.00  0.00     0.109 A 
HETATM   19  S1  UNL     1      23.343   7.286  50.680  1.00  0.00    -0.081 SA
BRANCH  17  20
HETATM   20  O2  UNL     1      22.730   5.332  47.249  1.00  0.00    -0.344 OA
HETATM   21  H8  UNL     1      23.370   5.636  46.499  1.00  0.00     0.219 HD
ENDBRANCH  17  20
ENDBRANCH  14  15
ENDBRANCH   3  14
BRANCH   4  22
HETATM   22  C12 UNL     1      21.038   1.780  52.737  1.00  0.00     0.146 C 
BRANCH  22  23
HETATM   23  N4  UNL     1      20.974   0.351  52.399  1.00  0.00    -0.396 N 
HETATM   24  H13 UNL     1      21.315  -0.360  51.688  1.00  0.00     0.158 HD
BRANCH  23  25
HETATM   25  C13 UNL     1      20.215  -0.449  53.263  1.00  0.00     0.090 C 
HETATM   26  C14 UNL     1      20.770  -1.110  54.251  1.00  0.00     0.072 C 
HETATM   27 BR1  UNL     1      22.641  -1.071  54.636  1.00  0.00    -0.062 Br
ENDBRANCH  23  25
ENDBRANCH  22  23
ENDBRANCH   4  22
TORSDOF 8
ENDMDL
