MODEL 1
REMARK VINA RESULT:      -8.8      0.000      0.000
REMARK  7 active torsions:
REMARK  status: ('A' for Active; 'I' for Inactive)
REMARK    1  A    between atoms: O1_2  and  C2_3 
REMARK    2  A    between atoms: C2_3  and  C3_4 
REMARK    3  A    between atoms: C8_11  and  N3_13 
REMARK    4  A    between atoms: C13_17  and  N4_18 
REMARK    5  A    between atoms: N4_18  and  C14_19 
REMARK    6  A    between atoms: C14_19  and  N5_20 
REMARK    7  A    between atoms: C14_19  and  C15_21 
ROOT
HETATM    1  N3  UNL     1      20.894   1.343  52.266  1.00  0.00    -0.337 N 
HETATM    2  C10 UNL     1      22.156   1.794  51.800  1.00  0.00     0.095 C 
HETATM    3  C11 UNL     1      23.353   1.218  51.999  1.00  0.00    -0.032 C 
HETATM    4  C12 UNL     1      24.549   1.881  51.408  1.00  0.00     0.047 C 
HETATM    5  C13 UNL     1      23.773  -0.006  52.723  1.00  0.00     0.276 C 
HETATM    6  C22 UNL     1      22.673  -0.807  53.233  1.00  0.00     0.010 C 
HETATM    7  C23 UNL     1      21.394  -0.665  53.549  1.00  0.00    -0.009 C 
HETATM    8  C24 UNL     1      20.588   0.573  53.451  1.00  0.00     0.154 C 
ENDROOT
BRANCH   1   9
HETATM    9  C8  UNL     1      19.803   1.730  51.408  1.00  0.00     0.235 C 
HETATM   10  N2  UNL     1      20.233   2.374  50.207  1.00  0.00    -0.225 NA
HETATM   11  C7  UNL     1      20.208   1.940  49.043  1.00  0.00     0.231 C 
HETATM   12  N1  UNL     1      20.771   3.150  48.490  1.00  0.00    -0.254 NA
HETATM   13  C6  UNL     1      20.350   4.339  48.877  1.00  0.00     0.117 C 
HETATM   14  C5  UNL     1      19.366   4.902  49.816  1.00  0.00     0.018 C 
HETATM   15  C4  UNL     1      18.448   4.522  50.708  1.00  0.00     0.008 C 
HETATM   16  C3  UNL     1      18.035   3.125  51.129  1.00  0.00     0.173 C 
HETATM   17  O2  UNL     1      19.012   2.724  52.106  1.00  0.00    -0.331 OA
HETATM   18  C9  UNL     1      18.996   0.515  51.074  1.00  0.00     0.100 C 
BRANCH  16  19
HETATM   19  C2  UNL     1      16.710   3.150  51.747  1.00  0.00     0.203 C 
BRANCH  19  20
HETATM   20  O1  UNL     1      16.414   4.168  52.604  1.00  0.00    -0.393 OA
HETATM   21  C1  UNL     1      15.183   4.166  53.163  1.00  0.00     0.201 C 
ENDBRANCH  19  20
ENDBRANCH  16  19
ENDBRANCH   1   9
BRANCH   5  22
HETATM   22  N4  UNL     1      24.667   0.372  53.759  1.00  0.00     0.133 N 
HETATM   23  H19 UNL     1      25.220   1.189  53.428  1.00  0.00     0.320 HD
BRANCH  22  24
HETATM   24  C14 UNL     1      25.561  -0.600  54.270  1.00  0.00     0.483 C 
BRANCH  24  25
HETATM   25  N5  UNL     1      25.292  -1.042  55.625  1.00  0.00     0.116 N 
HETATM   26  H21 UNL     1      25.292  -0.267  56.296  1.00  0.00     0.316 HD
HETATM   27  H22 UNL     1      24.455  -1.664  55.676  1.00  0.00     0.316 HD
ENDBRANCH  24  25
BRANCH  24  28
HETATM   28  C15 UNL     1      26.994  -0.326  54.137  1.00  0.00     0.010 A 
HETATM   29  C16 UNL     1      27.758   0.653  54.785  1.00  0.00     0.012 A 
HETATM   30  C17 UNL     1      29.111   0.776  54.548  1.00  0.00     0.001 A 
HETATM   31  C18 UNL     1      29.775  -0.052  53.668  1.00  0.00     0.001 A 
HETATM   32  C19 UNL     1      29.010  -1.010  53.038  1.00  0.00     0.007 A 
HETATM   33  C20 UNL     1      27.635  -1.186  53.235  1.00  0.00    -0.052 A 
HETATM   34  C21 UNL     1      26.960  -2.271  52.481  1.00  0.00     0.049 C 
ENDBRANCH  24  28
ENDBRANCH  22  24
ENDBRANCH   5  22
TORSDOF 7
ENDMDL
MODEL 2
REMARK VINA RESULT:      -8.5      2.682      3.837
REMARK  7 active torsions:
REMARK  status: ('A' for Active; 'I' for Inactive)
REMARK    1  A    between atoms: O1_2  and  C2_3 
REMARK    2  A    between atoms: C2_3  and  C3_4 
REMARK    3  A    between atoms: C8_11  and  N3_13 
REMARK    4  A    between atoms: C13_17  and  N4_18 
REMARK    5  A    between atoms: N4_18  and  C14_19 
REMARK    6  A    between atoms: C14_19  and  N5_20 
REMARK    7  A    between atoms: C14_19  and  C15_21 
ROOT
HETATM    1  N3  UNL     1      23.170   3.367  51.060  1.00  0.00    -0.337 N 
HETATM    2  C10 UNL     1      24.560   3.098  51.158  1.00  0.00     0.095 C 
HETATM    3  C11 UNL     1      25.146   2.015  51.694  1.00  0.00    -0.032 C 
HETATM    4  C12 UNL     1      26.634   1.954  51.683  1.00  0.00     0.047 C 
HETATM    5  C13 UNL     1      24.606   0.792  52.337  1.00  0.00     0.276 C 
HETATM    6  C22 UNL     1      23.158   0.681  52.288  1.00  0.00     0.010 C 
HETATM    7  C23 UNL     1      22.099   1.461  52.132  1.00  0.00    -0.009 C 
HETATM    8  C24 UNL     1      22.099   2.928  51.926  1.00  0.00     0.154 C 
ENDROOT
BRANCH   1   9
HETATM    9  C8  UNL     1      22.832   4.192  49.929  1.00  0.00     0.235 C 
HETATM   10  N2  UNL     1      22.649   5.568  50.270  1.00  0.00    -0.225 NA
HETATM   11  C7  UNL     1      23.378   6.537  50.002  1.00  0.00     0.231 C 
HETATM   12  N1  UNL     1      22.507   7.483  50.661  1.00  0.00    -0.254 NA
HETATM   13  C6  UNL     1      21.198   7.435  50.498  1.00  0.00     0.117 C 
HETATM   14  C5  UNL     1      20.212   6.621  49.768  1.00  0.00     0.018 C 
HETATM   15  C4  UNL     1      20.139   5.572  48.946  1.00  0.00     0.008 C 
HETATM   16  C3  UNL     1      21.253   4.709  48.384  1.00  0.00     0.173 C 
HETATM   17  O2  UNL     1      21.547   3.756  49.419  1.00  0.00    -0.331 OA
HETATM   18  C9  UNL     1      23.909   4.064  48.897  1.00  0.00     0.100 C 
BRANCH  16  19
HETATM   19  C2  UNL     1      20.796   4.003  47.187  1.00  0.00     0.203 C 
BRANCH  19  20
HETATM   20  O1  UNL     1      21.712   3.698  46.225  1.00  0.00    -0.393 OA
HETATM   21  C1  UNL     1      21.350   3.909  44.940  1.00  0.00     0.201 C 
ENDBRANCH  19  20
ENDBRANCH  16  19
ENDBRANCH   1   9
BRANCH   5  22
HETATM   22  N4  UNL     1      25.089   0.737  53.671  1.00  0.00     0.133 N 
HETATM   23  H19 UNL     1      25.721   1.551  53.821  1.00  0.00     0.320 HD
BRANCH  22  24
HETATM   24  C14 UNL     1      25.754  -0.435  54.101  1.00  0.00     0.483 C 
BRANCH  24  25
HETATM   25  N5  UNL     1      25.367  -0.925  55.411  1.00  0.00     0.116 N 
HETATM   26  H21 UNL     1      25.922  -0.507  56.164  1.00  0.00     0.316 HD
HETATM   27  H22 UNL     1      24.333  -0.884  55.555  1.00  0.00     0.316 HD
ENDBRANCH  24  25
BRANCH  24  28
HETATM   28  C15 UNL     1      27.216  -0.450  54.004  1.00  0.00     0.010 A 
HETATM   29  C16 UNL     1      28.142   0.354  54.680  1.00  0.00     0.012 A 
HETATM   30  C17 UNL     1      29.497   0.209  54.476  1.00  0.00     0.001 A 
HETATM   31  C18 UNL     1      30.007  -0.728  53.601  1.00  0.00     0.001 A 
HETATM   32  C19 UNL     1      29.083  -1.511  52.943  1.00  0.00     0.007 A 
HETATM   33  C20 UNL     1      27.696  -1.413  53.107  1.00  0.00    -0.052 A 
HETATM   34  C21 UNL     1      26.839  -2.338  52.326  1.00  0.00     0.049 C 
ENDBRANCH  24  28
ENDBRANCH  22  24
ENDBRANCH   5  22
TORSDOF 7
ENDMDL
MODEL 3
REMARK VINA RESULT:      -8.5      3.322      4.195
REMARK  7 active torsions:
REMARK  status: ('A' for Active; 'I' for Inactive)
REMARK    1  A    between atoms: O1_2  and  C2_3 
REMARK    2  A    between atoms: C2_3  and  C3_4 
REMARK    3  A    between atoms: C8_11  and  N3_13 
REMARK    4  A    between atoms: C13_17  and  N4_18 
REMARK    5  A    between atoms: N4_18  and  C14_19 
REMARK    6  A    between atoms: C14_19  and  N5_20 
REMARK    7  A    between atoms: C14_19  and  C15_21 
ROOT
HETATM    1  N3  UNL     1      23.354   4.603  50.692  1.00  0.00    -0.337 N 
HETATM    2  C10 UNL     1      24.620   4.611  50.052  1.00  0.00     0.095 C 
HETATM    3  C11 UNL     1      25.596   3.693  50.159  1.00  0.00    -0.032 C 
HETATM    4  C12 UNL     1      26.848   3.918  49.385  1.00  0.00     0.047 C 
HETATM    5  C13 UNL     1      25.709   2.430  50.927  1.00  0.00     0.276 C 
HETATM    6  C22 UNL     1      24.493   2.041  51.621  1.00  0.00     0.010 C 
HETATM    7  C23 UNL     1      23.375   2.594  52.068  1.00  0.00    -0.009 C 
HETATM    8  C24 UNL     1      22.985   4.019  51.962  1.00  0.00     0.154 C 
ENDROOT
BRANCH   1   9
HETATM    9  C8  UNL     1      22.333   5.281  49.935  1.00  0.00     0.235 C 
HETATM   10  N2  UNL     1      21.953   4.581  48.748  1.00  0.00    -0.225 NA
HETATM   11  C7  UNL     1      20.894   3.980  48.509  1.00  0.00     0.231 C 
HETATM   12  N1  UNL     1      21.309   3.604  47.177  1.00  0.00    -0.254 NA
HETATM   13  C6  UNL     1      21.902   4.469  46.376  1.00  0.00     0.117 C 
HETATM   14  C5  UNL     1      22.335   5.876  46.409  1.00  0.00     0.018 C 
HETATM   15  C4  UNL     1      22.352   6.937  47.219  1.00  0.00     0.008 C 
HETATM   16  C3  UNL     1      21.834   7.074  48.638  1.00  0.00     0.173 C 
HETATM   17  O2  UNL     1      22.878   6.541  49.471  1.00  0.00    -0.331 OA
HETATM   18  C9  UNL     1      21.136   5.484  50.811  1.00  0.00     0.100 C 
BRANCH  16  19
HETATM   19  C2  UNL     1      21.619   8.482  48.968  1.00  0.00     0.203 C 
BRANCH  19  20
HETATM   20  O1  UNL     1      20.693   8.791  49.920  1.00  0.00    -0.393 OA
HETATM   21  C1  UNL     1      19.401   8.850  49.527  1.00  0.00     0.201 C 
ENDBRANCH  19  20
ENDBRANCH  16  19
ENDBRANCH   1   9
BRANCH   5  22
HETATM   22  N4  UNL     1      26.806   2.547  51.821  1.00  0.00     0.133 N 
HETATM   23  H19 UNL     1      27.677   2.325  51.297  1.00  0.00     0.320 HD
BRANCH  22  24
HETATM   24  C14 UNL     1      26.790   1.785  53.014  1.00  0.00     0.483 C 
BRANCH  24  25
HETATM   25  N5  UNL     1      26.679   2.551  54.241  1.00  0.00     0.116 N 
HETATM   26  H21 UNL     1      27.580   2.661  54.716  1.00  0.00     0.316 HD
HETATM   27  H22 UNL     1      26.147   3.439  54.101  1.00  0.00     0.316 HD
ENDBRANCH  24  25
BRANCH  24  28
HETATM   28  C15 UNL     1      27.843   0.779  53.178  1.00  0.00     0.010 A 
HETATM   29  C16 UNL     1      29.199   0.976  53.468  1.00  0.00     0.012 A 
HETATM   30  C17 UNL     1      30.065  -0.089  53.595  1.00  0.00     0.001 A 
HETATM   31  C18 UNL     1      29.642  -1.394  53.444  1.00  0.00     0.001 A 
HETATM   32  C19 UNL     1      28.305  -1.571  53.159  1.00  0.00     0.007 A 
HETATM   33  C20 UNL     1      27.377  -0.533  53.019  1.00  0.00    -0.052 A 
HETATM   34  C21 UNL     1      25.971  -0.897  52.716  1.00  0.00     0.049 C 
ENDBRANCH  24  28
ENDBRANCH  22  24
ENDBRANCH   5  22
TORSDOF 7
ENDMDL
MODEL 4
REMARK VINA RESULT:      -8.3      1.992      3.702
REMARK  7 active torsions:
REMARK  status: ('A' for Active; 'I' for Inactive)
REMARK    1  A    between atoms: O1_2  and  C2_3 
REMARK    2  A    between atoms: C2_3  and  C3_4 
REMARK    3  A    between atoms: C8_11  and  N3_13 
REMARK    4  A    between atoms: C13_17  and  N4_18 
REMARK    5  A    between atoms: N4_18  and  C14_19 
REMARK    6  A    between atoms: C14_19  and  N5_20 
REMARK    7  A    between atoms: C14_19  and  C15_21 
ROOT
HETATM    1  N3  UNL     1      22.868   2.443  50.669  1.00  0.00    -0.337 N 
HETATM    2  C10 UNL     1      22.404   1.293  51.358  1.00  0.00     0.095 C 
HETATM    3  C11 UNL     1      23.034   0.615  52.333  1.00  0.00    -0.032 C 
HETATM    4  C12 UNL     1      22.344  -0.571  52.911  1.00  0.00     0.047 C 
HETATM    5  C13 UNL     1      24.346   0.798  52.999  1.00  0.00     0.276 C 
HETATM    6  C22 UNL     1      25.054   2.004  52.605  1.00  0.00     0.010 C 
HETATM    7  C23 UNL     1      25.075   2.871  51.603  1.00  0.00    -0.009 C 
HETATM    8  C24 UNL     1      24.228   2.844  50.389  1.00  0.00     0.154 C 
ENDROOT
BRANCH   1   9
HETATM    9  C8  UNL     1      21.801   3.293  50.206  1.00  0.00     0.235 C 
HETATM   10  N2  UNL     1      20.612   3.185  50.992  1.00  0.00    -0.225 NA
HETATM   11  C7  UNL     1      20.127   4.013  51.780  1.00  0.00     0.231 C 
HETATM   12  N1  UNL     1      19.002   3.168  52.108  1.00  0.00    -0.254 NA
HETATM   13  C6  UNL     1      18.340   2.516  51.171  1.00  0.00     0.117 C 
HETATM   14  C5  UNL     1      18.387   2.350  49.709  1.00  0.00     0.018 C 
HETATM   15  C4  UNL     1      19.084   2.749  48.642  1.00  0.00     0.008 C 
HETATM   16  C3  UNL     1      20.281   3.677  48.565  1.00  0.00     0.173 C 
HETATM   17  O2  UNL     1      21.416   2.852  48.880  1.00  0.00    -0.331 OA
HETATM   18  C9  UNL     1      22.280   4.711  50.200  1.00  0.00     0.100 C 
BRANCH  16  19
HETATM   19  C2  UNL     1      20.427   4.209  47.211  1.00  0.00     0.203 C 
BRANCH  19  20
HETATM   20  O1  UNL     1      21.678   4.283  46.674  1.00  0.00    -0.393 OA
HETATM   21  C1  UNL     1      21.856   3.744  45.448  1.00  0.00     0.201 C 
ENDBRANCH  19  20
ENDBRANCH  16  19
ENDBRANCH   1   9
BRANCH   5  22
HETATM   22  N4  UNL     1      25.129  -0.364  52.771  1.00  0.00     0.133 N 
HETATM   23  H19 UNL     1      24.490  -1.134  52.483  1.00  0.00     0.320 HD
BRANCH  22  24
HETATM   24  C14 UNL     1      25.960  -0.835  53.815  1.00  0.00     0.483 C 
BRANCH  24  25
HETATM   25  N5  UNL     1      25.426  -0.679  55.155  1.00  0.00     0.116 N 
HETATM   26  H21 UNL     1      24.878  -1.492  55.453  1.00  0.00     0.316 HD
HETATM   27  H22 UNL     1      26.156  -0.371  55.835  1.00  0.00     0.316 HD
ENDBRANCH  24  25
BRANCH  24  28
HETATM   28  C15 UNL     1      27.357  -0.393  53.808  1.00  0.00     0.010 A 
HETATM   29  C16 UNL     1      27.890   0.819  54.267  1.00  0.00     0.012 A 
HETATM   30  C17 UNL     1      29.241   1.079  54.191  1.00  0.00     0.001 A 
HETATM   31  C18 UNL     1      30.131   0.167  53.663  1.00  0.00     0.001 A 
HETATM   32  C19 UNL     1      29.592  -1.020  53.217  1.00  0.00     0.007 A 
HETATM   33  C20 UNL     1      28.231  -1.344  53.267  1.00  0.00    -0.052 A 
HETATM   34  C21 UNL     1      27.815  -2.671  52.748  1.00  0.00     0.049 C 
ENDBRANCH  24  28
ENDBRANCH  22  24
ENDBRANCH   5  22
TORSDOF 7
ENDMDL
MODEL 5
REMARK VINA RESULT:      -8.3      2.541      4.046
REMARK  7 active torsions:
REMARK  status: ('A' for Active; 'I' for Inactive)
REMARK    1  A    between atoms: O1_2  and  C2_3 
REMARK    2  A    between atoms: C2_3  and  C3_4 
REMARK    3  A    between atoms: C8_11  and  N3_13 
REMARK    4  A    between atoms: C13_17  and  N4_18 
REMARK    5  A    between atoms: N4_18  and  C14_19 
REMARK    6  A    between atoms: C14_19  and  N5_20 
REMARK    7  A    between atoms: C14_19  and  C15_21 
ROOT
HETATM    1  N3  UNL     1      22.733   3.570  51.310  1.00  0.00    -0.337 N 
HETATM    2  C10 UNL     1      24.128   3.347  51.170  1.00  0.00     0.095 C 
HETATM    3  C11 UNL     1      24.827   2.273  51.574  1.00  0.00    -0.032 C 
HETATM    4  C12 UNL     1      26.294   2.264  51.317  1.00  0.00     0.047 C 
HETATM    5  C13 UNL     1      24.437   1.019  52.263  1.00  0.00     0.276 C 
HETATM    6  C22 UNL     1      23.005   0.860  52.449  1.00  0.00     0.010 C 
HETATM    7  C23 UNL     1      21.912   1.606  52.491  1.00  0.00    -0.009 C 
HETATM    8  C24 UNL     1      21.834   3.076  52.328  1.00  0.00     0.154 C 
ENDROOT
BRANCH   1   9
HETATM    9  C8  UNL     1      22.189   4.408  50.272  1.00  0.00     0.235 C 
HETATM   10  N2  UNL     1      21.053   3.834  49.621  1.00  0.00    -0.225 NA
HETATM   11  C7  UNL     1      19.862   4.175  49.697  1.00  0.00     0.231 C 
HETATM   12  N1  UNL     1      19.422   3.148  48.780  1.00  0.00    -0.254 NA
HETATM   13  C6  UNL     1      20.082   2.898  47.666  1.00  0.00     0.117 C 
HETATM   14  C5  UNL     1      21.280   3.390  46.966  1.00  0.00     0.018 C 
HETATM   15  C4  UNL     1      22.259   4.289  47.094  1.00  0.00     0.008 C 
HETATM   16  C3  UNL     1      22.510   5.290  48.206  1.00  0.00     0.173 C 
HETATM   17  O2  UNL     1      23.189   4.546  49.232  1.00  0.00    -0.331 OA
HETATM   18  C9  UNL     1      21.819   5.733  50.864  1.00  0.00     0.100 C 
BRANCH  16  19
HETATM   19  C2  UNL     1      23.374   6.370  47.734  1.00  0.00     0.203 C 
BRANCH  19  20
HETATM   20  O1  UNL     1      24.157   7.018  48.643  1.00  0.00    -0.393 OA
HETATM   21  C1  UNL     1      25.350   7.483  48.210  1.00  0.00     0.201 C 
ENDBRANCH  19  20
ENDBRANCH  16  19
ENDBRANCH   1   9
BRANCH   5  22
HETATM   22  N4  UNL     1      25.135   0.952  53.498  1.00  0.00     0.133 N 
HETATM   23  H19 UNL     1      25.862   1.697  53.501  1.00  0.00     0.320 HD
BRANCH  22  24
HETATM   24  C14 UNL     1      25.743  -0.272  53.865  1.00  0.00     0.483 C 
BRANCH  24  25
HETATM   25  N5  UNL     1      25.268  -0.856  55.105  1.00  0.00     0.116 N 
HETATM   26  H21 UNL     1      24.624  -0.237  55.607  1.00  0.00     0.316 HD
HETATM   27  H22 UNL     1      24.920  -1.832  54.971  1.00  0.00     0.316 HD
ENDBRANCH  24  25
BRANCH  24  28
HETATM   28  C15 UNL     1      27.207  -0.323  53.848  1.00  0.00     0.010 A 
HETATM   29  C16 UNL     1      28.116   0.516  54.507  1.00  0.00     0.012 A 
HETATM   30  C17 UNL     1      29.476   0.328  54.389  1.00  0.00     0.001 A 
HETATM   31  C18 UNL     1      30.008  -0.688  53.623  1.00  0.00     0.001 A 
HETATM   32  C19 UNL     1      29.102  -1.505  52.981  1.00  0.00     0.007 A 
HETATM   33  C20 UNL     1      27.711  -1.366  53.061  1.00  0.00    -0.052 A 
HETATM   34  C21 UNL     1      26.874  -2.336  52.312  1.00  0.00     0.049 C 
ENDBRANCH  24  28
ENDBRANCH  22  24
ENDBRANCH   5  22
TORSDOF 7
ENDMDL
MODEL 6
REMARK VINA RESULT:      -8.3      2.856      3.990
REMARK  7 active torsions:
REMARK  status: ('A' for Active; 'I' for Inactive)
REMARK    1  A    between atoms: O1_2  and  C2_3 
REMARK    2  A    between atoms: C2_3  and  C3_4 
REMARK    3  A    between atoms: C8_11  and  N3_13 
REMARK    4  A    between atoms: C13_17  and  N4_18 
REMARK    5  A    between atoms: N4_18  and  C14_19 
REMARK    6  A    between atoms: C14_19  and  N5_20 
REMARK    7  A    between atoms: C14_19  and  C15_21 
ROOT
HETATM    1  N3  UNL     1      23.397   4.663  50.253  1.00  0.00    -0.337 N 
HETATM    2  C10 UNL     1      24.716   4.671  49.730  1.00  0.00     0.095 C 
HETATM    3  C11 UNL     1      25.688   3.770  49.951  1.00  0.00    -0.032 C 
HETATM    4  C12 UNL     1      27.003   3.991  49.288  1.00  0.00     0.047 C 
HETATM    5  C13 UNL     1      25.744   2.529  50.761  1.00  0.00     0.276 C 
HETATM    6  C22 UNL     1      24.474   2.142  51.352  1.00  0.00     0.010 C 
HETATM    7  C23 UNL     1      23.314   2.691  51.679  1.00  0.00    -0.009 C 
HETATM    8  C24 UNL     1      22.920   4.108  51.500  1.00  0.00     0.154 C 
ENDROOT
BRANCH   1   9
HETATM    9  C8  UNL     1      22.442   5.307  49.388  1.00  0.00     0.235 C 
HETATM   10  N2  UNL     1      22.873   6.589  48.928  1.00  0.00    -0.225 NA
HETATM   11  C7  UNL     1      23.234   6.923  47.787  1.00  0.00     0.231 C 
HETATM   12  N1  UNL     1      23.467   8.296  48.170  1.00  0.00    -0.254 NA
HETATM   13  C6  UNL     1      22.607   8.950  48.928  1.00  0.00     0.117 C 
HETATM   14  C5  UNL     1      21.321   8.696  49.597  1.00  0.00     0.018 C 
HETATM   15  C4  UNL     1      20.417   7.729  49.773  1.00  0.00     0.008 C 
HETATM   16  C3  UNL     1      20.411   6.308  49.245  1.00  0.00     0.173 C 
HETATM   17  O2  UNL     1      21.241   5.566  50.156  1.00  0.00    -0.331 OA
HETATM   18  C9  UNL     1      22.169   4.412  48.218  1.00  0.00     0.100 C 
BRANCH  16  19
HETATM   19  C2  UNL     1      19.054   5.762  49.267  1.00  0.00     0.203 C 
BRANCH  19  20
HETATM   20  O1  UNL     1      18.886   4.460  49.637  1.00  0.00    -0.393 OA
HETATM   21  C1  UNL     1      18.111   4.223  50.719  1.00  0.00     0.201 C 
ENDBRANCH  19  20
ENDBRANCH  16  19
ENDBRANCH   1   9
BRANCH   5  22
HETATM   22  N4  UNL     1      26.753   2.684  51.748  1.00  0.00     0.133 N 
HETATM   23  H19 UNL     1      27.677   2.528  51.295  1.00  0.00     0.320 HD
BRANCH  22  24
HETATM   24  C14 UNL     1      26.684   1.890  52.917  1.00  0.00     0.483 C 
BRANCH  24  25
HETATM   25  N5  UNL     1      26.474   2.618  54.153  1.00  0.00     0.116 N 
HETATM   26  H21 UNL     1      26.945   2.180  54.950  1.00  0.00     0.316 HD
HETATM   27  H22 UNL     1      26.661   3.640  54.043  1.00  0.00     0.316 HD
ENDBRANCH  24  25
BRANCH  24  28
HETATM   28  C15 UNL     1      27.752   0.908  53.122  1.00  0.00     0.010 A 
HETATM   29  C16 UNL     1      29.100   1.137  53.426  1.00  0.00     0.012 A 
HETATM   30  C17 UNL     1      29.982   0.091  53.593  1.00  0.00     0.001 A 
HETATM   31  C18 UNL     1      29.586  -1.224  53.469  1.00  0.00     0.001 A 
HETATM   32  C19 UNL     1      28.257  -1.434  53.170  1.00  0.00     0.007 A 
HETATM   33  C20 UNL     1      27.312  -0.416  52.989  1.00  0.00    -0.052 A 
HETATM   34  C21 UNL     1      25.917  -0.813  52.676  1.00  0.00     0.049 C 
ENDBRANCH  24  28
ENDBRANCH  22  24
ENDBRANCH   5  22
TORSDOF 7
ENDMDL
MODEL 7
REMARK VINA RESULT:      -7.9      2.906      4.141
REMARK  7 active torsions:
REMARK  status: ('A' for Active; 'I' for Inactive)
REMARK    1  A    between atoms: O1_2  and  C2_3 
REMARK    2  A    between atoms: C2_3  and  C3_4 
REMARK    3  A    between atoms: C8_11  and  N3_13 
REMARK    4  A    between atoms: C13_17  and  N4_18 
REMARK    5  A    between atoms: N4_18  and  C14_19 
REMARK    6  A    between atoms: C14_19  and  N5_20 
REMARK    7  A    between atoms: C14_19  and  C15_21 
ROOT
HETATM    1  N3  UNL     1      24.131   3.430  50.036  1.00  0.00    -0.337 N 
HETATM    2  C10 UNL     1      23.303   2.700  50.928  1.00  0.00     0.095 C 
HETATM    3  C11 UNL     1      23.692   1.947  51.972  1.00  0.00    -0.032 C 
HETATM    4  C12 UNL     1      22.633   1.269  52.771  1.00  0.00     0.047 C 
HETATM    5  C13 UNL     1      25.024   1.621  52.537  1.00  0.00     0.276 C 
HETATM    6  C22 UNL     1      26.128   2.333  51.915  1.00  0.00     0.010 C 
HETATM    7  C23 UNL     1      26.401   2.964  50.783  1.00  0.00    -0.009 C 
HETATM    8  C24 UNL     1      25.491   3.154  49.630  1.00  0.00     0.154 C 
ENDROOT
BRANCH   1   9
HETATM    9  C8  UNL     1      23.482   4.593  49.487  1.00  0.00     0.235 C 
HETATM   10  N2  UNL     1      24.347   5.727  49.390  1.00  0.00    -0.225 NA
HETATM   11  C7  UNL     1      24.826   6.250  48.371  1.00  0.00     0.231 C 
HETATM   12  N1  UNL     1      25.519   7.273  49.119  1.00  0.00    -0.254 NA
HETATM   13  C6  UNL     1      24.928   7.915  50.109  1.00  0.00     0.117 C 
HETATM   14  C5  UNL     1      23.620   7.922  50.786  1.00  0.00     0.018 C 
HETATM   15  C4  UNL     1      22.430   7.317  50.749  1.00  0.00     0.008 C 
HETATM   16  C3  UNL     1      21.936   6.218  49.828  1.00  0.00     0.173 C 
HETATM   17  O2  UNL     1      22.433   4.997  50.402  1.00  0.00    -0.331 OA
HETATM   18  C9  UNL     1      22.937   4.251  48.136  1.00  0.00     0.100 C 
BRANCH  16  19
HETATM   19  C2  UNL     1      20.474   6.189  49.808  1.00  0.00     0.203 C 
BRANCH  19  20
HETATM   20  O1  UNL     1      19.854   5.020  49.478  1.00  0.00    -0.393 OA
HETATM   21  C1  UNL     1      18.987   4.506  50.378  1.00  0.00     0.201 C 
ENDBRANCH  19  20
ENDBRANCH  16  19
ENDBRANCH   1   9
BRANCH   5  22
HETATM   22  N4  UNL     1      25.206   0.215  52.470  1.00  0.00     0.133 N 
HETATM   23  H19 UNL     1      24.276  -0.225  52.308  1.00  0.00     0.320 HD
BRANCH  22  24
HETATM   24  C14 UNL     1      25.830  -0.439  53.558  1.00  0.00     0.483 C 
BRANCH  24  25
HETATM   25  N5  UNL     1      25.241  -0.184  54.859  1.00  0.00     0.116 N 
HETATM   26  H21 UNL     1      25.924  -0.260  55.619  1.00  0.00     0.316 HD
HETATM   27  H22 UNL     1      24.675   0.694  54.868  1.00  0.00     0.316 HD
ENDBRANCH  24  25
BRANCH  24  28
HETATM   28  C15 UNL     1      27.286  -0.315  53.666  1.00  0.00     0.010 A 
HETATM   29  C16 UNL     1      28.033   0.718  54.248  1.00  0.00     0.012 A 
HETATM   30  C17 UNL     1      29.410   0.679  54.270  1.00  0.00     0.001 A 
HETATM   31  C18 UNL     1      30.119  -0.372  53.725  1.00  0.00     0.001 A 
HETATM   32  C19 UNL     1      29.371  -1.381  53.157  1.00  0.00     0.007 A 
HETATM   33  C20 UNL     1      27.972  -1.400  53.103  1.00  0.00    -0.052 A 
HETATM   34  C21 UNL     1      27.319  -2.566  52.459  1.00  0.00     0.049 C 
ENDBRANCH  24  28
ENDBRANCH  22  24
ENDBRANCH   5  22
TORSDOF 7
ENDMDL
MODEL 8
REMARK VINA RESULT:      -7.9      8.970     12.388
REMARK  7 active torsions:
REMARK  status: ('A' for Active; 'I' for Inactive)
REMARK    1  A    between atoms: O1_2  and  C2_3 
REMARK    2  A    between atoms: C2_3  and  C3_4 
REMARK    3  A    between atoms: C8_11  and  N3_13 
REMARK    4  A    between atoms: C13_17  and  N4_18 
REMARK    5  A    between atoms: N4_18  and  C14_19 
REMARK    6  A    between atoms: C14_19  and  N5_20 
REMARK    7  A    between atoms: C14_19  and  C15_21 
ROOT
HETATM    1  N3  UNL     1      30.090   7.619  48.333  1.00  0.00    -0.337 N 
HETATM    2  C10 UNL     1      29.424   6.366  48.365  1.00  0.00     0.095 C 
HETATM    3  C11 UNL     1      28.119   6.140  48.593  1.00  0.00    -0.032 C 
HETATM    4  C12 UNL     1      27.646   4.728  48.577  1.00  0.00     0.047 C 
HETATM    5  C13 UNL     1      26.976   7.042  48.876  1.00  0.00     0.276 C 
HETATM    6  C22 UNL     1      27.295   8.457  48.788  1.00  0.00     0.010 C 
HETATM    7  C23 UNL     1      28.354   9.249  48.841  1.00  0.00    -0.009 C 
HETATM    8  C24 UNL     1      29.763   8.837  49.040  1.00  0.00     0.154 C 
ENDROOT
BRANCH   1   9
HETATM    9  C8  UNL     1      31.239   7.626  47.464  1.00  0.00     0.235 C 
HETATM   10  N2  UNL     1      32.102   6.504  47.662  1.00  0.00    -0.225 NA
HETATM   11  C7  UNL     1      32.290   5.529  46.916  1.00  0.00     0.231 C 
HETATM   12  N1  UNL     1      33.253   4.925  47.807  1.00  0.00    -0.254 NA
HETATM   13  C6  UNL     1      34.196   5.646  48.385  1.00  0.00     0.117 C 
HETATM   14  C5  UNL     1      34.637   7.050  48.420  1.00  0.00     0.018 C 
HETATM   15  C4  UNL     1      34.326   8.247  47.917  1.00  0.00     0.008 C 
HETATM   16  C3  UNL     1      33.211   8.632  46.964  1.00  0.00     0.173 C 
HETATM   17  O2  UNL     1      32.046   8.784  47.794  1.00  0.00    -0.331 OA
HETATM   18  C9  UNL     1      30.771   7.663  46.043  1.00  0.00     0.100 C 
BRANCH  16  19
HETATM   19  C2  UNL     1      33.514   9.905  46.312  1.00  0.00     0.203 C 
BRANCH  19  20
HETATM   20  O1  UNL     1      32.549  10.486  45.544  1.00  0.00    -0.393 OA
HETATM   21  C1  UNL     1      32.221  11.766  45.830  1.00  0.00     0.201 C 
ENDBRANCH  19  20
ENDBRANCH  16  19
ENDBRANCH   1   9
BRANCH   5  22
HETATM   22  N4  UNL     1      26.446   6.704  50.149  1.00  0.00     0.133 N 
HETATM   23  H19 UNL     1      26.884   5.811  50.457  1.00  0.00     0.320 HD
BRANCH  22  24
HETATM   24  C14 UNL     1      25.042   6.589  50.288  1.00  0.00     0.483 C 
BRANCH  24  25
HETATM   25  N5  UNL     1      24.506   7.022  51.565  1.00  0.00     0.116 N 
HETATM   26  H21 UNL     1      24.947   7.882  51.903  1.00  0.00     0.316 HD
HETATM   27  H22 UNL     1      23.461   7.037  51.566  1.00  0.00     0.316 HD
ENDBRANCH  24  25
BRANCH  24  28
HETATM   28  C15 UNL     1      24.438   5.303  49.933  1.00  0.00     0.010 A 
HETATM   29  C16 UNL     1      24.543   4.076  50.602  1.00  0.00     0.012 A 
HETATM   30  C17 UNL     1      23.902   2.950  50.132  1.00  0.00     0.001 A 
HETATM   31  C18 UNL     1      23.131   2.973  48.989  1.00  0.00     0.001 A 
HETATM   32  C19 UNL     1      23.038   4.186  48.342  1.00  0.00     0.007 A 
HETATM   33  C20 UNL     1      23.663   5.364  48.767  1.00  0.00    -0.052 A 
HETATM   34  C21 UNL     1      23.455   6.590  47.958  1.00  0.00     0.049 C 
ENDBRANCH  24  28
ENDBRANCH  22  24
ENDBRANCH   5  22
TORSDOF 7
ENDMDL
MODEL 9
REMARK VINA RESULT:      -7.9      7.320      9.106
REMARK  7 active torsions:
REMARK  status: ('A' for Active; 'I' for Inactive)
REMARK    1  A    between atoms: O1_2  and  C2_3 
REMARK    2  A    between atoms: C2_3  and  C3_4 
REMARK    3  A    between atoms: C8_11  and  N3_13 
REMARK    4  A    between atoms: C13_17  and  N4_18 
REMARK    5  A    between atoms: N4_18  and  C14_19 
REMARK    6  A    between atoms: C14_19  and  N5_20 
REMARK    7  A    between atoms: C14_19  and  C15_21 
ROOT
HETATM    1  N3  UNL     1      25.620   5.503  49.621  1.00  0.00    -0.337 N 
HETATM    2  C10 UNL     1      25.626   6.915  49.761  1.00  0.00     0.095 C 
HETATM    3  C11 UNL     1      26.568   7.773  49.334  1.00  0.00    -0.032 C 
HETATM    4  C12 UNL     1      26.355   9.223  49.598  1.00  0.00     0.047 C 
HETATM    5  C13 UNL     1      27.851   7.584  48.615  1.00  0.00     0.276 C 
HETATM    6  C22 UNL     1      28.102   6.217  48.189  1.00  0.00     0.010 C 
HETATM    7  C23 UNL     1      27.715   4.987  48.492  1.00  0.00    -0.009 C 
HETATM    8  C24 UNL     1      26.742   4.595  49.538  1.00  0.00     0.154 C 
ENDROOT
BRANCH   1   9
HETATM    9  C8  UNL     1      24.292   4.947  49.557  1.00  0.00     0.235 C 
HETATM   10  N2  UNL     1      23.687   4.785  50.842  1.00  0.00    -0.225 NA
HETATM   11  C7  UNL     1      22.749   5.427  51.344  1.00  0.00     0.231 C 
HETATM   12  N1  UNL     1      22.765   4.657  52.566  1.00  0.00    -0.254 NA
HETATM   13  C6  UNL     1      22.874   3.342  52.544  1.00  0.00     0.117 C 
HETATM   14  C5  UNL     1      23.004   2.268  51.546  1.00  0.00     0.018 C 
HETATM   15  C4  UNL     1      23.078   2.084  50.226  1.00  0.00     0.008 C 
HETATM   16  C3  UNL     1      23.044   3.107  49.106  1.00  0.00     0.173 C 
HETATM   17  O2  UNL     1      24.389   3.607  49.015  1.00  0.00    -0.331 OA
HETATM   18  C9  UNL     1      23.439   5.830  48.701  1.00  0.00     0.100 C 
BRANCH  16  19
HETATM   19  C2  UNL     1      22.675   2.468  47.844  1.00  0.00     0.203 C 
BRANCH  19  20
HETATM   20  O1  UNL     1      21.625   2.980  47.141  1.00  0.00    -0.393 OA
HETATM   21  C1  UNL     1      21.911   3.637  45.996  1.00  0.00     0.201 C 
ENDBRANCH  19  20
ENDBRANCH  16  19
ENDBRANCH   1   9
BRANCH   5  22
HETATM   22  N4  UNL     1      28.900   8.076  49.437  1.00  0.00     0.133 N 
HETATM   23  H19 UNL     1      28.648   9.038  49.742  1.00  0.00     0.320 HD
BRANCH  22  24
HETATM   24  C14 UNL     1      30.215   8.097  48.914  1.00  0.00     0.483 C 
BRANCH  24  25
HETATM   25  N5  UNL     1      31.248   7.610  49.807  1.00  0.00     0.116 N 
HETATM   26  H21 UNL     1      32.154   8.057  49.637  1.00  0.00     0.316 HD
HETATM   27  H22 UNL     1      30.939   7.616  50.805  1.00  0.00     0.316 HD
ENDBRANCH  24  25
BRANCH  24  28
HETATM   28  C15 UNL     1      30.670   9.348  48.301  1.00  0.00     0.010 A 
HETATM   29  C16 UNL     1      30.826  10.605  48.899  1.00  0.00     0.012 A 
HETATM   30  C17 UNL     1      31.273  11.690  48.176  1.00  0.00     0.001 A 
HETATM   31  C18 UNL     1      31.588  11.593  46.836  1.00  0.00     0.001 A 
HETATM   32  C19 UNL     1      31.429  10.350  46.262  1.00  0.00     0.007 A 
HETATM   33  C20 UNL     1      30.980   9.212  46.942  1.00  0.00    -0.052 A 
HETATM   34  C21 UNL     1      30.871   7.945  46.176  1.00  0.00     0.049 C 
ENDBRANCH  24  28
ENDBRANCH  22  24
ENDBRANCH   5  22
TORSDOF 7
ENDMDL
