MODEL 1
REMARK VINA RESULT:      -8.2      0.000      0.000
REMARK  3 active torsions:
REMARK  status: ('A' for Active; 'I' for Inactive)
REMARK    1  A    between atoms: C4_5  and  C5_6 
REMARK    2  A    between atoms: C8_10  and  N3_11 
REMARK    3  A    between atoms: N3_11  and  C9_12 
ROOT
HETATM    1  C5  UNL     1      26.289   0.355  52.439  1.00  0.00     0.089 A 
HETATM    2  C6  UNL     1      26.445   1.391  51.571  1.00  0.00     0.053 A 
HETATM    3  C7  UNL     1      25.484   2.336  51.304  1.00  0.00     0.139 A 
HETATM    4  N2  UNL     1      24.320   2.180  51.980  1.00  0.00    -0.075 NA
HETATM    5  C8  UNL     1      24.115   1.171  52.853  1.00  0.00     0.727 A 
HETATM    6  N5  UNL     1      25.102   0.253  53.083  1.00  0.00    -0.062 NA
ENDROOT
BRANCH   5   7
HETATM    7  N3  UNL     1      22.820   1.246  53.404  1.00  0.00    -0.188 N 
HETATM    8  H6  UNL     1      22.853   1.794  54.290  1.00  0.00     0.184 HD
BRANCH   7   9
HETATM    9  C9  UNL     1      21.574   0.724  52.957  1.00  0.00     0.051 A 
HETATM   10  C10 UNL     1      21.151   0.944  51.660  1.00  0.00     0.031 A 
HETATM   11  C11 UNL     1      19.913   0.430  51.294  1.00  0.00     0.013 A 
HETATM   12  C12 UNL     1      19.071  -0.281  52.114  1.00  0.00    -0.014 A 
HETATM   13  C13 UNL     1      19.617  -0.423  53.368  1.00  0.00     0.038 A 
HETATM   14  C15 UNL     1      17.838  -1.019  52.419  1.00  0.00     0.160 A 
HETATM   15  C14 UNL     1      20.813   0.019  53.884  1.00  0.00     0.059 A 
HETATM   16  N4  UNL     1      18.424  -1.148  53.729  1.00  0.00    -0.385 N 
HETATM   17  H10 UNL     1      18.022  -1.626  54.562  1.00  0.00     0.160 HD
ENDBRANCH   7   9
ENDBRANCH   5   7
BRANCH   1  18
HETATM   18  C4  UNL     1      27.300  -0.642  52.756  1.00  0.00     0.011 A 
HETATM   19  C3  UNL     1      26.970  -1.947  52.514  1.00  0.00     0.130 A 
HETATM   20  N1  UNL     1      27.914  -2.884  52.792  1.00  0.00    -0.272 NA
HETATM   21  C2  UNL     1      29.106  -2.521  53.281  1.00  0.00     0.116 A 
HETATM   22  C1  UNL     1      29.506  -1.235  53.549  1.00  0.00     0.020 A 
HETATM   23  C16 UNL     1      28.530  -0.281  53.259  1.00  0.00     0.017 A 
ENDBRANCH   1  18
TORSDOF 3
ENDMDL
MODEL 2
REMARK VINA RESULT:      -8.1      2.925      6.321
REMARK  3 active torsions:
REMARK  status: ('A' for Active; 'I' for Inactive)
REMARK    1  A    between atoms: C4_5  and  C5_6 
REMARK    2  A    between atoms: C8_10  and  N3_11 
REMARK    3  A    between atoms: N3_11  and  C9_12 
ROOT
HETATM    1  C5  UNL     1      25.945   0.560  52.658  1.00  0.00     0.089 A 
HETATM    2  C6  UNL     1      24.805   0.549  53.401  1.00  0.00     0.053 A 
HETATM    3  C7  UNL     1      23.664   1.248  53.088  1.00  0.00     0.139 A 
HETATM    4  N2  UNL     1      23.732   1.981  51.951  1.00  0.00    -0.075 NA
HETATM    5  C8  UNL     1      24.837   2.026  51.178  1.00  0.00     0.727 A 
HETATM    6  N5  UNL     1      25.950   1.314  51.533  1.00  0.00    -0.062 NA
ENDROOT
BRANCH   5   7
HETATM    7  N3  UNL     1      24.634   2.868  50.066  1.00  0.00    -0.188 N 
HETATM    8  H6  UNL     1      23.780   2.560  49.552  1.00  0.00     0.184 HD
BRANCH   7   9
HETATM    9  C9  UNL     1      25.367   3.988  49.587  1.00  0.00     0.051 A 
HETATM   10  C10 UNL     1      24.713   5.156  49.244  1.00  0.00     0.031 A 
HETATM   11  C11 UNL     1      25.484   6.204  48.757  1.00  0.00     0.013 A 
HETATM   12  C12 UNL     1      26.847   6.178  48.587  1.00  0.00    -0.014 A 
HETATM   13  C13 UNL     1      27.363   4.962  48.965  1.00  0.00     0.038 A 
HETATM   14  C15 UNL     1      28.140   6.759  48.202  1.00  0.00     0.160 A 
HETATM   15  C14 UNL     1      26.744   3.836  49.460  1.00  0.00     0.059 A 
HETATM   16  N4  UNL     1      28.658   5.474  48.595  1.00  0.00    -0.385 N 
HETATM   17  H10 UNL     1      29.648   5.153  48.573  1.00  0.00     0.160 HD
ENDBRANCH   7   9
ENDBRANCH   5   7
BRANCH   1  18
HETATM   18  C4  UNL     1      27.155  -0.190  52.956  1.00  0.00     0.011 A 
HETATM   19  C3  UNL     1      27.081  -1.549  52.825  1.00  0.00     0.130 A 
HETATM   20  N1  UNL     1      28.212  -2.257  53.086  1.00  0.00    -0.272 NA
HETATM   21  C2  UNL     1      29.335  -1.629  53.455  1.00  0.00     0.116 A 
HETATM   22  C1  UNL     1      29.482  -0.272  53.608  1.00  0.00     0.020 A 
HETATM   23  C16 UNL     1      28.316   0.444  53.336  1.00  0.00     0.017 A 
ENDBRANCH   1  18
TORSDOF 3
ENDMDL
MODEL 3
REMARK VINA RESULT:      -8.1      2.701      6.034
REMARK  3 active torsions:
REMARK  status: ('A' for Active; 'I' for Inactive)
REMARK    1  A    between atoms: C4_5  and  C5_6 
REMARK    2  A    between atoms: C8_10  and  N3_11 
REMARK    3  A    between atoms: N3_11  and  C9_12 
ROOT
HETATM    1  C5  UNL     1      25.798   0.126  52.790  1.00  0.00     0.089 A 
HETATM    2  C6  UNL     1      24.627  -0.172  53.417  1.00  0.00     0.053 A 
HETATM    3  C7  UNL     1      23.433   0.464  53.180  1.00  0.00     0.139 A 
HETATM    4  N2  UNL     1      23.479   1.446  52.248  1.00  0.00    -0.075 NA
HETATM    5  C8  UNL     1      24.613   1.780  51.597  1.00  0.00     0.727 A 
HETATM    6  N5  UNL     1      25.779   1.119  51.870  1.00  0.00    -0.062 NA
ENDROOT
BRANCH   5   7
HETATM    7  N3  UNL     1      24.376   2.835  50.693  1.00  0.00    -0.188 N 
HETATM    8  H6  UNL     1      23.356   2.888  50.484  1.00  0.00     0.184 HD
BRANCH   7   9
HETATM    9  C9  UNL     1      25.260   3.764  50.077  1.00  0.00     0.051 A 
HETATM   10  C10 UNL     1      26.427   3.327  49.480  1.00  0.00     0.031 A 
HETATM   11  C11 UNL     1      27.260   4.287  48.920  1.00  0.00     0.013 A 
HETATM   12  C12 UNL     1      27.022   5.640  48.911  1.00  0.00    -0.014 A 
HETATM   13  C13 UNL     1      25.833   5.931  49.537  1.00  0.00     0.038 A 
HETATM   14  C15 UNL     1      27.348   7.035  48.587  1.00  0.00     0.160 A 
HETATM   15  C14 UNL     1      24.906   5.108  50.134  1.00  0.00     0.059 A 
HETATM   16  N4  UNL     1      26.104   7.318  49.255  1.00  0.00    -0.385 N 
HETATM   17  H10 UNL     1      25.663   8.248  49.412  1.00  0.00     0.160 HD
ENDBRANCH   7   9
ENDBRANCH   5   7
BRANCH   1  18
HETATM   18  C4  UNL     1      27.068  -0.550  53.007  1.00  0.00     0.011 A 
HETATM   19  C3  UNL     1      27.081  -1.905  52.822  1.00  0.00     0.130 A 
HETATM   20  N1  UNL     1      28.266  -2.543  53.007  1.00  0.00    -0.272 NA
HETATM   21  C2  UNL     1      29.360  -1.853  53.355  1.00  0.00     0.116 A 
HETATM   22  C1  UNL     1      29.422  -0.496  53.558  1.00  0.00     0.020 A 
HETATM   23  C16 UNL     1      28.199   0.148  53.365  1.00  0.00     0.017 A 
ENDBRANCH   1  18
TORSDOF 3
ENDMDL
MODEL 4
REMARK VINA RESULT:      -7.9      4.061      7.431
REMARK  3 active torsions:
REMARK  status: ('A' for Active; 'I' for Inactive)
REMARK    1  A    between atoms: C4_5  and  C5_6 
REMARK    2  A    between atoms: C8_10  and  N3_11 
REMARK    3  A    between atoms: N3_11  and  C9_12 
ROOT
HETATM    1  C5  UNL     1      25.472   4.710  49.415  1.00  0.00     0.089 A 
HETATM    2  C6  UNL     1      24.171   4.803  49.027  1.00  0.00     0.053 A 
HETATM    3  C7  UNL     1      23.136   4.107  49.600  1.00  0.00     0.139 A 
HETATM    4  N2  UNL     1      23.488   3.287  50.621  1.00  0.00    -0.075 NA
HETATM    5  C8  UNL     1      24.763   3.160  51.045  1.00  0.00     0.727 A 
HETATM    6  N5  UNL     1      25.761   3.873  50.439  1.00  0.00    -0.062 NA
ENDROOT
BRANCH   5   7
HETATM    7  N3  UNL     1      24.844   2.239  52.109  1.00  0.00    -0.188 N 
HETATM    8  H6  UNL     1      23.921   2.188  52.592  1.00  0.00     0.184 HD
BRANCH   7   9
HETATM    9  C9  UNL     1      25.918   1.434  52.578  1.00  0.00     0.051 A 
HETATM   10  C10 UNL     1      26.103   0.158  52.080  1.00  0.00     0.031 A 
HETATM   11  C11 UNL     1      27.155  -0.586  52.599  1.00  0.00     0.013 A 
HETATM   12  C12 UNL     1      28.030  -0.161  53.569  1.00  0.00    -0.014 A 
HETATM   13  C13 UNL     1      27.729   1.118  53.970  1.00  0.00     0.038 A 
HETATM   14  C15 UNL     1      29.177  -0.320  54.472  1.00  0.00     0.160 A 
HETATM   15  C14 UNL     1      26.736   1.980  53.562  1.00  0.00     0.059 A 
HETATM   16  N4  UNL     1      28.838   1.018  54.884  1.00  0.00    -0.385 N 
HETATM   17  H10 UNL     1      29.313   1.601  55.605  1.00  0.00     0.160 HD
ENDBRANCH   7   9
ENDBRANCH   5   7
BRANCH   1  18
HETATM   18  C4  UNL     1      26.581   5.455  48.839  1.00  0.00     0.011 A 
HETATM   19  C3  UNL     1      26.338   6.761  48.512  1.00  0.00     0.130 A 
HETATM   20  N1  UNL     1      27.372   7.469  47.988  1.00  0.00    -0.272 NA
HETATM   21  C2  UNL     1      28.567   6.892  47.808  1.00  0.00     0.116 A 
HETATM   22  C1  UNL     1      28.883   5.590  48.111  1.00  0.00     0.020 A 
HETATM   23  C16 UNL     1      27.814   4.874  48.649  1.00  0.00     0.017 A 
ENDBRANCH   1  18
TORSDOF 3
ENDMDL
MODEL 5
REMARK VINA RESULT:      -7.8      3.860      7.263
REMARK  3 active torsions:
REMARK  status: ('A' for Active; 'I' for Inactive)
REMARK    1  A    between atoms: C4_5  and  C5_6 
REMARK    2  A    between atoms: C8_10  and  N3_11 
REMARK    3  A    between atoms: N3_11  and  C9_12 
ROOT
HETATM    1  C5  UNL     1      26.226   1.896  52.523  1.00  0.00     0.089 A 
HETATM    2  C6  UNL     1      25.123   2.272  53.227  1.00  0.00     0.053 A 
HETATM    3  C7  UNL     1      24.180   3.164  52.779  1.00  0.00     0.139 A 
HETATM    4  N2  UNL     1      24.410   3.674  51.545  1.00  0.00    -0.075 NA
HETATM    5  C8  UNL     1      25.487   3.334  50.805  1.00  0.00     0.727 A 
HETATM    6  N5  UNL     1      26.400   2.442  51.296  1.00  0.00    -0.062 NA
ENDROOT
BRANCH   5   7
HETATM    7  N3  UNL     1      25.480   4.017  49.572  1.00  0.00    -0.188 N 
HETATM    8  H6  UNL     1      24.663   3.699  49.007  1.00  0.00     0.184 HD
BRANCH   7   9
HETATM    9  C9  UNL     1      26.356   5.000  49.036  1.00  0.00     0.051 A 
HETATM   10  C10 UNL     1      27.658   4.671  48.710  1.00  0.00     0.031 A 
HETATM   11  C11 UNL     1      28.471   5.684  48.215  1.00  0.00     0.013 A 
HETATM   12  C12 UNL     1      28.089   6.988  48.022  1.00  0.00    -0.014 A 
HETATM   13  C13 UNL     1      26.777   7.172  48.387  1.00  0.00     0.038 A 
HETATM   14  C15 UNL     1      28.314   8.384  47.620  1.00  0.00     0.160 A 
HETATM   15  C14 UNL     1      25.849   6.287  48.887  1.00  0.00     0.059 A 
HETATM   16  N4  UNL     1      26.940   8.555  48.017  1.00  0.00    -0.385 N 
HETATM   17  H10 UNL     1      26.375   9.430  47.993  1.00  0.00     0.160 HD
ENDBRANCH   7   9
ENDBRANCH   5   7
BRANCH   1  18
HETATM   18  C4  UNL     1      27.225   0.935  52.966  1.00  0.00     0.011 A 
HETATM   19  C3  UNL     1      26.817  -0.366  53.076  1.00  0.00     0.130 A 
HETATM   20  N1  UNL     1      27.747  -1.273  53.475  1.00  0.00    -0.272 NA
HETATM   21  C2  UNL     1      29.000  -0.885  53.742  1.00  0.00     0.116 A 
HETATM   22  C1  UNL     1      29.480   0.399  53.655  1.00  0.00     0.020 A 
HETATM   23  C16 UNL     1      28.517   1.321  53.244  1.00  0.00     0.017 A 
ENDBRANCH   1  18
TORSDOF 3
ENDMDL
MODEL 6
REMARK VINA RESULT:      -7.7      1.784      2.145
REMARK  3 active torsions:
REMARK  status: ('A' for Active; 'I' for Inactive)
REMARK    1  A    between atoms: C4_5  and  C5_6 
REMARK    2  A    between atoms: C8_10  and  N3_11 
REMARK    3  A    between atoms: N3_11  and  C9_12 
ROOT
HETATM    1  C5  UNL     1      25.028   1.919  53.045  1.00  0.00     0.089 A 
HETATM    2  C6  UNL     1      24.652   3.218  53.194  1.00  0.00     0.053 A 
HETATM    3  C7  UNL     1      23.499   3.760  52.680  1.00  0.00     0.139 A 
HETATM    4  N2  UNL     1      22.717   2.897  51.987  1.00  0.00    -0.075 NA
HETATM    5  C8  UNL     1      23.043   1.599  51.811  1.00  0.00     0.727 A 
HETATM    6  N5  UNL     1      24.205   1.107  52.341  1.00  0.00    -0.062 NA
ENDROOT
BRANCH   5   7
HETATM    7  N3  UNL     1      22.060   0.937  51.049  1.00  0.00    -0.188 N 
HETATM    8  H6  UNL     1      22.409   0.805  50.075  1.00  0.00     0.184 HD
BRANCH   7   9
HETATM    9  C9  UNL     1      20.765   0.460  51.394  1.00  0.00     0.051 A 
HETATM   10  C10 UNL     1      19.704   0.631  50.525  1.00  0.00     0.031 A 
HETATM   11  C11 UNL     1      18.460   0.166  50.933  1.00  0.00     0.013 A 
HETATM   12  C12 UNL     1      18.194  -0.451  52.131  1.00  0.00    -0.014 A 
HETATM   13  C13 UNL     1      19.334  -0.553  52.891  1.00  0.00     0.038 A 
HETATM   14  C15 UNL     1      17.317  -1.102  53.114  1.00  0.00     0.160 A 
HETATM   15  C14 UNL     1      20.625  -0.150  52.636  1.00  0.00     0.059 A 
HETATM   16  N4  UNL     1      18.523  -1.190  53.897  1.00  0.00    -0.385 N 
HETATM   17  H10 UNL     1      18.635  -1.599  54.849  1.00  0.00     0.160 HD
ENDBRANCH   7   9
ENDBRANCH   5   7
BRANCH   1  18
HETATM   18  C4  UNL     1      26.231   1.319  53.601  1.00  0.00     0.011 A 
HETATM   19  C3  UNL     1      26.051   0.283  54.475  1.00  0.00     0.130 A 
HETATM   20  N1  UNL     1      27.170  -0.294  54.988  1.00  0.00    -0.272 NA
HETATM   21  C2  UNL     1      28.383   0.149  54.636  1.00  0.00     0.116 A 
HETATM   22  C1  UNL     1      28.640   1.181  53.767  1.00  0.00     0.020 A 
HETATM   23  C16 UNL     1      27.484   1.766  53.247  1.00  0.00     0.017 A 
ENDBRANCH   1  18
TORSDOF 3
ENDMDL
MODEL 7
REMARK VINA RESULT:      -7.7      1.654      4.075
REMARK  3 active torsions:
REMARK  status: ('A' for Active; 'I' for Inactive)
REMARK    1  A    between atoms: C4_5  and  C5_6 
REMARK    2  A    between atoms: C8_10  and  N3_11 
REMARK    3  A    between atoms: N3_11  and  C9_12 
ROOT
HETATM    1  C5  UNL     1      25.471   1.897  51.571  1.00  0.00     0.089 A 
HETATM    2  C6  UNL     1      26.432   0.952  51.759  1.00  0.00     0.053 A 
HETATM    3  C7  UNL     1      26.264  -0.196  52.495  1.00  0.00     0.139 A 
HETATM    4  N2  UNL     1      25.037  -0.349  53.050  1.00  0.00    -0.075 NA
HETATM    5  C8  UNL     1      24.049   0.557  52.894  1.00  0.00     0.727 A 
HETATM    6  N5  UNL     1      24.266   1.686  52.153  1.00  0.00    -0.062 NA
ENDROOT
BRANCH   5   7
HETATM    7  N3  UNL     1      22.887   0.151  53.581  1.00  0.00    -0.188 N 
HETATM    8  H6  UNL     1      23.123  -0.028  54.581  1.00  0.00     0.184 HD
BRANCH   7   9
HETATM    9  C9  UNL     1      21.547  -0.032  53.139  1.00  0.00     0.051 A 
HETATM   10  C10 UNL     1      21.131   0.500  51.935  1.00  0.00     0.031 A 
HETATM   11  C11 UNL     1      19.803   0.309  51.574  1.00  0.00     0.013 A 
HETATM   12  C12 UNL     1      18.865  -0.366  52.316  1.00  0.00    -0.014 A 
HETATM   13  C13 UNL     1      19.415  -0.839  53.484  1.00  0.00     0.038 A 
HETATM   14  C15 UNL     1      17.521  -0.898  52.575  1.00  0.00     0.160 A 
HETATM   15  C14 UNL     1      20.694  -0.737  53.982  1.00  0.00     0.059 A 
HETATM   16  N4  UNL     1      18.115  -1.376  53.797  1.00  0.00    -0.385 N 
HETATM   17  H10 UNL     1      17.655  -1.914  54.561  1.00  0.00     0.160 HD
ENDBRANCH   7   9
ENDBRANCH   5   7
BRANCH   1  18
HETATM   18  C4  UNL     1      25.618   3.106  50.777  1.00  0.00     0.011 A 
HETATM   19  C3  UNL     1      24.691   4.091  50.981  1.00  0.00     0.130 A 
HETATM   20  N1  UNL     1      24.830   5.230  50.254  1.00  0.00    -0.272 NA
HETATM   21  C2  UNL     1      25.838   5.360  49.383  1.00  0.00     0.116 A 
HETATM   22  C1  UNL     1      26.803   4.416  49.124  1.00  0.00     0.020 A 
HETATM   23  C16 UNL     1      26.650   3.251  49.877  1.00  0.00     0.017 A 
ENDBRANCH   1  18
TORSDOF 3
ENDMDL
MODEL 8
REMARK VINA RESULT:      -7.5      2.466      7.359
REMARK  3 active torsions:
REMARK  status: ('A' for Active; 'I' for Inactive)
REMARK    1  A    between atoms: C4_5  and  C5_6 
REMARK    2  A    between atoms: C8_10  and  N3_11 
REMARK    3  A    between atoms: N3_11  and  C9_12 
ROOT
HETATM    1  C5  UNL     1      22.166   2.289  52.191  1.00  0.00     0.089 A 
HETATM    2  C6  UNL     1      20.950   1.876  52.642  1.00  0.00     0.053 A 
HETATM    3  C7  UNL     1      20.747   0.770  53.431  1.00  0.00     0.139 A 
HETATM    4  N2  UNL     1      21.868   0.080  53.755  1.00  0.00    -0.075 NA
HETATM    5  C8  UNL     1      23.096   0.448  53.334  1.00  0.00     0.727 A 
HETATM    6  N5  UNL     1      23.247   1.557  52.548  1.00  0.00    -0.062 NA
ENDROOT
BRANCH   5   7
HETATM    7  N3  UNL     1      24.074  -0.449  53.810  1.00  0.00    -0.188 N 
HETATM    8  H6  UNL     1      23.607  -1.240  54.303  1.00  0.00     0.184 HD
BRANCH   7   9
HETATM    9  C9  UNL     1      25.494  -0.430  53.717  1.00  0.00     0.051 A 
HETATM   10  C10 UNL     1      26.145  -1.243  52.810  1.00  0.00     0.031 A 
HETATM   11  C11 UNL     1      27.533  -1.197  52.788  1.00  0.00     0.013 A 
HETATM   12  C12 UNL     1      28.316  -0.408  53.594  1.00  0.00    -0.014 A 
HETATM   13  C13 UNL     1      27.541   0.344  54.443  1.00  0.00     0.038 A 
HETATM   14  C15 UNL     1      29.599   0.112  54.087  1.00  0.00     0.160 A 
HETATM   15  C14 UNL     1      26.174   0.414  54.589  1.00  0.00     0.059 A 
HETATM   16  N4  UNL     1      28.767   0.884  54.974  1.00  0.00    -0.385 N 
HETATM   17  H10 UNL     1      29.071   1.564  55.702  1.00  0.00     0.160 HD
ENDBRANCH   7   9
ENDBRANCH   5   7
BRANCH   1  18
HETATM   18  C4  UNL     1      22.408   3.470  51.376  1.00  0.00     0.011 A 
HETATM   19  C3  UNL     1      22.094   4.677  51.938  1.00  0.00     0.130 A 
HETATM   20  N1  UNL     1      22.331   5.787  51.189  1.00  0.00    -0.272 NA
HETATM   21  C2  UNL     1      22.849   5.677  49.960  1.00  0.00     0.116 A 
HETATM   22  C1  UNL     1      23.187   4.502  49.333  1.00  0.00     0.020 A 
HETATM   23  C16 UNL     1      22.940   3.371  50.110  1.00  0.00     0.017 A 
ENDBRANCH   1  18
TORSDOF 3
ENDMDL
MODEL 9
REMARK VINA RESULT:      -7.4      4.143      7.934
REMARK  3 active torsions:
REMARK  status: ('A' for Active; 'I' for Inactive)
REMARK    1  A    between atoms: C4_5  and  C5_6 
REMARK    2  A    between atoms: C8_10  and  N3_11 
REMARK    3  A    between atoms: N3_11  and  C9_12 
ROOT
HETATM    1  C5  UNL     1      24.535   3.005  52.465  1.00  0.00     0.089 A 
HETATM    2  C6  UNL     1      23.710   3.983  52.930  1.00  0.00     0.053 A 
HETATM    3  C7  UNL     1      23.403   5.134  52.246  1.00  0.00     0.139 A 
HETATM    4  N2  UNL     1      23.987   5.253  51.029  1.00  0.00    -0.075 NA
HETATM    5  C8  UNL     1      24.811   4.313  50.521  1.00  0.00     0.727 A 
HETATM    6  N5  UNL     1      25.089   3.184  51.242  1.00  0.00    -0.062 NA
ENDROOT
BRANCH   5   7
HETATM    7  N3  UNL     1      25.280   4.696  49.248  1.00  0.00    -0.188 N 
HETATM    8  H6  UNL     1      24.612   4.362  48.520  1.00  0.00     0.184 HD
BRANCH   7   9
HETATM    9  C9  UNL     1      26.439   5.418  48.850  1.00  0.00     0.051 A 
HETATM   10  C10 UNL     1      26.365   6.775  48.602  1.00  0.00     0.031 A 
HETATM   11  C11 UNL     1      27.526   7.416  48.190  1.00  0.00     0.013 A 
HETATM   12  C12 UNL     1      28.746   6.813  48.007  1.00  0.00    -0.014 A 
HETATM   13  C13 UNL     1      28.674   5.470  48.288  1.00  0.00     0.038 A 
HETATM   14  C15 UNL     1      30.173   6.802  47.657  1.00  0.00     0.160 A 
HETATM   15  C14 UNL     1      27.617   4.693  48.701  1.00  0.00     0.059 A 
HETATM   16  N4  UNL     1      30.073   5.395  47.948  1.00  0.00    -0.385 N 
HETATM   17  H10 UNL     1      30.826   4.678  47.893  1.00  0.00     0.160 HD
ENDBRANCH   7   9
ENDBRANCH   5   7
BRANCH   1  18
HETATM   18  C4  UNL     1      24.855   1.768  53.161  1.00  0.00     0.011 A 
HETATM   19  C3  UNL     1      26.059   1.723  53.808  1.00  0.00     0.130 A 
HETATM   20  N1  UNL     1      26.360   0.577  54.473  1.00  0.00    -0.272 NA
HETATM   21  C2  UNL     1      25.499  -0.449  54.480  1.00  0.00     0.116 A 
HETATM   22  C1  UNL     1      24.277  -0.476  53.853  1.00  0.00     0.020 A 
HETATM   23  C16 UNL     1      23.979   0.706  53.175  1.00  0.00     0.017 A 
ENDBRANCH   1  18
TORSDOF 3
ENDMDL
