MODEL 1
REMARK VINA RESULT:      -9.4      0.000      0.000
REMARK  3 active torsions:
REMARK  status: ('A' for Active; 'I' for Inactive)
REMARK    1  A    between atoms: C9_9  and  C10_10 
REMARK    2  A    between atoms: N2_17  and  C16_18 
REMARK    3  A    between atoms: C17_20  and  O1_21 
ROOT
HETATM    1  C1  UNL     1      27.561  -2.373  52.731  1.00  0.00     0.043 C 
HETATM    2  C2  UNL     1      27.257  -0.916  52.796  1.00  0.00    -0.083 C 
HETATM    3  C3  UNL     1      28.296  -0.181  53.147  1.00  0.00     0.002 C 
HETATM    4  C4  UNL     1      28.480   1.261  53.340  1.00  0.00    -0.002 C 
HETATM    5  C5  UNL     1      27.454   2.119  53.426  1.00  0.00     0.001 C 
HETATM    6  C6  UNL     1      26.017   2.022  53.376  1.00  0.00     0.145 C 
HETATM    7  C7  UNL     1      25.441   0.644  53.532  1.00  0.00     0.073 C 
HETATM    8  C8  UNL     1      25.949  -0.333  52.506  1.00  0.00     0.047 C 
HETATM    9  C9  UNL     1      24.034   0.945  53.071  1.00  0.00     0.072 C 
HETATM   10  N1  UNL     1      24.064   2.004  52.324  1.00  0.00    -0.173 NA
HETATM   11  N2  UNL     1      25.357   2.491  52.205  1.00  0.00    -0.237 N 
ENDROOT
BRANCH  11  12
HETATM   12  C16 UNL     1      25.781   3.275  51.098  1.00  0.00     0.192 A 
HETATM   13  N3  UNL     1      26.804   3.367  50.339  1.00  0.00    -0.198 NA
HETATM   14  C17 UNL     1      26.765   4.296  49.378  1.00  0.00     0.171 A 
HETATM   15  C18 UNL     1      25.664   5.159  49.171  1.00  0.00     0.111 A 
HETATM   16  S1  UNL     1      24.562   4.575  50.504  1.00  0.00    -0.058 SA
BRANCH  14  17
HETATM   17  O1  UNL     1      27.959   4.277  48.626  1.00  0.00    -0.344 OA
HETATM   18  H16 UNL     1      28.503   3.423  48.709  1.00  0.00     0.219 HD
ENDBRANCH  14  17
ENDBRANCH  11  12
BRANCH   9  19
HETATM   19  C10 UNL     1      22.899   0.117  53.460  1.00  0.00    -0.009 A 
HETATM   20  C11 UNL     1      22.987  -0.899  54.401  1.00  0.00     0.013 A 
HETATM   21  C12 UNL     1      21.880  -1.656  54.735  1.00  0.00     0.001 A 
HETATM   22  C13 UNL     1      20.665  -1.407  54.130  1.00  0.00     0.000 A 
HETATM   23  C14 UNL     1      20.597  -0.390  53.193  1.00  0.00     0.001 A 
HETATM   24  C15 UNL     1      21.688   0.390  52.835  1.00  0.00     0.013 A 
ENDBRANCH   9  19
TORSDOF 3
ENDMDL
MODEL 2
REMARK VINA RESULT:      -8.9      2.981      6.020
REMARK  3 active torsions:
REMARK  status: ('A' for Active; 'I' for Inactive)
REMARK    1  A    between atoms: C9_9  and  C10_10 
REMARK    2  A    between atoms: N2_17  and  C16_18 
REMARK    3  A    between atoms: C17_20  and  O1_21 
ROOT
HETATM    1  C1  UNL     1      26.575   3.553  49.293  1.00  0.00     0.043 C 
HETATM    2  C2  UNL     1      25.721   3.245  50.475  1.00  0.00    -0.083 C 
HETATM    3  C3  UNL     1      24.903   4.229  50.798  1.00  0.00     0.002 C 
HETATM    4  C4  UNL     1      23.899   4.386  51.856  1.00  0.00    -0.002 C 
HETATM    5  C5  UNL     1      23.818   3.560  52.909  1.00  0.00     0.001 C 
HETATM    6  C6  UNL     1      24.530   2.395  53.367  1.00  0.00     0.145 C 
HETATM    7  C7  UNL     1      25.857   2.132  52.714  1.00  0.00     0.073 C 
HETATM    8  C8  UNL     1      25.765   1.988  51.219  1.00  0.00     0.047 C 
HETATM    9  C9  UNL     1      26.057   0.714  53.196  1.00  0.00     0.072 C 
HETATM   10  N1  UNL     1      24.898   0.210  53.485  1.00  0.00    -0.173 NA
HETATM   11  N2  UNL     1      23.886   1.131  53.255  1.00  0.00    -0.237 N 
ENDROOT
BRANCH  11  12
HETATM   12  C16 UNL     1      22.546   0.744  52.983  1.00  0.00     0.192 A 
HETATM   13  N3  UNL     1      21.555   0.248  53.619  1.00  0.00    -0.198 NA
HETATM   14  C17 UNL     1      20.433   0.038  52.924  1.00  0.00     0.171 A 
HETATM   15  C18 UNL     1      20.298   0.335  51.548  1.00  0.00     0.111 A 
HETATM   16  S1  UNL     1      21.970   0.988  51.211  1.00  0.00    -0.058 SA
BRANCH  14  17
HETATM   17  O1  UNL     1      19.433  -0.509  53.757  1.00  0.00    -0.344 OA
HETATM   18  H16 UNL     1      19.616  -1.455  54.080  1.00  0.00     0.219 HD
ENDBRANCH  14  17
ENDBRANCH  11  12
BRANCH   9  19
HETATM   19  C10 UNL     1      27.378   0.106  53.285  1.00  0.00    -0.009 A 
HETATM   20  C11 UNL     1      28.514   0.809  53.663  1.00  0.00     0.013 A 
HETATM   21  C12 UNL     1      29.746   0.186  53.732  1.00  0.00     0.001 A 
HETATM   22  C13 UNL     1      29.860  -1.154  53.423  1.00  0.00     0.000 A 
HETATM   23  C14 UNL     1      28.717  -1.838  53.048  1.00  0.00     0.001 A 
HETATM   24  C15 UNL     1      27.465  -1.245  52.969  1.00  0.00     0.013 A 
ENDBRANCH   9  19
TORSDOF 3
ENDMDL
MODEL 3
REMARK VINA RESULT:      -8.8      2.898      5.962
REMARK  3 active torsions:
REMARK  status: ('A' for Active; 'I' for Inactive)
REMARK    1  A    between atoms: C9_9  and  C10_10 
REMARK    2  A    between atoms: N2_17  and  C16_18 
REMARK    3  A    between atoms: C17_20  and  O1_21 
ROOT
HETATM    1  C1  UNL     1      26.646   3.582  49.332  1.00  0.00     0.043 C 
HETATM    2  C2  UNL     1      25.753   3.256  50.480  1.00  0.00    -0.083 C 
HETATM    3  C3  UNL     1      24.922   4.234  50.789  1.00  0.00     0.002 C 
HETATM    4  C4  UNL     1      23.883   4.375  51.815  1.00  0.00    -0.002 C 
HETATM    5  C5  UNL     1      23.767   3.534  52.852  1.00  0.00     0.001 C 
HETATM    6  C6  UNL     1      24.466   2.363  53.318  1.00  0.00     0.145 C 
HETATM    7  C7  UNL     1      25.815   2.111  52.707  1.00  0.00     0.073 C 
HETATM    8  C8  UNL     1      25.774   1.988  51.207  1.00  0.00     0.047 C 
HETATM    9  C9  UNL     1      26.000   0.686  53.174  1.00  0.00     0.072 C 
HETATM   10  N1  UNL     1      24.833   0.177  53.416  1.00  0.00    -0.173 NA
HETATM   11  N2  UNL     1      23.827   1.100  53.166  1.00  0.00    -0.237 N 
ENDROOT
BRANCH  11  12
HETATM   12  C16 UNL     1      22.498   0.715  52.842  1.00  0.00     0.192 A 
HETATM   13  N3  UNL     1      21.710   0.782  51.839  1.00  0.00    -0.198 NA
HETATM   14  C17 UNL     1      20.488   0.264  51.993  1.00  0.00     0.171 A 
HETATM   15  C18 UNL     1      20.040  -0.341  53.190  1.00  0.00     0.111 A 
HETATM   16  S1  UNL     1      21.541  -0.145  54.211  1.00  0.00    -0.058 SA
BRANCH  14  17
HETATM   17  O1  UNL     1      19.738   0.412  50.806  1.00  0.00    -0.344 OA
HETATM   18  H16 UNL     1      18.759   0.152  50.884  1.00  0.00     0.219 HD
ENDBRANCH  14  17
ENDBRANCH  11  12
BRANCH   9  19
HETATM   19  C10 UNL     1      27.319   0.079  53.300  1.00  0.00    -0.009 A 
HETATM   20  C11 UNL     1      28.440   0.778  53.724  1.00  0.00     0.013 A 
HETATM   21  C12 UNL     1      29.670   0.156  53.826  1.00  0.00     0.001 A 
HETATM   22  C13 UNL     1      29.797  -1.179  53.504  1.00  0.00     0.000 A 
HETATM   23  C14 UNL     1      28.668  -1.860  53.083  1.00  0.00     0.001 A 
HETATM   24  C15 UNL     1      27.418  -1.267  52.969  1.00  0.00     0.013 A 
ENDBRANCH   9  19
TORSDOF 3
ENDMDL
MODEL 4
REMARK VINA RESULT:      -8.4      2.318      5.107
REMARK  3 active torsions:
REMARK  status: ('A' for Active; 'I' for Inactive)
REMARK    1  A    between atoms: C9_9  and  C10_10 
REMARK    2  A    between atoms: N2_17  and  C16_18 
REMARK    3  A    between atoms: C17_20  and  O1_21 
ROOT
HETATM    1  C1  UNL     1      22.112  -0.226  54.469  1.00  0.00     0.043 C 
HETATM    2  C2  UNL     1      22.536   0.572  53.284  1.00  0.00    -0.083 C 
HETATM    3  C3  UNL     1      21.616   0.633  52.340  1.00  0.00     0.002 C 
HETATM    4  C4  UNL     1      21.574   1.285  51.027  1.00  0.00    -0.002 C 
HETATM    5  C5  UNL     1      22.667   1.773  50.424  1.00  0.00     0.001 C 
HETATM    6  C6  UNL     1      24.071   1.857  50.735  1.00  0.00     0.145 C 
HETATM    7  C7  UNL     1      24.553   0.982  51.858  1.00  0.00     0.073 C 
HETATM    8  C8  UNL     1      23.833   1.231  53.156  1.00  0.00     0.047 C 
HETATM    9  C9  UNL     1      25.903   1.627  52.070  1.00  0.00     0.072 C 
HETATM   10  N1  UNL     1      25.855   2.840  51.616  1.00  0.00    -0.173 NA
HETATM   11  N2  UNL     1      24.600   3.128  51.099  1.00  0.00    -0.237 N 
ENDROOT
BRANCH  11  12
HETATM   12  C16 UNL     1      24.092   4.453  51.015  1.00  0.00     0.192 A 
HETATM   13  N3  UNL     1      23.062   5.098  51.407  1.00  0.00    -0.198 NA
HETATM   14  C17 UNL     1      23.000   6.394  51.083  1.00  0.00     0.171 A 
HETATM   15  C18 UNL     1      24.002   7.064  50.344  1.00  0.00     0.111 A 
HETATM   16  S1  UNL     1      25.165   5.681  50.082  1.00  0.00    -0.058 SA
BRANCH  14  17
HETATM   17  O1  UNL     1      21.812   6.969  51.583  1.00  0.00    -0.344 OA
HETATM   18  H16 UNL     1      21.671   7.944  51.333  1.00  0.00     0.219 HD
ENDBRANCH  14  17
ENDBRANCH  11  12
BRANCH   9  19
HETATM   19  C10 UNL     1      27.011   0.914  52.691  1.00  0.00    -0.009 A 
HETATM   20  C11 UNL     1      27.993   1.542  53.444  1.00  0.00     0.013 A 
HETATM   21  C12 UNL     1      29.024   0.820  54.013  1.00  0.00     0.001 A 
HETATM   22  C13 UNL     1      29.090  -0.547  53.836  1.00  0.00     0.000 A 
HETATM   23  C14 UNL     1      28.102  -1.156  53.083  1.00  0.00     0.001 A 
HETATM   24  C15 UNL     1      27.052  -0.462  52.498  1.00  0.00     0.013 A 
ENDBRANCH   9  19
TORSDOF 3
ENDMDL
MODEL 5
REMARK VINA RESULT:      -8.3      3.133      5.722
REMARK  3 active torsions:
REMARK  status: ('A' for Active; 'I' for Inactive)
REMARK    1  A    between atoms: C9_9  and  C10_10 
REMARK    2  A    between atoms: N2_17  and  C16_18 
REMARK    3  A    between atoms: C17_20  and  O1_21 
ROOT
HETATM    1  C1  UNL     1      27.687   4.647  48.662  1.00  0.00     0.043 C 
HETATM    2  C2  UNL     1      26.446   4.357  49.433  1.00  0.00    -0.083 C 
HETATM    3  C3  UNL     1      25.616   5.383  49.491  1.00  0.00     0.002 C 
HETATM    4  C4  UNL     1      24.304   5.572  50.119  1.00  0.00    -0.002 C 
HETATM    5  C5  UNL     1      23.801   4.718  51.022  1.00  0.00     0.001 C 
HETATM    6  C6  UNL     1      24.237   3.493  51.642  1.00  0.00     0.145 C 
HETATM    7  C7  UNL     1      25.696   3.163  51.503  1.00  0.00     0.073 C 
HETATM    8  C8  UNL     1      26.151   3.076  50.071  1.00  0.00     0.047 C 
HETATM    9  C9  UNL     1      25.634   1.720  51.944  1.00  0.00     0.072 C 
HETATM   10  N1  UNL     1      24.426   1.286  51.763  1.00  0.00    -0.173 NA
HETATM   11  N2  UNL     1      23.616   2.280  51.233  1.00  0.00    -0.237 N 
ENDROOT
BRANCH  11  12
HETATM   12  C16 UNL     1      22.451   1.992  50.470  1.00  0.00     0.192 A 
HETATM   13  N3  UNL     1      21.988   2.263  49.312  1.00  0.00    -0.198 NA
HETATM   14  C17 UNL     1      20.790   1.754  49.004  1.00  0.00     0.171 A 
HETATM   15  C18 UNL     1      20.034   0.947  49.885  1.00  0.00     0.111 A 
HETATM   16  S1  UNL     1      21.166   0.915  51.318  1.00  0.00    -0.058 SA
BRANCH  14  17
HETATM   17  O1  UNL     1      20.413   2.137  47.699  1.00  0.00    -0.344 OA
HETATM   18  H16 UNL     1      19.698   1.555  47.273  1.00  0.00     0.219 HD
ENDBRANCH  14  17
ENDBRANCH  11  12
BRANCH   9  19
HETATM   19  C10 UNL     1      26.799   1.023  52.474  1.00  0.00    -0.009 A 
HETATM   20  C11 UNL     1      27.898   1.678  53.011  1.00  0.00     0.013 A 
HETATM   21  C12 UNL     1      28.979   0.970  53.500  1.00  0.00     0.001 A 
HETATM   22  C13 UNL     1      28.977  -0.409  53.460  1.00  0.00     0.000 A 
HETATM   23  C14 UNL     1      27.872  -1.046  52.922  1.00  0.00     0.001 A 
HETATM   24  C15 UNL     1      26.769  -0.366  52.422  1.00  0.00     0.013 A 
ENDBRANCH   9  19
TORSDOF 3
ENDMDL
MODEL 6
REMARK VINA RESULT:      -7.8      3.685      6.992
REMARK  3 active torsions:
REMARK  status: ('A' for Active; 'I' for Inactive)
REMARK    1  A    between atoms: C9_9  and  C10_10 
REMARK    2  A    between atoms: N2_17  and  C16_18 
REMARK    3  A    between atoms: C17_20  and  O1_21 
ROOT
HETATM    1  C1  UNL     1      25.584   2.442  53.849  1.00  0.00     0.043 C 
HETATM    2  C2  UNL     1      24.584   2.363  52.747  1.00  0.00    -0.083 C 
HETATM    3  C3  UNL     1      23.864   1.257  52.773  1.00  0.00     0.002 C 
HETATM    4  C4  UNL     1      22.787   0.746  51.919  1.00  0.00    -0.002 C 
HETATM    5  C5  UNL     1      22.498   1.273  50.721  1.00  0.00     0.001 C 
HETATM    6  C6  UNL     1      23.012   2.348  49.912  1.00  0.00     0.145 C 
HETATM    7  C7  UNL     1      24.356   2.891  50.309  1.00  0.00     0.073 C 
HETATM    8  C8  UNL     1      24.398   3.393  51.727  1.00  0.00     0.047 C 
HETATM    9  C9  UNL     1      24.330   4.156  49.484  1.00  0.00     0.072 C 
HETATM   10  N1  UNL     1      23.095   4.460  49.235  1.00  0.00    -0.173 NA
HETATM   11  N2  UNL     1      22.232   3.534  49.804  1.00  0.00    -0.237 N 
ENDROOT
BRANCH  11  12
HETATM   12  C16 UNL     1      20.889   3.849  50.146  1.00  0.00     0.192 A 
HETATM   13  N3  UNL     1      20.062   3.580  51.081  1.00  0.00    -0.198 NA
HETATM   14  C17 UNL     1      18.844   4.122  50.988  1.00  0.00     0.171 A 
HETATM   15  C18 UNL     1      18.441   4.961  49.923  1.00  0.00     0.111 A 
HETATM   16  S1  UNL     1      19.983   4.974  48.944  1.00  0.00    -0.058 SA
BRANCH  14  17
HETATM   17  O1  UNL     1      18.048   3.736  52.088  1.00  0.00    -0.344 OA
HETATM   18  H16 UNL     1      17.078   4.036  52.040  1.00  0.00     0.219 HD
ENDBRANCH  14  17
ENDBRANCH  11  12
BRANCH   9  19
HETATM   19  C10 UNL     1      25.551   4.844  49.086  1.00  0.00    -0.009 A 
HETATM   20  C11 UNL     1      26.796   4.230  49.060  1.00  0.00     0.013 A 
HETATM   21  C12 UNL     1      27.925   4.928  48.674  1.00  0.00     0.001 A 
HETATM   22  C13 UNL     1      27.826   6.254  48.307  1.00  0.00     0.000 A 
HETATM   23  C14 UNL     1      26.576   6.849  48.339  1.00  0.00     0.001 A 
HETATM   24  C15 UNL     1      25.422   6.179  48.720  1.00  0.00     0.013 A 
ENDBRANCH   9  19
TORSDOF 3
ENDMDL
MODEL 7
REMARK VINA RESULT:      -7.5      3.025      5.066
REMARK  3 active torsions:
REMARK  status: ('A' for Active; 'I' for Inactive)
REMARK    1  A    between atoms: C9_9  and  C10_10 
REMARK    2  A    between atoms: N2_17  and  C16_18 
REMARK    3  A    between atoms: C17_20  and  O1_21 
ROOT
HETATM    1  C1  UNL     1      18.489   2.126  49.237  1.00  0.00     0.043 C 
HETATM    2  C2  UNL     1      19.949   2.420  49.288  1.00  0.00    -0.083 C 
HETATM    3  C3  UNL     1      20.459   2.736  48.112  1.00  0.00     0.002 C 
HETATM    4  C4  UNL     1      21.812   3.096  47.675  1.00  0.00    -0.002 C 
HETATM    5  C5  UNL     1      22.896   2.911  48.441  1.00  0.00     0.001 C 
HETATM    6  C6  UNL     1      23.156   2.388  49.758  1.00  0.00     0.145 C 
HETATM    7  C7  UNL     1      22.044   1.597  50.387  1.00  0.00     0.073 C 
HETATM    8  C8  UNL     1      20.758   2.370  50.504  1.00  0.00     0.047 C 
HETATM    9  C9  UNL     1      22.573   1.569  51.802  1.00  0.00     0.072 C 
HETATM   10  N1  UNL     1      23.384   2.568  51.957  1.00  0.00    -0.173 NA
HETATM   11  N2  UNL     1      23.487   3.311  50.789  1.00  0.00    -0.237 N 
ENDROOT
BRANCH  11  12
HETATM   12  C16 UNL     1      23.856   4.683  50.785  1.00  0.00     0.192 A 
HETATM   13  N3  UNL     1      24.929   5.375  50.775  1.00  0.00    -0.198 NA
HETATM   14  C17 UNL     1      24.793   6.705  50.776  1.00  0.00     0.171 A 
HETATM   15  C18 UNL     1      23.541   7.362  50.788  1.00  0.00     0.111 A 
HETATM   16  S1  UNL     1      22.433   5.910  50.799  1.00  0.00    -0.058 SA
BRANCH  14  17
HETATM   17  O1  UNL     1      26.058   7.330  50.763  1.00  0.00    -0.344 OA
HETATM   18  H16 UNL     1      26.195   8.033  51.483  1.00  0.00     0.219 HD
ENDBRANCH  14  17
ENDBRANCH  11  12
BRANCH   9  19
HETATM   19  C10 UNL     1      22.173   0.544  52.756  1.00  0.00    -0.009 A 
HETATM   20  C11 UNL     1      20.862   0.116  52.908  1.00  0.00     0.013 A 
HETATM   21  C12 UNL     1      20.535  -0.861  53.829  1.00  0.00     0.001 A 
HETATM   22  C13 UNL     1      21.518  -1.427  54.615  1.00  0.00     0.000 A 
HETATM   23  C14 UNL     1      22.820  -0.988  54.449  1.00  0.00     0.001 A 
HETATM   24  C15 UNL     1      23.184  -0.009  53.534  1.00  0.00     0.013 A 
ENDBRANCH   9  19
TORSDOF 3
ENDMDL
MODEL 8
REMARK VINA RESULT:      -7.3      3.344      5.557
REMARK  3 active torsions:
REMARK  status: ('A' for Active; 'I' for Inactive)
REMARK    1  A    between atoms: C9_9  and  C10_10 
REMARK    2  A    between atoms: N2_17  and  C16_18 
REMARK    3  A    between atoms: C17_20  and  O1_21 
ROOT
HETATM    1  C1  UNL     1      26.962   4.215  49.087  1.00  0.00     0.043 C 
HETATM    2  C2  UNL     1      25.597   4.382  49.664  1.00  0.00    -0.083 C 
HETATM    3  C3  UNL     1      25.099   5.591  49.483  1.00  0.00     0.002 C 
HETATM    4  C4  UNL     1      23.825   6.212  49.861  1.00  0.00    -0.002 C 
HETATM    5  C5  UNL     1      22.981   5.660  50.744  1.00  0.00     0.001 C 
HETATM    6  C6  UNL     1      22.958   4.462  51.543  1.00  0.00     0.145 C 
HETATM    7  C7  UNL     1      24.265   3.734  51.683  1.00  0.00     0.073 C 
HETATM    8  C8  UNL     1      24.863   3.329  50.362  1.00  0.00     0.047 C 
HETATM    9  C9  UNL     1      23.731   2.437  52.243  1.00  0.00     0.072 C 
HETATM   10  N1  UNL     1      22.485   2.324  51.904  1.00  0.00    -0.173 NA
HETATM   11  N2  UNL     1      22.074   3.416  51.153  1.00  0.00    -0.237 N 
ENDROOT
BRANCH  11  12
HETATM   12  C16 UNL     1      20.989   3.351  50.237  1.00  0.00     0.192 A 
HETATM   13  N3  UNL     1      20.780   2.944  49.045  1.00  0.00    -0.198 NA
HETATM   14  C17 UNL     1      19.542   3.090  48.563  1.00  0.00     0.171 A 
HETATM   15  C18 UNL     1      18.479   3.661  49.300  1.00  0.00     0.111 A 
HETATM   16  S1  UNL     1      19.353   4.033  50.860  1.00  0.00    -0.058 SA
BRANCH  14  17
HETATM   17  O1  UNL     1      19.466   2.596  47.243  1.00  0.00    -0.344 OA
HETATM   18  H16 UNL     1      19.081   1.659  47.159  1.00  0.00     0.219 HD
ENDBRANCH  14  17
ENDBRANCH  11  12
BRANCH   9  19
HETATM   19  C10 UNL     1      24.563   1.532  53.025  1.00  0.00    -0.009 A 
HETATM   20  C11 UNL     1      24.253   0.194  53.223  1.00  0.00     0.013 A 
HETATM   21  C12 UNL     1      25.076  -0.624  53.974  1.00  0.00     0.001 A 
HETATM   22  C13 UNL     1      26.226  -0.113  54.540  1.00  0.00     0.000 A 
HETATM   23  C14 UNL     1      26.519   1.223  54.332  1.00  0.00     0.001 A 
HETATM   24  C15 UNL     1      25.716   2.072  53.583  1.00  0.00     0.013 A 
ENDBRANCH   9  19
TORSDOF 3
ENDMDL
MODEL 9
REMARK VINA RESULT:      -7.2      3.829      5.595
REMARK  3 active torsions:
REMARK  status: ('A' for Active; 'I' for Inactive)
REMARK    1  A    between atoms: C9_9  and  C10_10 
REMARK    2  A    between atoms: N2_17  and  C16_18 
REMARK    3  A    between atoms: C17_20  and  O1_21 
ROOT
HETATM    1  C1  UNL     1      26.960   4.148  49.170  1.00  0.00     0.043 C 
HETATM    2  C2  UNL     1      25.720   4.756  49.732  1.00  0.00    -0.083 C 
HETATM    3  C3  UNL     1      25.777   6.072  49.818  1.00  0.00     0.002 C 
HETATM    4  C4  UNL     1      24.827   7.083  50.293  1.00  0.00    -0.002 C 
HETATM    5  C5  UNL     1      23.733   6.775  51.004  1.00  0.00     0.001 C 
HETATM    6  C6  UNL     1      23.134   5.567  51.509  1.00  0.00     0.145 C 
HETATM    7  C7  UNL     1      24.009   4.346  51.515  1.00  0.00     0.073 C 
HETATM    8  C8  UNL     1      24.547   3.994  50.153  1.00  0.00     0.047 C 
HETATM    9  C9  UNL     1      22.935   3.310  51.751  1.00  0.00     0.072 C 
HETATM   10  N1  UNL     1      21.799   3.800  51.362  1.00  0.00    -0.173 NA
HETATM   11  N2  UNL     1      21.957   5.087  50.868  1.00  0.00    -0.237 N 
ENDROOT
BRANCH  11  12
HETATM   12  C16 UNL     1      21.055   5.663  49.933  1.00  0.00     0.192 A 
HETATM   13  N3  UNL     1      20.175   6.588  49.912  1.00  0.00    -0.198 NA
HETATM   14  C17 UNL     1      19.537   6.792  48.755  1.00  0.00     0.171 A 
HETATM   15  C18 UNL     1      19.791   6.047  47.581  1.00  0.00     0.111 A 
HETATM   16  S1  UNL     1      21.089   4.925  48.205  1.00  0.00    -0.058 SA
BRANCH  14  17
HETATM   17  O1  UNL     1      18.601   7.840  48.887  1.00  0.00    -0.344 OA
HETATM   18  H16 UNL     1      18.516   8.222  49.825  1.00  0.00     0.219 HD
ENDBRANCH  14  17
ENDBRANCH  11  12
BRANCH   9  19
HETATM   19  C10 UNL     1      23.232   2.006  52.329  1.00  0.00    -0.009 A 
HETATM   20  C11 UNL     1      22.316   0.964  52.365  1.00  0.00     0.013 A 
HETATM   21  C12 UNL     1      22.647  -0.255  52.925  1.00  0.00     0.001 A 
HETATM   22  C13 UNL     1      23.904  -0.451  53.459  1.00  0.00     0.000 A 
HETATM   23  C14 UNL     1      24.804   0.599  53.414  1.00  0.00     0.001 A 
HETATM   24  C15 UNL     1      24.506   1.836  52.859  1.00  0.00     0.013 A 
ENDBRANCH   9  19
TORSDOF 3
ENDMDL
