MODEL 1
REMARK VINA RESULT:      -7.8      0.000      0.000
REMARK  3 active torsions:
REMARK  status: ('A' for Active; 'I' for Inactive)
REMARK    1  A    between atoms: C2_2  and  C3_3 
REMARK    2  A    between atoms: C8_11  and  N3_12 
REMARK    3  A    between atoms: N3_12  and  C9_13 
ROOT
HETATM    1  C3  UNL     1      21.250   0.690  50.947  1.00  0.00     0.210 A 
HETATM    2  C4  UNL     1      20.273   0.699  51.936  1.00  0.00     0.219 A 
HETATM    3  C5  UNL     1      19.216   0.048  52.708  1.00  0.00     0.222 C 
HETATM    4  O1  UNL     1      19.908  -0.721  53.798  1.00  0.00    -0.330 OA
HETATM    5  C6  UNL     1      21.358  -0.636  53.922  1.00  0.00     0.205 A 
HETATM    6  N1  UNL     1      21.608  -1.506  54.972  1.00  0.00    -0.216 NA
HETATM    7  C7  UNL     1      22.898  -1.632  55.318  1.00  0.00     0.238 A 
HETATM    8  N2  UNL     1      23.927  -0.997  54.738  1.00  0.00    -0.222 NA
HETATM    9  C8  UNL     1      23.790  -0.145  53.726  1.00  0.00     0.169 A 
HETATM   10  C15 UNL     1      22.534   0.022  53.336  1.00  0.00     0.237 A 
HETATM   11  N4  UNL     1      21.834   0.762  52.362  1.00  0.00     0.003 N 
HETATM   12  C16 UNL     1      20.972   2.013  52.363  1.00  0.00     0.292 A 
ENDROOT
BRANCH   9  13
HETATM   13  N3  UNL     1      24.566   0.665  52.901  1.00  0.00    -0.339 N 
HETATM   14  H9  UNL     1      24.266   1.219  52.069  1.00  0.00     0.167 HD
BRANCH  13  15
HETATM   15  C9  UNL     1      25.949   0.845  53.109  1.00  0.00     0.035 A 
HETATM   16  C10 UNL     1      26.459   2.085  53.313  1.00  0.00     0.029 A 
HETATM   17  C11 UNL     1      27.803   2.304  53.520  1.00  0.00     0.004 A 
HETATM   18  C12 UNL     1      28.680   1.229  53.523  1.00  0.00     0.019 A 
HETATM   19  C13 UNL     1      28.230  -0.042  53.325  1.00  0.00     0.013 A 
HETATM   20 BR1  UNL     1      29.369  -1.557  53.315  1.00  0.00    -0.051 Br
HETATM   21  C14 UNL     1      26.883  -0.169  53.126  1.00  0.00     0.048 A 
ENDBRANCH  13  15
ENDBRANCH   9  13
BRANCH   1  22
HETATM   22  C2  UNL     1      21.537   0.584  49.448  1.00  0.00     0.041 C 
HETATM   23  C1  UNL     1      22.042   1.854  48.889  1.00  0.00     0.007 C 
ENDBRANCH   1  22
TORSDOF 3
ENDMDL
MODEL 2
REMARK VINA RESULT:      -7.8      3.672      5.143
REMARK  3 active torsions:
REMARK  status: ('A' for Active; 'I' for Inactive)
REMARK    1  A    between atoms: C2_2  and  C3_3 
REMARK    2  A    between atoms: C8_11  and  N3_12 
REMARK    3  A    between atoms: N3_12  and  C9_13 
ROOT
HETATM    1  C3  UNL     1      26.205   5.059  49.160  1.00  0.00     0.210 A 
HETATM    2  C4  UNL     1      24.879   5.450  49.015  1.00  0.00     0.219 A 
HETATM    3  C5  UNL     1      23.587   5.393  48.333  1.00  0.00     0.222 C 
HETATM    4  O1  UNL     1      22.874   4.193  48.889  1.00  0.00    -0.330 OA
HETATM    5  C6  UNL     1      23.503   3.416  49.950  1.00  0.00     0.205 A 
HETATM    6  N1  UNL     1      22.587   2.394  50.140  1.00  0.00    -0.216 NA
HETATM    7  C7  UNL     1      22.912   1.499  51.086  1.00  0.00     0.238 A 
HETATM    8  N2  UNL     1      24.025   1.527  51.834  1.00  0.00    -0.222 NA
HETATM    9  C8  UNL     1      24.961   2.465  51.728  1.00  0.00     0.169 A 
HETATM   10  C15 UNL     1      24.697   3.380  50.806  1.00  0.00     0.237 A 
HETATM   11  N4  UNL     1      25.303   4.541  50.285  1.00  0.00     0.003 N 
HETATM   12  C16 UNL     1      25.084   6.038  50.432  1.00  0.00     0.292 A 
ENDROOT
BRANCH   9  13
HETATM   13  N3  UNL     1      26.185   2.818  52.290  1.00  0.00    -0.339 N 
HETATM   14  H9  UNL     1      26.588   3.772  52.417  1.00  0.00     0.167 HD
BRANCH  13  15
HETATM   15  C9  UNL     1      27.089   1.858  52.789  1.00  0.00     0.035 A 
HETATM   16  C10 UNL     1      28.161   2.240  53.527  1.00  0.00     0.029 A 
HETATM   17  C11 UNL     1      29.067   1.334  54.033  1.00  0.00     0.004 A 
HETATM   18  C12 UNL     1      28.893  -0.020  53.788  1.00  0.00     0.019 A 
HETATM   19  C13 UNL     1      27.835  -0.468  53.055  1.00  0.00     0.013 A 
HETATM   20 BR1  UNL     1      27.533  -2.301  52.681  1.00  0.00    -0.051 Br
HETATM   21  C14 UNL     1      26.985   0.498  52.590  1.00  0.00     0.048 A 
ENDBRANCH  13  15
ENDBRANCH   9  13
BRANCH   1  22
HETATM   22  C2  UNL     1      27.606   5.069  48.545  1.00  0.00     0.041 C 
HETATM   23  C1  UNL     1      28.018   6.425  48.129  1.00  0.00     0.007 C 
ENDBRANCH   1  22
TORSDOF 3
ENDMDL
MODEL 3
REMARK VINA RESULT:      -7.7      2.647      4.777
REMARK  3 active torsions:
REMARK  status: ('A' for Active; 'I' for Inactive)
REMARK    1  A    between atoms: C2_2  and  C3_3 
REMARK    2  A    between atoms: C8_11  and  N3_12 
REMARK    3  A    between atoms: N3_12  and  C9_13 
ROOT
HETATM    1  C3  UNL     1      25.523   0.800  53.804  1.00  0.00     0.210 A 
HETATM    2  C4  UNL     1      25.414  -0.410  54.480  1.00  0.00     0.219 A 
HETATM    3  C5  UNL     1      25.098  -1.195  55.673  1.00  0.00     0.222 C 
HETATM    4  O1  UNL     1      23.609  -1.394  55.658  1.00  0.00    -0.330 OA
HETATM    5  C6  UNL     1      22.829  -0.881  54.538  1.00  0.00     0.205 A 
HETATM    6  N1  UNL     1      21.535  -1.203  54.916  1.00  0.00    -0.216 NA
HETATM    7  C7  UNL     1      20.577  -0.841  54.050  1.00  0.00     0.238 A 
HETATM    8  N2  UNL     1      20.779  -0.211  52.883  1.00  0.00    -0.222 NA
HETATM    9  C8  UNL     1      21.980   0.140  52.434  1.00  0.00     0.169 A 
HETATM   10  C15 UNL     1      22.972  -0.191  53.248  1.00  0.00     0.237 A 
HETATM   11  N4  UNL     1      24.376  -0.072  53.285  1.00  0.00     0.003 N 
HETATM   12  C16 UNL     1      25.550  -1.011  53.060  1.00  0.00     0.292 A 
ENDROOT
BRANCH   9  13
HETATM   13  N3  UNL     1      22.567   0.770  51.339  1.00  0.00    -0.339 N 
HETATM   14  H9  UNL     1      22.749   0.381  50.388  1.00  0.00     0.167 HD
BRANCH  13  15
HETATM   15  C9  UNL     1      23.016   2.105  51.393  1.00  0.00     0.035 A 
HETATM   16  C10 UNL     1      22.400   3.008  52.197  1.00  0.00     0.029 A 
HETATM   17  C11 UNL     1      22.808   4.321  52.278  1.00  0.00     0.004 A 
HETATM   18  C12 UNL     1      23.884   4.754  51.517  1.00  0.00     0.019 A 
HETATM   19  C13 UNL     1      24.544   3.896  50.689  1.00  0.00     0.013 A 
HETATM   20 BR1  UNL     1      26.020   4.416  49.620  1.00  0.00    -0.051 Br
HETATM   21  C14 UNL     1      24.074   2.612  50.669  1.00  0.00     0.048 A 
ENDBRANCH  13  15
ENDBRANCH   9  13
BRANCH   1  22
HETATM   22  C2  UNL     1      26.253   2.142  53.714  1.00  0.00     0.041 C 
HETATM   23  C1  UNL     1      27.268   2.149  52.642  1.00  0.00     0.007 C 
ENDBRANCH   1  22
TORSDOF 3
ENDMDL
MODEL 4
REMARK VINA RESULT:      -7.7      2.966      5.689
REMARK  3 active torsions:
REMARK  status: ('A' for Active; 'I' for Inactive)
REMARK    1  A    between atoms: C2_2  and  C3_3 
REMARK    2  A    between atoms: C8_11  and  N3_12 
REMARK    3  A    between atoms: N3_12  and  C9_13 
ROOT
HETATM    1  C3  UNL     1      26.423   1.452  52.299  1.00  0.00     0.210 A 
HETATM    2  C4  UNL     1      27.226   0.492  52.904  1.00  0.00     0.219 A 
HETATM    3  C5  UNL     1      28.041   0.010  54.018  1.00  0.00     0.222 C 
HETATM    4  O1  UNL     1      27.080  -0.575  55.014  1.00  0.00    -0.330 OA
HETATM    5  C6  UNL     1      25.658  -0.617  54.697  1.00  0.00     0.205 A 
HETATM    6  N1  UNL     1      25.120  -1.156  55.856  1.00  0.00    -0.216 NA
HETATM    7  C7  UNL     1      23.788  -1.315  55.850  1.00  0.00     0.238 A 
HETATM    8  N2  UNL     1      22.970  -1.000  54.836  1.00  0.00    -0.222 NA
HETATM    9  C8  UNL     1      23.388  -0.480  53.686  1.00  0.00     0.169 A 
HETATM   10  C15 UNL     1      24.700  -0.297  53.630  1.00  0.00     0.237 A 
HETATM   11  N4  UNL     1      25.646   0.198  52.710  1.00  0.00     0.003 N 
HETATM   12  C16 UNL     1      26.676  -0.418  51.777  1.00  0.00     0.292 A 
ENDROOT
BRANCH   9  13
HETATM   13  N3  UNL     1      22.880  -0.041  52.466  1.00  0.00    -0.339 N 
HETATM   14  H9  UNL     1      22.954  -0.499  51.531  1.00  0.00     0.167 HD
BRANCH  13  15
HETATM   15  C9  UNL     1      22.151   1.158  52.343  1.00  0.00     0.035 A 
HETATM   16  C10 UNL     1      20.802   1.164  52.492  1.00  0.00     0.029 A 
HETATM   17  C11 UNL     1      20.053   2.314  52.380  1.00  0.00     0.004 A 
HETATM   18  C12 UNL     1      20.683   3.519  52.103  1.00  0.00     0.019 A 
HETATM   19  C13 UNL     1      22.035   3.580  51.942  1.00  0.00     0.013 A 
HETATM   20 BR1  UNL     1      22.963   5.188  51.564  1.00  0.00    -0.051 Br
HETATM   21  C14 UNL     1      22.701   2.392  52.070  1.00  0.00     0.048 A 
ENDBRANCH  13  15
ENDBRANCH   9  13
BRANCH   1  22
HETATM   22  C2  UNL     1      26.358   2.862  51.706  1.00  0.00     0.041 C 
HETATM   23  C1  UNL     1      26.324   2.842  50.230  1.00  0.00     0.007 C 
ENDBRANCH   1  22
TORSDOF 3
ENDMDL
MODEL 5
REMARK VINA RESULT:      -7.7      4.081      5.115
REMARK  3 active torsions:
REMARK  status: ('A' for Active; 'I' for Inactive)
REMARK    1  A    between atoms: C2_2  and  C3_3 
REMARK    2  A    between atoms: C8_11  and  N3_12 
REMARK    3  A    between atoms: N3_12  and  C9_13 
ROOT
HETATM    1  C3  UNL     1      22.262   1.371  50.661  1.00  0.00     0.210 A 
HETATM    2  C4  UNL     1      22.325   1.254  52.045  1.00  0.00     0.219 A 
HETATM    3  C5  UNL     1      22.581   0.485  53.262  1.00  0.00     0.222 C 
HETATM    4  O1  UNL     1      24.066   0.538  53.484  1.00  0.00    -0.330 OA
HETATM    5  C6  UNL     1      24.897   1.323  52.578  1.00  0.00     0.205 A 
HETATM    6  N1  UNL     1      26.170   1.076  53.067  1.00  0.00    -0.216 NA
HETATM    7  C7  UNL     1      27.167   1.687  52.409  1.00  0.00     0.238 A 
HETATM    8  N2  UNL     1      27.021   2.493  51.347  1.00  0.00    -0.222 NA
HETATM    9  C8  UNL     1      25.844   2.791  50.806  1.00  0.00     0.169 A 
HETATM   10  C15 UNL     1      24.816   2.215  51.413  1.00  0.00     0.237 A 
HETATM   11  N4  UNL     1      23.414   2.172  51.276  1.00  0.00     0.003 N 
HETATM   12  C16 UNL     1      22.234   2.799  52.001  1.00  0.00     0.292 A 
ENDROOT
BRANCH   9  13
HETATM   13  N3  UNL     1      25.310   3.542  49.761  1.00  0.00    -0.339 N 
HETATM   14  H9  UNL     1      24.397   3.414  49.272  1.00  0.00     0.167 HD
BRANCH  13  15
HETATM   15  C9  UNL     1      25.990   4.643  49.203  1.00  0.00     0.035 A 
HETATM   16  C10 UNL     1      25.323   5.788  48.910  1.00  0.00     0.029 A 
HETATM   17  C11 UNL     1      25.950   6.886  48.364  1.00  0.00     0.004 A 
HETATM   18  C12 UNL     1      27.310   6.837  48.097  1.00  0.00     0.019 A 
HETATM   19  C13 UNL     1      28.036   5.717  48.368  1.00  0.00     0.013 A 
HETATM   20 BR1  UNL     1      29.895   5.578  48.030  1.00  0.00    -0.051 Br
HETATM   21  C14 UNL     1      27.336   4.673  48.909  1.00  0.00     0.048 A 
ENDBRANCH  13  15
ENDBRANCH   9  13
BRANCH   1  22
HETATM   22  C2  UNL     1      21.558   0.918  49.380  1.00  0.00     0.041 C 
HETATM   23  C1  UNL     1      21.970   1.717  48.209  1.00  0.00     0.007 C 
ENDBRANCH   1  22
TORSDOF 3
ENDMDL
MODEL 6
REMARK VINA RESULT:      -7.6      2.743      4.210
REMARK  3 active torsions:
REMARK  status: ('A' for Active; 'I' for Inactive)
REMARK    1  A    between atoms: C2_2  and  C3_3 
REMARK    2  A    between atoms: C8_11  and  N3_12 
REMARK    3  A    between atoms: N3_12  and  C9_13 
ROOT
HETATM    1  C3  UNL     1      24.945   3.400  49.827  1.00  0.00     0.210 A 
HETATM    2  C4  UNL     1      23.774   3.787  49.186  1.00  0.00     0.219 A 
HETATM    3  C5  UNL     1      22.780   3.646  48.123  1.00  0.00     0.222 C 
HETATM    4  O1  UNL     1      21.839   2.564  48.574  1.00  0.00    -0.330 OA
HETATM    5  C6  UNL     1      22.024   1.957  49.886  1.00  0.00     0.205 A 
HETATM    6  N1  UNL     1      21.026   0.995  49.901  1.00  0.00    -0.216 NA
HETATM    7  C7  UNL     1      20.955   0.259  51.021  1.00  0.00     0.238 A 
HETATM    8  N2  UNL     1      21.756   0.386  52.089  1.00  0.00    -0.222 NA
HETATM    9  C8  UNL     1      22.739   1.277  52.171  1.00  0.00     0.169 A 
HETATM   10  C15 UNL     1      22.862   2.037  51.091  1.00  0.00     0.237 A 
HETATM   11  N4  UNL     1      23.687   3.087  50.643  1.00  0.00     0.003 N 
HETATM   12  C16 UNL     1      23.540   4.592  50.488  1.00  0.00     0.292 A 
ENDROOT
BRANCH   9  13
HETATM   13  N3  UNL     1      23.731   1.693  53.056  1.00  0.00    -0.339 N 
HETATM   14  H9  UNL     1      23.681   2.446  53.777  1.00  0.00     0.167 HD
BRANCH  13  15
HETATM   15  C9  UNL     1      25.010   1.103  53.084  1.00  0.00     0.035 A 
HETATM   16  C10 UNL     1      25.161  -0.225  52.850  1.00  0.00     0.029 A 
HETATM   17  C11 UNL     1      26.393  -0.841  52.869  1.00  0.00     0.004 A 
HETATM   18  C12 UNL     1      27.530  -0.092  53.134  1.00  0.00     0.019 A 
HETATM   19  C13 UNL     1      27.445   1.246  53.377  1.00  0.00     0.013 A 
HETATM   20 BR1  UNL     1      28.954   2.332  53.747  1.00  0.00    -0.051 Br
HETATM   21  C14 UNL     1      26.185   1.777  53.340  1.00  0.00     0.048 A 
ENDBRANCH  13  15
ENDBRANCH   9  13
BRANCH   1  22
HETATM   22  C2  UNL     1      26.469   3.285  49.727  1.00  0.00     0.041 C 
HETATM   23  C1  UNL     1      27.069   4.452  49.050  1.00  0.00     0.007 C 
ENDBRANCH   1  22
TORSDOF 3
ENDMDL
MODEL 7
REMARK VINA RESULT:      -7.5      4.178      5.928
REMARK  3 active torsions:
REMARK  status: ('A' for Active; 'I' for Inactive)
REMARK    1  A    between atoms: C2_2  and  C3_3 
REMARK    2  A    between atoms: C8_11  and  N3_12 
REMARK    3  A    between atoms: N3_12  and  C9_13 
ROOT
HETATM    1  C3  UNL     1      25.653   5.130  49.576  1.00  0.00     0.210 A 
HETATM    2  C4  UNL     1      24.827   6.172  49.171  1.00  0.00     0.219 A 
HETATM    3  C5  UNL     1      23.797   6.735  48.298  1.00  0.00     0.222 C 
HETATM    4  O1  UNL     1      22.480   6.289  48.867  1.00  0.00    -0.330 OA
HETATM    5  C6  UNL     1      22.459   5.512  50.100  1.00  0.00     0.205 A 
HETATM    6  N1  UNL     1      21.106   5.254  50.256  1.00  0.00    -0.216 NA
HETATM    7  C7  UNL     1      20.780   4.535  51.340  1.00  0.00     0.238 A 
HETATM    8  N2  UNL     1      21.643   4.064  52.252  1.00  0.00    -0.222 NA
HETATM    9  C8  UNL     1      22.957   4.258  52.191  1.00  0.00     0.169 A 
HETATM   10  C15 UNL     1      23.344   4.964  51.138  1.00  0.00     0.237 A 
HETATM   11  N4  UNL     1      24.550   5.446  50.591  1.00  0.00     0.003 N 
HETATM   12  C16 UNL     1      25.248   6.794  50.524  1.00  0.00     0.292 A 
ENDROOT
BRANCH   9  13
HETATM   13  N3  UNL     1      24.115   3.948  52.900  1.00  0.00    -0.339 N 
HETATM   14  H9  UNL     1      24.803   4.602  53.335  1.00  0.00     0.167 HD
BRANCH  13  15
HETATM   15  C9  UNL     1      24.522   2.619  53.132  1.00  0.00     0.035 A 
HETATM   16  C10 UNL     1      23.663   1.589  52.925  1.00  0.00     0.029 A 
HETATM   17  C11 UNL     1      24.021   0.277  53.139  1.00  0.00     0.004 A 
HETATM   18  C12 UNL     1      25.301  -0.021  53.583  1.00  0.00     0.019 A 
HETATM   19  C13 UNL     1      26.210   0.967  53.809  1.00  0.00     0.013 A 
HETATM   20 BR1  UNL     1      27.975   0.636  54.415  1.00  0.00    -0.051 Br
HETATM   21  C14 UNL     1      25.772   2.242  53.572  1.00  0.00     0.048 A 
ENDBRANCH  13  15
ENDBRANCH   9  13
BRANCH   1  22
HETATM   22  C2  UNL     1      26.826   4.221  49.201  1.00  0.00     0.041 C 
HETATM   23  C1  UNL     1      27.913   4.966  48.535  1.00  0.00     0.007 C 
ENDBRANCH   1  22
TORSDOF 3
ENDMDL
MODEL 8
REMARK VINA RESULT:      -7.3      4.438      6.325
REMARK  3 active torsions:
REMARK  status: ('A' for Active; 'I' for Inactive)
REMARK    1  A    between atoms: C2_2  and  C3_3 
REMARK    2  A    between atoms: C8_11  and  N3_12 
REMARK    3  A    between atoms: N3_12  and  C9_13 
ROOT
HETATM    1  C3  UNL     1      26.397   5.404  48.940  1.00  0.00     0.210 A 
HETATM    2  C4  UNL     1      25.298   6.226  48.716  1.00  0.00     0.219 A 
HETATM    3  C5  UNL     1      24.243   6.759  47.856  1.00  0.00     0.222 C 
HETATM    4  O1  UNL     1      23.125   5.756  47.897  1.00  0.00    -0.330 OA
HETATM    5  C6  UNL     1      23.249   4.582  48.753  1.00  0.00     0.205 A 
HETATM    6  N1  UNL     1      22.078   3.897  48.473  1.00  0.00    -0.216 NA
HETATM    7  C7  UNL     1      21.915   2.742  49.137  1.00  0.00     0.238 A 
HETATM    8  N2  UNL     1      22.779   2.224  50.023  1.00  0.00    -0.222 NA
HETATM    9  C8  UNL     1      23.927   2.805  50.358  1.00  0.00     0.169 A 
HETATM   10  C15 UNL     1      24.146   3.953  49.733  1.00  0.00     0.237 A 
HETATM   11  N4  UNL     1      25.145   4.947  49.695  1.00  0.00     0.003 N 
HETATM   12  C16 UNL     1      25.301   6.349  50.259  1.00  0.00     0.292 A 
ENDROOT
BRANCH   9  13
HETATM   13  N3  UNL     1      25.027   2.595  51.186  1.00  0.00    -0.339 N 
HETATM   14  H9  UNL     1      25.844   3.223  51.349  1.00  0.00     0.167 HD
BRANCH  13  15
HETATM   15  C9  UNL     1      25.175   1.425  51.957  1.00  0.00     0.035 A 
HETATM   16  C10 UNL     1      26.355   0.756  51.976  1.00  0.00     0.029 A 
HETATM   17  C11 UNL     1      26.541  -0.390  52.716  1.00  0.00     0.004 A 
HETATM   18  C12 UNL     1      25.494  -0.893  53.476  1.00  0.00     0.019 A 
HETATM   19  C13 UNL     1      24.284  -0.268  53.500  1.00  0.00     0.013 A 
HETATM   20 BR1  UNL     1      22.811  -0.896  54.513  1.00  0.00    -0.051 Br
HETATM   21  C14 UNL     1      24.186   0.863  52.736  1.00  0.00     0.048 A 
ENDBRANCH  13  15
ENDBRANCH   9  13
BRANCH   1  22
HETATM   22  C2  UNL     1      27.857   5.113  48.586  1.00  0.00     0.041 C 
HETATM   23  C1  UNL     1      28.562   6.318  48.104  1.00  0.00     0.007 C 
ENDBRANCH   1  22
TORSDOF 3
ENDMDL
MODEL 9
REMARK VINA RESULT:      -7.1      3.052      5.147
REMARK  3 active torsions:
REMARK  status: ('A' for Active; 'I' for Inactive)
REMARK    1  A    between atoms: C2_2  and  C3_3 
REMARK    2  A    between atoms: C8_11  and  N3_12 
REMARK    3  A    between atoms: N3_12  and  C9_13 
ROOT
HETATM    1  C3  UNL     1      17.708  -0.609  52.458  1.00  0.00     0.210 A 
HETATM    2  C4  UNL     1      16.932   0.291  51.736  1.00  0.00     0.219 A 
HETATM    3  C5  UNL     1      16.044   1.449  51.654  1.00  0.00     0.222 C 
HETATM    4  O1  UNL     1      16.934   2.659  51.659  1.00  0.00    -0.330 OA
HETATM    5  C6  UNL     1      18.382   2.482  51.674  1.00  0.00     0.205 A 
HETATM    6  N1  UNL     1      18.831   3.791  51.734  1.00  0.00    -0.216 NA
HETATM    7  C7  UNL     1      20.164   3.940  51.760  1.00  0.00     0.238 A 
HETATM    8  N2  UNL     1      21.060   2.943  51.733  1.00  0.00    -0.222 NA
HETATM    9  C8  UNL     1      20.729   1.656  51.676  1.00  0.00     0.169 A 
HETATM   10  C15 UNL     1      19.421   1.443  51.649  1.00  0.00     0.237 A 
HETATM   11  N4  UNL     1      18.544   0.341  51.595  1.00  0.00     0.003 N 
HETATM   12  C16 UNL     1      17.685  -0.310  50.524  1.00  0.00     0.292 A 
ENDROOT
BRANCH   9  13
HETATM   13  N3  UNL     1      21.330   0.401  51.636  1.00  0.00    -0.339 N 
HETATM   14  H9  UNL     1      21.376  -0.270  50.838  1.00  0.00     0.167 HD
BRANCH  13  15
HETATM   15  C9  UNL     1      21.997  -0.150  52.749  1.00  0.00     0.035 A 
HETATM   16  C10 UNL     1      21.317  -0.882  53.666  1.00  0.00     0.029 A 
HETATM   17  C11 UNL     1      21.930  -1.438  54.767  1.00  0.00     0.004 A 
HETATM   18  C12 UNL     1      23.291  -1.251  54.961  1.00  0.00     0.019 A 
HETATM   19  C13 UNL     1      24.030  -0.526  54.076  1.00  0.00     0.013 A 
HETATM   20 BR1  UNL     1      25.891  -0.229  54.275  1.00  0.00    -0.051 Br
HETATM   21  C14 UNL     1      23.343  -0.010  53.011  1.00  0.00     0.048 A 
ENDBRANCH  13  15
ENDBRANCH   9  13
BRANCH   1  22
HETATM   22  C2  UNL     1      17.712  -1.735  53.495  1.00  0.00     0.041 C 
HETATM   23  C1  UNL     1      16.861  -2.869  53.085  1.00  0.00     0.007 C 
ENDBRANCH   1  22
TORSDOF 3
ENDMDL
