MODEL 1
REMARK VINA RESULT:      -7.8      0.000      0.000
REMARK  5 active torsions:
REMARK  status: ('A' for Active; 'I' for Inactive)
REMARK    1  A    between atoms: C3_3  and  N1_4 
REMARK    2  A    between atoms: C4_5  and  C5_6 
REMARK    3  A    between atoms: C10_12  and  N2_13 
REMARK    4  A    between atoms: N2_13  and  C11_14 
REMARK    5  A    between atoms: C12_17  and  N4_18 
ROOT
HETATM    1  C5  UNL     1      22.368   0.754  53.000  1.00  0.00     0.011 C 
HETATM    2  C6  UNL     1      21.088   0.707  52.692  1.00  0.00     0.071 A 
HETATM    3  C7  UNL     1      20.532  -0.446  53.352  1.00  0.00     0.062 A 
HETATM    4 CL1  UNL     1      21.305  -1.574  54.436  1.00  0.00    -0.082 Cl
HETATM    5  C8  UNL     1      19.251  -0.816  53.206  1.00  0.00     0.030 A 
HETATM    6  C9  UNL     1      18.460   0.029  52.334  1.00  0.00     0.050 A 
HETATM    7  C10 UNL     1      19.003   1.080  51.740  1.00  0.00     0.111 A 
HETATM    8  N3  UNL     1      20.393   1.566  51.841  1.00  0.00    -0.299 N 
HETATM    9  C12 UNL     1      20.567   2.742  51.082  1.00  0.00     0.329 C 
HETATM   10  C13 UNL     1      21.537   2.708  49.955  1.00  0.00     0.051 C 
HETATM   11  C14 UNL     1      22.329   2.632  48.816  1.00  0.00     0.009 C 
HETATM   12  C15 UNL     1      23.744   2.986  49.016  1.00  0.00    -0.006 C 
HETATM   13  C16 UNL     1      24.813   3.337  49.595  1.00  0.00    -0.008 C 
HETATM   14  C17 UNL     1      25.633   3.731  50.684  1.00  0.00     0.146 C 
HETATM   15  N5  UNL     1      24.866   3.721  51.953  1.00  0.00    -0.395 N 
HETATM   16  C18 UNL     1      24.433   2.466  52.553  1.00  0.00     0.084 C 
HETATM   17  C19 UNL     1      23.498   1.655  52.775  1.00  0.00     0.032 C 
HETATM   18  H20 UNL     1      24.624   4.636  52.439  1.00  0.00     0.159 HD
ENDROOT
BRANCH   1  19
HETATM   19  C4  UNL     1      23.237  -0.068  53.792  1.00  0.00     0.296 C 
HETATM   20  N1  UNL     1      24.266  -0.686  54.149  1.00  0.00    -0.397 NA
BRANCH  20  21
HETATM   21  C3  UNL     1      25.528  -0.822  53.554  1.00  0.00     0.072 C 
HETATM   22  C2  UNL     1      26.717  -0.279  53.806  1.00  0.00    -0.015 C 
HETATM   23  C1  UNL     1      27.774  -0.751  52.879  1.00  0.00     0.037 C 
ENDBRANCH  20  21
ENDBRANCH   1  19
BRANCH   7  24
HETATM   24  N2  UNL     1      18.000   1.749  50.928  1.00  0.00    -0.320 N 
HETATM   25  H9  UNL     1      18.227   1.528  49.904  1.00  0.00     0.169 HD
BRANCH  24  26
HETATM   26  C11 UNL     1      16.911   2.547  51.495  1.00  0.00     0.354 C 
HETATM   27  O1  UNL     1      17.485   3.602  51.937  1.00  0.00    -0.283 OA
ENDBRANCH  24  26
ENDBRANCH   7  24
BRANCH   9  28
HETATM   28  N4  UNL     1      20.744   3.881  52.000  1.00  0.00     0.102 N 
HETATM   29  H12 UNL     1      21.255   3.661  52.859  1.00  0.00     0.315 HD
HETATM   30  H13 UNL     1      21.220   4.629  51.452  1.00  0.00     0.315 HD
ENDBRANCH   9  28
TORSDOF 5
ENDMDL
MODEL 2
REMARK VINA RESULT:      -7.6      2.939      5.197
REMARK  5 active torsions:
REMARK  status: ('A' for Active; 'I' for Inactive)
REMARK    1  A    between atoms: C3_3  and  N1_4 
REMARK    2  A    between atoms: C4_5  and  C5_6 
REMARK    3  A    between atoms: C10_12  and  N2_13 
REMARK    4  A    between atoms: N2_13  and  C11_14 
REMARK    5  A    between atoms: C12_17  and  N4_18 
ROOT
HETATM    1  C5  UNL     1      24.959   2.440  50.869  1.00  0.00     0.011 C 
HETATM    2  C6  UNL     1      24.505   1.555  51.733  1.00  0.00     0.071 A 
HETATM    3  C7  UNL     1      25.649   0.962  52.379  1.00  0.00     0.062 A 
HETATM    4 CL1  UNL     1      27.341   1.339  52.184  1.00  0.00    -0.082 Cl
HETATM    5  C8  UNL     1      25.539  -0.021  53.284  1.00  0.00     0.030 A 
HETATM    6  C9  UNL     1      24.185  -0.451  53.568  1.00  0.00     0.050 A 
HETATM    7  C10 UNL     1      23.157   0.112  52.954  1.00  0.00     0.111 A 
HETATM    8  N3  UNL     1      23.175   1.196  51.953  1.00  0.00    -0.299 N 
HETATM    9  C12 UNL     1      21.864   1.542  51.566  1.00  0.00     0.329 C 
HETATM   10  C13 UNL     1      21.485   1.355  50.140  1.00  0.00     0.051 C 
HETATM   11  C14 UNL     1      21.089   1.042  48.846  1.00  0.00     0.009 C 
HETATM   12  C15 UNL     1      21.274   2.120  47.859  1.00  0.00    -0.006 C 
HETATM   13  C16 UNL     1      21.593   3.240  47.367  1.00  0.00    -0.008 C 
HETATM   14  C17 UNL     1      22.109   4.563  47.370  1.00  0.00     0.146 C 
HETATM   15  N5  UNL     1      22.653   4.915  48.703  1.00  0.00    -0.395 N 
HETATM   16  C18 UNL     1      23.871   4.290  49.199  1.00  0.00     0.084 C 
HETATM   17  C19 UNL     1      24.404   3.442  49.961  1.00  0.00     0.032 C 
HETATM   18  H20 UNL     1      22.155   5.631  49.312  1.00  0.00     0.159 HD
ENDROOT
BRANCH   1  19
HETATM   19  C4  UNL     1      26.269   2.877  50.480  1.00  0.00     0.296 C 
HETATM   20  N1  UNL     1      27.167   3.584  49.969  1.00  0.00    -0.397 NA
BRANCH  20  21
HETATM   21  C3  UNL     1      27.116   4.786  49.249  1.00  0.00     0.072 C 
HETATM   22  C2  UNL     1      27.997   5.427  48.483  1.00  0.00    -0.015 C 
HETATM   23  C1  UNL     1      27.460   6.692  47.925  1.00  0.00     0.037 C 
ENDBRANCH  20  21
ENDBRANCH   1  19
BRANCH   7  24
HETATM   24  N2  UNL     1      21.922  -0.499  53.418  1.00  0.00    -0.320 N 
HETATM   25  H9  UNL     1      21.422  -0.892  52.556  1.00  0.00     0.169 HD
BRANCH  24  26
HETATM   26  C11 UNL     1      21.524  -0.533  54.828  1.00  0.00     0.354 C 
HETATM   27  O1  UNL     1      21.435  -1.779  55.104  1.00  0.00    -0.283 OA
ENDBRANCH  24  26
ENDBRANCH   7  24
BRANCH   9  28
HETATM   28  N4  UNL     1      21.540   2.873  52.110  1.00  0.00     0.102 N 
HETATM   29  H12 UNL     1      20.552   3.130  52.048  1.00  0.00     0.315 HD
HETATM   30  H13 UNL     1      21.876   2.877  53.097  1.00  0.00     0.315 HD
ENDBRANCH   9  28
TORSDOF 5
ENDMDL
MODEL 3
REMARK VINA RESULT:      -7.2      3.491      5.561
REMARK  5 active torsions:
REMARK  status: ('A' for Active; 'I' for Inactive)
REMARK    1  A    between atoms: C3_3  and  N1_4 
REMARK    2  A    between atoms: C4_5  and  C5_6 
REMARK    3  A    between atoms: C10_12  and  N2_13 
REMARK    4  A    between atoms: N2_13  and  C11_14 
REMARK    5  A    between atoms: C12_17  and  N4_18 
ROOT
HETATM    1  C5  UNL     1      22.026   4.074  51.653  1.00  0.00     0.011 C 
HETATM    2  C6  UNL     1      21.889   5.126  50.871  1.00  0.00     0.071 A 
HETATM    3  C7  UNL     1      20.492   5.227  50.534  1.00  0.00     0.062 A 
HETATM    4 CL1  UNL     1      19.154   4.247  51.076  1.00  0.00    -0.082 Cl
HETATM    5  C8  UNL     1      20.015   6.167  49.704  1.00  0.00     0.030 A 
HETATM    6  C9  UNL     1      21.006   7.076  49.166  1.00  0.00     0.050 A 
HETATM    7  C10 UNL     1      22.282   6.953  49.494  1.00  0.00     0.111 A 
HETATM    8  N3  UNL     1      22.900   5.961  50.396  1.00  0.00    -0.299 N 
HETATM    9  C12 UNL     1      24.286   6.187  50.513  1.00  0.00     0.329 C 
HETATM   10  C13 UNL     1      25.210   5.116  50.053  1.00  0.00     0.051 C 
HETATM   11  C14 UNL     1      26.068   4.180  49.489  1.00  0.00     0.009 C 
HETATM   12  C15 UNL     1      26.531   3.125  50.406  1.00  0.00    -0.006 C 
HETATM   13  C16 UNL     1      26.668   2.443  51.462  1.00  0.00    -0.008 C 
HETATM   14  C17 UNL     1      26.451   2.090  52.820  1.00  0.00     0.146 C 
HETATM   15  N5  UNL     1      25.452   2.989  53.447  1.00  0.00    -0.395 N 
HETATM   16  C18 UNL     1      24.049   2.927  53.063  1.00  0.00     0.084 C 
HETATM   17  C19 UNL     1      23.094   3.435  52.420  1.00  0.00     0.032 C 
HETATM   18  H20 UNL     1      25.755   3.691  54.187  1.00  0.00     0.159 HD
ENDROOT
BRANCH   1  19
HETATM   19  C4  UNL     1      21.121   3.091  52.176  1.00  0.00     0.296 C 
HETATM   20  N1  UNL     1      20.695   1.987  52.583  1.00  0.00    -0.397 NA
BRANCH  20  21
HETATM   21  C3  UNL     1      21.310   0.733  52.702  1.00  0.00     0.072 C 
HETATM   22  C2  UNL     1      21.792   0.049  53.739  1.00  0.00    -0.015 C 
HETATM   23  C1  UNL     1      22.357  -1.265  53.349  1.00  0.00     0.037 C 
ENDBRANCH  20  21
ENDBRANCH   1  19
BRANCH   7  24
HETATM   24  N2  UNL     1      23.057   7.983  48.821  1.00  0.00    -0.320 N 
HETATM   25  H9  UNL     1      23.423   8.646  49.579  1.00  0.00     0.169 HD
BRANCH  24  26
HETATM   26  C11 UNL     1      23.255   8.019  47.370  1.00  0.00     0.354 C 
HETATM   27  O1  UNL     1      24.343   7.372  47.181  1.00  0.00    -0.283 OA
ENDBRANCH  24  26
ENDBRANCH   7  24
BRANCH   9  28
HETATM   28  N4  UNL     1      24.575   6.697  51.865  1.00  0.00     0.102 N 
HETATM   29  H12 UNL     1      25.478   7.168  51.960  1.00  0.00     0.315 HD
HETATM   30  H13 UNL     1      23.785   7.329  52.116  1.00  0.00     0.315 HD
ENDBRANCH   9  28
TORSDOF 5
ENDMDL
MODEL 4
REMARK VINA RESULT:      -7.1     10.141     13.521
REMARK  5 active torsions:
REMARK  status: ('A' for Active; 'I' for Inactive)
REMARK    1  A    between atoms: C3_3  and  N1_4 
REMARK    2  A    between atoms: C4_5  and  C5_6 
REMARK    3  A    between atoms: C10_12  and  N2_13 
REMARK    4  A    between atoms: N2_13  and  C11_14 
REMARK    5  A    between atoms: C12_17  and  N4_18 
ROOT
HETATM    1  C5  UNL     1      31.836   8.920  47.864  1.00  0.00     0.011 C 
HETATM    2  C6  UNL     1      32.520   7.803  47.714  1.00  0.00     0.071 A 
HETATM    3  C7  UNL     1      33.656   8.106  46.881  1.00  0.00     0.062 A 
HETATM    4 CL1  UNL     1      34.160   9.641  46.222  1.00  0.00    -0.082 Cl
HETATM    5  C8  UNL     1      34.535   7.173  46.490  1.00  0.00     0.030 A 
HETATM    6  C9  UNL     1      34.262   5.831  46.963  1.00  0.00     0.050 A 
HETATM    7  C10 UNL     1      33.208   5.586  47.723  1.00  0.00     0.111 A 
HETATM    8  N3  UNL     1      32.192   6.540  48.207  1.00  0.00    -0.299 N 
HETATM    9  C12 UNL     1      31.245   5.891  49.026  1.00  0.00     0.329 C 
HETATM   10  C13 UNL     1      29.826   5.882  48.580  1.00  0.00     0.051 C 
HETATM   11  C14 UNL     1      28.533   5.747  48.092  1.00  0.00     0.009 C 
HETATM   12  C15 UNL     1      27.601   6.817  48.488  1.00  0.00    -0.006 C 
HETATM   13  C16 UNL     1      27.165   7.878  49.021  1.00  0.00    -0.008 C 
HETATM   14  C17 UNL     1      27.234   9.075  49.781  1.00  0.00     0.146 C 
HETATM   15  N5  UNL     1      28.621   9.333  50.236  1.00  0.00    -0.395 N 
HETATM   16  C18 UNL     1      29.659   9.712  49.288  1.00  0.00     0.084 C 
HETATM   17  C19 UNL     1      30.668   9.374  48.616  1.00  0.00     0.032 C 
HETATM   18  H20 UNL     1      28.871   9.243  51.267  1.00  0.00     0.159 HD
ENDROOT
BRANCH   1  19
HETATM   19  C4  UNL     1      31.995  10.262  47.383  1.00  0.00     0.296 C 
HETATM   20  N1  UNL     1      31.764  11.317  46.750  1.00  0.00    -0.397 NA
BRANCH  20  21
HETATM   21  C3  UNL     1      30.744  11.667  45.854  1.00  0.00     0.072 C 
HETATM   22  C2  UNL     1      29.437  11.414  45.819  1.00  0.00    -0.015 C 
HETATM   23  C1  UNL     1      28.766  12.017  44.642  1.00  0.00     0.037 C 
ENDBRANCH  20  21
ENDBRANCH   1  19
BRANCH   7  24
HETATM   24  N2  UNL     1      33.168   4.171  48.055  1.00  0.00    -0.320 N 
HETATM   25  H9  UNL     1      33.341   4.090  49.110  1.00  0.00     0.169 HD
BRANCH  24  26
HETATM   26  C11 UNL     1      32.918   3.121  47.065  1.00  0.00     0.354 C 
HETATM   27  O1  UNL     1      31.726   3.346  46.655  1.00  0.00    -0.283 OA
ENDBRANCH  24  26
ENDBRANCH   7  24
BRANCH   9  28
HETATM   28  N4  UNL     1      31.440   6.326  50.420  1.00  0.00     0.102 N 
HETATM   29  H12 UNL     1      32.299   5.983  50.858  1.00  0.00     0.315 HD
HETATM   30  H13 UNL     1      31.405   7.368  50.410  1.00  0.00     0.315 HD
ENDBRANCH   9  28
TORSDOF 5
ENDMDL
MODEL 5
REMARK VINA RESULT:      -7.0     10.220     13.942
REMARK  5 active torsions:
REMARK  status: ('A' for Active; 'I' for Inactive)
REMARK    1  A    between atoms: C3_3  and  N1_4 
REMARK    2  A    between atoms: C4_5  and  C5_6 
REMARK    3  A    between atoms: C10_12  and  N2_13 
REMARK    4  A    between atoms: N2_13  and  C11_14 
REMARK    5  A    between atoms: C12_17  and  N4_18 
ROOT
HETATM    1  C5  UNL     1      31.014  10.094  48.007  1.00  0.00     0.011 C 
HETATM    2  C6  UNL     1      31.938   9.238  47.619  1.00  0.00     0.071 A 
HETATM    3  C7  UNL     1      32.875   9.962  46.798  1.00  0.00     0.062 A 
HETATM    4 CL1  UNL     1      32.912  11.662  46.407  1.00  0.00    -0.082 Cl
HETATM    5  C8  UNL     1      33.918   9.370  46.197  1.00  0.00     0.030 A 
HETATM    6  C9  UNL     1      34.036   7.945  46.428  1.00  0.00     0.050 A 
HETATM    7  C10 UNL     1      33.156   7.310  47.185  1.00  0.00     0.111 A 
HETATM    8  N3  UNL     1      31.986   7.870  47.888  1.00  0.00    -0.299 N 
HETATM    9  C12 UNL     1      31.317   6.868  48.621  1.00  0.00     0.329 C 
HETATM   10  C13 UNL     1      29.908   6.559  48.256  1.00  0.00     0.051 C 
HETATM   11  C14 UNL     1      28.649   6.171  47.819  1.00  0.00     0.009 C 
HETATM   12  C15 UNL     1      27.523   6.877  48.453  1.00  0.00    -0.006 C 
HETATM   13  C16 UNL     1      26.889   7.683  49.193  1.00  0.00    -0.008 C 
HETATM   14  C17 UNL     1      26.730   8.715  50.156  1.00  0.00     0.146 C 
HETATM   15  N5  UNL     1      28.047   9.251  50.578  1.00  0.00    -0.395 N 
HETATM   16  C18 UNL     1      28.858  10.040  49.663  1.00  0.00     0.084 C 
HETATM   17  C19 UNL     1      29.850  10.095  48.889  1.00  0.00     0.032 C 
HETATM   18  H20 UNL     1      28.411   9.061  51.560  1.00  0.00     0.159 HD
ENDROOT
BRANCH   1  19
HETATM   19  C4  UNL     1      30.785  11.491  47.773  1.00  0.00     0.296 C 
HETATM   20  N1  UNL     1      30.168  12.568  47.611  1.00  0.00    -0.397 NA
BRANCH  20  21
HETATM   21  C3  UNL     1      28.799  12.871  47.609  1.00  0.00     0.072 C 
HETATM   22  C2  UNL     1      28.001  13.487  48.480  1.00  0.00    -0.015 C 
HETATM   23  C1  UNL     1      26.595  13.567  48.014  1.00  0.00     0.037 C 
ENDBRANCH  20  21
ENDBRANCH   1  19
BRANCH   7  24
HETATM   24  N2  UNL     1      33.504   5.900  47.253  1.00  0.00    -0.320 N 
HETATM   25  H9  UNL     1      32.781   5.369  46.667  1.00  0.00     0.169 HD
BRANCH  24  26
HETATM   26  C11 UNL     1      34.658   5.393  48.001  1.00  0.00     0.354 C 
HETATM   27  O1  UNL     1      34.464   5.799  49.199  1.00  0.00    -0.283 OA
ENDBRANCH  24  26
ENDBRANCH   7  24
BRANCH   9  28
HETATM   28  N4  UNL     1      31.532   7.105  50.060  1.00  0.00     0.102 N 
HETATM   29  H12 UNL     1      30.872   7.760  50.487  1.00  0.00     0.315 HD
HETATM   30  H13 UNL     1      31.497   6.171  50.520  1.00  0.00     0.315 HD
ENDBRANCH   9  28
TORSDOF 5
ENDMDL
MODEL 6
REMARK VINA RESULT:      -6.9      9.622     11.879
REMARK  5 active torsions:
REMARK  status: ('A' for Active; 'I' for Inactive)
REMARK    1  A    between atoms: C3_3  and  N1_4 
REMARK    2  A    between atoms: C4_5  and  C5_6 
REMARK    3  A    between atoms: C10_12  and  N2_13 
REMARK    4  A    between atoms: N2_13  and  C11_14 
REMARK    5  A    between atoms: C12_17  and  N4_18 
ROOT
HETATM    1  C5  UNL     1      30.659   6.774  48.413  1.00  0.00     0.011 C 
HETATM    2  C6  UNL     1      29.570   7.492  48.604  1.00  0.00     0.071 A 
HETATM    3  C7  UNL     1      28.443   6.606  48.463  1.00  0.00     0.062 A 
HETATM    4 CL1  UNL     1      28.425   4.884  48.180  1.00  0.00    -0.082 Cl
HETATM    5  C8  UNL     1      27.174   7.030  48.547  1.00  0.00     0.030 A 
HETATM    6  C9  UNL     1      27.013   8.450  48.789  1.00  0.00     0.050 A 
HETATM    7  C10 UNL     1      28.070   9.237  48.910  1.00  0.00     0.111 A 
HETATM    8  N3  UNL     1      29.496   8.865  48.837  1.00  0.00    -0.299 N 
HETATM    9  C12 UNL     1      30.317   9.991  49.054  1.00  0.00     0.329 C 
HETATM   10  C13 UNL     1      31.226  10.414  47.955  1.00  0.00     0.051 C 
HETATM   11  C14 UNL     1      31.961  10.894  46.879  1.00  0.00     0.009 C 
HETATM   12  C15 UNL     1      33.333  10.368  46.776  1.00  0.00    -0.006 C 
HETATM   13  C16 UNL     1      34.373   9.699  47.040  1.00  0.00    -0.008 C 
HETATM   14  C17 UNL     1      35.180   8.776  47.757  1.00  0.00     0.146 C 
HETATM   15  N5  UNL     1      34.409   8.142  48.854  1.00  0.00    -0.395 N 
HETATM   16  C18 UNL     1      33.341   7.196  48.564  1.00  0.00     0.084 C 
HETATM   17  C19 UNL     1      32.105   6.971  48.485  1.00  0.00     0.032 C 
HETATM   18  H20 UNL     1      34.632   8.375  49.868  1.00  0.00     0.159 HD
ENDROOT
BRANCH   1  19
HETATM   19  C4  UNL     1      30.906   5.394  48.106  1.00  0.00     0.296 C 
HETATM   20  N1  UNL     1      31.438   4.382  47.599  1.00  0.00    -0.397 NA
BRANCH  20  21
HETATM   21  C3  UNL     1      32.516   4.236  46.713  1.00  0.00     0.072 C 
HETATM   22  C2  UNL     1      33.791   3.890  46.879  1.00  0.00    -0.015 C 
HETATM   23  C1  UNL     1      34.554   3.877  45.608  1.00  0.00     0.037 C 
ENDBRANCH  20  21
ENDBRANCH   1  19
BRANCH   7  24
HETATM   24  N2  UNL     1      27.632  10.603  49.146  1.00  0.00    -0.320 N 
HETATM   25  H9  UNL     1      27.923  10.858  50.145  1.00  0.00     0.169 HD
BRANCH  24  26
HETATM   26  C11 UNL     1      26.937  11.408  48.139  1.00  0.00     0.354 C 
HETATM   27  O1  UNL     1      26.999  12.605  48.589  1.00  0.00    -0.283 OA
ENDBRANCH  24  26
ENDBRANCH   7  24
BRANCH   9  28
HETATM   28  N4  UNL     1      30.975   9.857  50.366  1.00  0.00     0.102 N 
HETATM   29  H12 UNL     1      31.247   8.901  50.611  1.00  0.00     0.315 HD
HETATM   30  H13 UNL     1      31.798  10.496  50.349  1.00  0.00     0.315 HD
ENDBRANCH   9  28
TORSDOF 5
ENDMDL
MODEL 7
REMARK VINA RESULT:      -6.8      7.971     11.133
REMARK  5 active torsions:
REMARK  status: ('A' for Active; 'I' for Inactive)
REMARK    1  A    between atoms: C3_3  and  N1_4 
REMARK    2  A    between atoms: C4_5  and  C5_6 
REMARK    3  A    between atoms: C10_12  and  N2_13 
REMARK    4  A    between atoms: N2_13  and  C11_14 
REMARK    5  A    between atoms: C12_17  and  N4_18 
ROOT
HETATM    1  C5  UNL     1      30.044   8.057  48.563  1.00  0.00     0.011 C 
HETATM    2  C6  UNL     1      28.954   7.326  48.687  1.00  0.00     0.071 A 
HETATM    3  C7  UNL     1      29.300   5.977  48.317  1.00  0.00     0.062 A 
HETATM    4 CL1  UNL     1      30.853   5.324  47.863  1.00  0.00    -0.082 Cl
HETATM    5  C8  UNL     1      28.401   4.983  48.283  1.00  0.00     0.030 A 
HETATM    6  C9  UNL     1      27.049   5.361  48.644  1.00  0.00     0.050 A 
HETATM    7  C10 UNL     1      26.765   6.610  48.975  1.00  0.00     0.111 A 
HETATM    8  N3  UNL     1      27.680   7.765  49.046  1.00  0.00    -0.299 N 
HETATM    9  C12 UNL     1      26.995   8.921  49.476  1.00  0.00     0.329 C 
HETATM   10  C13 UNL     1      26.932  10.081  48.548  1.00  0.00     0.051 C 
HETATM   11  C14 UNL     1      26.748  11.104  47.626  1.00  0.00     0.009 C 
HETATM   12  C15 UNL     1      27.782  12.153  47.644  1.00  0.00    -0.006 C 
HETATM   13  C16 UNL     1      28.826  12.790  47.968  1.00  0.00    -0.008 C 
HETATM   14  C17 UNL     1      30.025  13.043  48.684  1.00  0.00     0.146 C 
HETATM   15  N5  UNL     1      30.336  11.924  49.607  1.00  0.00    -0.395 N 
HETATM   16  C18 UNL     1      30.754  10.628  49.092  1.00  0.00     0.084 C 
HETATM   17  C19 UNL     1      30.454   9.433  48.836  1.00  0.00     0.032 C 
HETATM   18  H20 UNL     1      30.255  12.061  50.659  1.00  0.00     0.159 HD
ENDROOT
BRANCH   1  19
HETATM   19  C4  UNL     1      31.391   7.782  48.153  1.00  0.00     0.296 C 
HETATM   20  N1  UNL     1      32.473   7.885  47.532  1.00  0.00    -0.397 NA
BRANCH  20  21
HETATM   21  C3  UNL     1      32.894   8.764  46.525  1.00  0.00     0.072 C 
HETATM   22  C2  UNL     1      33.475   9.963  46.546  1.00  0.00    -0.015 C 
HETATM   23  C1  UNL     1      33.730  10.501  45.188  1.00  0.00     0.037 C 
ENDBRANCH  20  21
ENDBRANCH   1  19
BRANCH   7  24
HETATM   24  N2  UNL     1      25.350   6.717  49.291  1.00  0.00    -0.320 N 
HETATM   25  H9  UNL     1      24.882   7.223  48.470  1.00  0.00     0.169 HD
BRANCH  24  26
HETATM   26  C11 UNL     1      24.760   6.190  50.524  1.00  0.00     0.354 C 
HETATM   27  O1  UNL     1      24.673   7.206  51.296  1.00  0.00    -0.283 OA
ENDBRANCH  24  26
ENDBRANCH   7  24
BRANCH   9  28
HETATM   28  N4  UNL     1      27.439   9.259  50.840  1.00  0.00     0.102 N 
HETATM   29  H12 UNL     1      26.822   9.904  51.341  1.00  0.00     0.315 HD
HETATM   30  H13 UNL     1      27.541   8.355  51.348  1.00  0.00     0.315 HD
ENDBRANCH   9  28
TORSDOF 5
ENDMDL
MODEL 8
REMARK VINA RESULT:      -6.6      4.207      7.155
REMARK  5 active torsions:
REMARK  status: ('A' for Active; 'I' for Inactive)
REMARK    1  A    between atoms: C3_3  and  N1_4 
REMARK    2  A    between atoms: C4_5  and  C5_6 
REMARK    3  A    between atoms: C10_12  and  N2_13 
REMARK    4  A    between atoms: N2_13  and  C11_14 
REMARK    5  A    between atoms: C12_17  and  N4_18 
ROOT
HETATM    1  C5  UNL     1      22.376   5.276  50.391  1.00  0.00     0.011 C 
HETATM    2  C6  UNL     1      22.829   6.042  49.419  1.00  0.00     0.071 A 
HETATM    3  C7  UNL     1      21.688   6.486  48.659  1.00  0.00     0.062 A 
HETATM    4 CL1  UNL     1      19.992   6.190  48.943  1.00  0.00    -0.082 Cl
HETATM    5  C8  UNL     1      21.803   7.246  47.560  1.00  0.00     0.030 A 
HETATM    6  C9  UNL     1      23.159   7.591  47.186  1.00  0.00     0.050 A 
HETATM    7  C10 UNL     1      24.185   7.163  47.905  1.00  0.00     0.111 A 
HETATM    8  N3  UNL     1      24.161   6.332  49.124  1.00  0.00    -0.299 N 
HETATM    9  C12 UNL     1      25.467   6.123  49.613  1.00  0.00     0.329 C 
HETATM   10  C13 UNL     1      25.976   4.727  49.670  1.00  0.00     0.051 C 
HETATM   11  C14 UNL     1      26.502   3.444  49.583  1.00  0.00     0.009 C 
HETATM   12  C15 UNL     1      26.311   2.610  50.782  1.00  0.00    -0.006 C 
HETATM   13  C16 UNL     1      25.943   2.256  51.939  1.00  0.00    -0.008 C 
HETATM   14  C17 UNL     1      25.322   2.401  53.208  1.00  0.00     0.146 C 
HETATM   15  N5  UNL     1      24.643   3.714  53.316  1.00  0.00    -0.395 N 
HETATM   16  C18 UNL     1      23.443   3.999  52.542  1.00  0.00     0.084 C 
HETATM   17  C19 UNL     1      22.921   4.578  51.554  1.00  0.00     0.032 C 
HETATM   18  H20 UNL     1      25.029   4.464  53.965  1.00  0.00     0.159 HD
ENDROOT
BRANCH   1  19
HETATM   19  C4  UNL     1      21.071   4.833  50.791  1.00  0.00     0.296 C 
HETATM   20  N1  UNL     1      20.147   4.059  51.127  1.00  0.00    -0.397 NA
BRANCH  20  21
HETATM   21  C3  UNL     1      20.105   2.668  51.294  1.00  0.00     0.072 C 
HETATM   22  C2  UNL     1      20.256   1.872  52.351  1.00  0.00    -0.015 C 
HETATM   23  C1  UNL     1      20.118   0.435  52.013  1.00  0.00     0.037 C 
ENDBRANCH  20  21
ENDBRANCH   1  19
BRANCH   7  24
HETATM   24  N2  UNL     1      25.423   7.648  47.317  1.00  0.00    -0.320 N 
HETATM   25  H9  UNL     1      25.985   6.788  47.012  1.00  0.00     0.169 HD
BRANCH  24  26
HETATM   26  C11 UNL     1      25.751   9.071  47.197  1.00  0.00     0.354 C 
HETATM   27  O1  UNL     1      26.389   9.343  48.272  1.00  0.00    -0.283 OA
ENDBRANCH  24  26
ENDBRANCH   7  24
BRANCH   9  28
HETATM   28  N4  UNL     1      25.635   6.881  50.866  1.00  0.00     0.102 N 
HETATM   29  H12 UNL     1      24.811   7.416  51.153  1.00  0.00     0.315 HD
HETATM   30  H13 UNL     1      25.914   6.189  51.593  1.00  0.00     0.315 HD
ENDBRANCH   9  28
TORSDOF 5
ENDMDL
MODEL 9
REMARK VINA RESULT:      -6.6     25.811     28.288
REMARK  5 active torsions:
REMARK  status: ('A' for Active; 'I' for Inactive)
REMARK    1  A    between atoms: C3_3  and  N1_4 
REMARK    2  A    between atoms: C4_5  and  C5_6 
REMARK    3  A    between atoms: C10_12  and  N2_13 
REMARK    4  A    between atoms: N2_13  and  C11_14 
REMARK    5  A    between atoms: C12_17  and  N4_18 
ROOT
HETATM    1  C5  UNL     1      42.880   5.115  70.136  1.00  0.00     0.011 C 
HETATM    2  C6  UNL     1      43.548   4.728  69.068  1.00  0.00     0.071 A 
HETATM    3  C7  UNL     1      43.360   3.306  68.938  1.00  0.00     0.062 A 
HETATM    4 CL1  UNL     1      42.385   2.231  69.907  1.00  0.00    -0.082 Cl
HETATM    5  C8  UNL     1      43.952   2.583  67.975  1.00  0.00     0.030 A 
HETATM    6  C9  UNL     1      44.799   3.335  67.072  1.00  0.00     0.050 A 
HETATM    7  C10 UNL     1      44.953   4.641  67.222  1.00  0.00     0.111 A 
HETATM    8  N3  UNL     1      44.345   5.519  68.240  1.00  0.00    -0.299 N 
HETATM    9  C12 UNL     1      44.731   6.860  68.038  1.00  0.00     0.329 C 
HETATM   10  C13 UNL     1      45.504   7.534  69.116  1.00  0.00     0.051 C 
HETATM   11  C14 UNL     1      46.350   8.112  70.054  1.00  0.00     0.009 C 
HETATM   12  C15 UNL     1      45.672   8.850  71.133  1.00  0.00    -0.006 C 
HETATM   13  C16 UNL     1      44.744   9.342  71.837  1.00  0.00    -0.008 C 
HETATM   14  C17 UNL     1      43.403   9.620  72.212  1.00  0.00     0.146 C 
HETATM   15  N5  UNL     1      42.449   8.932  71.309  1.00  0.00    -0.395 N 
HETATM   16  C18 UNL     1      42.304   7.484  71.341  1.00  0.00     0.084 C 
HETATM   17  C19 UNL     1      42.555   6.373  70.807  1.00  0.00     0.032 C 
HETATM   18  H20 UNL     1      41.859   9.496  70.626  1.00  0.00     0.159 HD
ENDROOT
BRANCH   1  19
HETATM   19  C4  UNL     1      42.078   4.437  71.114  1.00  0.00     0.296 C 
HETATM   20  N1  UNL     1      41.065   4.064  71.747  1.00  0.00    -0.397 NA
BRANCH  20  21
HETATM   21  C3  UNL     1      39.704   4.369  71.598  1.00  0.00     0.072 C 
HETATM   22  C2  UNL     1      39.055   5.451  71.173  1.00  0.00    -0.015 C 
HETATM   23  C1  UNL     1      37.581   5.285  71.199  1.00  0.00     0.037 C 
ENDBRANCH  20  21
ENDBRANCH   1  19
BRANCH   7  24
HETATM   24  N2  UNL     1      45.846   5.145  66.192  1.00  0.00    -0.320 N 
HETATM   25  H9  UNL     1      46.794   5.327  66.658  1.00  0.00     0.169 HD
BRANCH  24  26
HETATM   26  C11 UNL     1      45.440   5.326  64.796  1.00  0.00     0.354 C 
HETATM   27  O1  UNL     1      44.298   5.899  64.868  1.00  0.00    -0.283 OA
ENDBRANCH  24  26
ENDBRANCH   7  24
BRANCH   9  28
HETATM   28  N4  UNL     1      43.566   7.626  67.559  1.00  0.00     0.102 N 
HETATM   29  H12 UNL     1      43.078   8.157  68.284  1.00  0.00     0.315 HD
HETATM   30  H13 UNL     1      43.915   8.247  66.798  1.00  0.00     0.315 HD
ENDBRANCH   9  28
TORSDOF 5
ENDMDL
