MODEL 1
REMARK VINA RESULT:      -7.4      0.000      0.000
REMARK  5 active torsions:
REMARK  status: ('A' for Active; 'I' for Inactive)
REMARK    1  A    between atoms: C2_2  and  C3_3 
REMARK       I    between atoms: C3_3  and  N1_5 
REMARK    2  A    between atoms: N1_5  and  C4_6 
REMARK    3  A    between atoms: C8_10  and  N2_11 
REMARK    4  A    between atoms: N2_11  and  C9_12 
REMARK    5  A    between atoms: C14_17  and  N3_18 
ROOT
HETATM    1  C4  UNL     1      24.341   3.062  51.982  1.00  0.00     0.037 A 
HETATM    2  C5  UNL     1      23.100   2.512  51.731  1.00  0.00     0.029 A 
HETATM    3  C6  UNL     1      22.781   1.261  52.253  1.00  0.00     0.004 A 
HETATM    4  C7  UNL     1      23.690   0.562  53.020  1.00  0.00     0.029 A 
HETATM    5  C8  UNL     1      24.910   1.165  53.234  1.00  0.00     0.034 A 
HETATM    6  C16 UNL     1      25.299   2.396  52.752  1.00  0.00     0.059 A 
ENDROOT
BRANCH   5   7
HETATM    7  N2  UNL     1      25.876   0.479  54.018  1.00  0.00    -0.354 N 
HETATM    8  H8  UNL     1      25.954   0.537  55.055  1.00  0.00     0.166 HD
BRANCH   7   9
HETATM    9  C9  UNL     1      26.918  -0.397  53.699  1.00  0.00     0.061 A 
HETATM   10  C10 UNL     1      26.778  -1.567  52.949  1.00  0.00     0.032 A 
HETATM   11  C11 UNL     1      27.815  -2.420  52.641  1.00  0.00     0.002 A 
HETATM   12  C12 UNL     1      29.078  -2.123  53.090  1.00  0.00     0.002 A 
HETATM   13  C13 UNL     1      29.281  -0.985  53.834  1.00  0.00     0.034 A 
HETATM   14  C14 UNL     1      28.215  -0.159  54.118  1.00  0.00     0.082 A 
BRANCH  14  15
HETATM   15  N3  UNL     1      28.556   0.983  54.892  1.00  0.00    -0.270 NA
HETATM   16  C15 UNL     1      29.211   1.985  54.376  1.00  0.00     0.149 C 
ENDBRANCH  14  15
ENDBRANCH   7   9
ENDBRANCH   5   7
BRANCH   1  17
HETATM   17  N1  UNL     1      24.680   4.335  51.456  1.00  0.00    -0.324 N 
HETATM   18  C3  UNL     1      25.387   4.196  50.221  1.00  0.00     0.244 C 
HETATM   19  O1  UNL     1      25.620   3.048  49.755  1.00  0.00    -0.268 OA
HETATM   20  H4  UNL     1      24.536   5.325  51.760  1.00  0.00     0.169 HD
BRANCH  18  21
HETATM   21  C2  UNL     1      25.898   5.256  49.387  1.00  0.00     0.064 C 
HETATM   22  C1  UNL     1      26.931   4.539  48.957  1.00  0.00     0.017 C 
ENDBRANCH  18  21
ENDBRANCH   1  17
TORSDOF 5
ENDMDL
MODEL 2
REMARK VINA RESULT:      -7.2      2.453      6.060
REMARK  5 active torsions:
REMARK  status: ('A' for Active; 'I' for Inactive)
REMARK    1  A    between atoms: C2_2  and  C3_3 
REMARK       I    between atoms: C3_3  and  N1_5 
REMARK    2  A    between atoms: N1_5  and  C4_6 
REMARK    3  A    between atoms: C8_10  and  N2_11 
REMARK    4  A    between atoms: N2_11  and  C9_12 
REMARK    5  A    between atoms: C14_17  and  N3_18 
ROOT
HETATM    1  C4  UNL     1      25.138  -0.472  53.755  1.00  0.00     0.037 A 
HETATM    2  C5  UNL     1      24.323  -1.161  54.630  1.00  0.00     0.029 A 
HETATM    3  C6  UNL     1      22.960  -0.876  54.674  1.00  0.00     0.004 A 
HETATM    4  C7  UNL     1      22.412   0.087  53.853  1.00  0.00     0.029 A 
HETATM    5  C8  UNL     1      23.278   0.739  53.002  1.00  0.00     0.034 A 
HETATM    6  C16 UNL     1      24.634   0.514  52.901  1.00  0.00     0.059 A 
ENDROOT
BRANCH   5   7
HETATM    7  N2  UNL     1      22.755   1.739  52.139  1.00  0.00    -0.354 N 
HETATM    8  H8  UNL     1      22.400   2.668  52.447  1.00  0.00     0.166 HD
BRANCH   7   9
HETATM    9  C9  UNL     1      22.566   1.802  50.755  1.00  0.00     0.061 A 
HETATM   10  C10 UNL     1      21.664   1.017  50.033  1.00  0.00     0.032 A 
HETATM   11  C11 UNL     1      21.489   1.091  48.669  1.00  0.00     0.002 A 
HETATM   12  C12 UNL     1      22.238   1.989  47.949  1.00  0.00     0.002 A 
HETATM   13  C13 UNL     1      23.143   2.792  48.602  1.00  0.00     0.034 A 
HETATM   14  C14 UNL     1      23.286   2.684  49.968  1.00  0.00     0.082 A 
BRANCH  14  15
HETATM   15  N3  UNL     1      24.252   3.567  50.522  1.00  0.00    -0.270 NA
HETATM   16  C15 UNL     1      25.529   3.388  50.330  1.00  0.00     0.149 C 
ENDBRANCH  14  15
ENDBRANCH   7   9
ENDBRANCH   5   7
BRANCH   1  17
HETATM   17  N1  UNL     1      26.527  -0.750  53.699  1.00  0.00    -0.324 N 
HETATM   18  C3  UNL     1      27.252   0.136  54.556  1.00  0.00     0.244 C 
HETATM   19  O1  UNL     1      26.635   1.008  55.226  1.00  0.00    -0.268 OA
HETATM   20  H4  UNL     1      27.126  -1.437  53.186  1.00  0.00     0.169 HD
BRANCH  18  21
HETATM   21  C2  UNL     1      28.678   0.166  54.771  1.00  0.00     0.064 C 
HETATM   22  C1  UNL     1      28.947  -0.541  53.679  1.00  0.00     0.017 C 
ENDBRANCH  18  21
ENDBRANCH   1  17
TORSDOF 5
ENDMDL
MODEL 3
REMARK VINA RESULT:      -7.1      1.996      6.561
REMARK  5 active torsions:
REMARK  status: ('A' for Active; 'I' for Inactive)
REMARK    1  A    between atoms: C2_2  and  C3_3 
REMARK       I    between atoms: C3_3  and  N1_5 
REMARK    2  A    between atoms: N1_5  and  C4_6 
REMARK    3  A    between atoms: C8_10  and  N2_11 
REMARK    4  A    between atoms: N2_11  and  C9_12 
REMARK    5  A    between atoms: C14_17  and  N3_18 
ROOT
HETATM    1  C4  UNL     1      26.328   1.542  52.485  1.00  0.00     0.037 A 
HETATM    2  C5  UNL     1      25.291   1.820  53.351  1.00  0.00     0.029 A 
HETATM    3  C6  UNL     1      24.325   2.758  52.994  1.00  0.00     0.004 A 
HETATM    4  C7  UNL     1      24.391   3.415  51.783  1.00  0.00     0.029 A 
HETATM    5  C8  UNL     1      25.450   3.093  50.963  1.00  0.00     0.034 A 
HETATM    6  C16 UNL     1      26.442   2.178  51.245  1.00  0.00     0.059 A 
ENDROOT
BRANCH   5   7
HETATM    7  N2  UNL     1      25.556   3.746  49.705  1.00  0.00    -0.354 N 
HETATM    8  H8  UNL     1      25.004   3.501  48.857  1.00  0.00     0.166 HD
BRANCH   7   9
HETATM    9  C9  UNL     1      26.341   4.807  49.244  1.00  0.00     0.061 A 
HETATM   10  C10 UNL     1      27.625   4.680  48.709  1.00  0.00     0.032 A 
HETATM   11  C11 UNL     1      28.386   5.736  48.257  1.00  0.00     0.002 A 
HETATM   12  C12 UNL     1      27.870   7.006  48.327  1.00  0.00     0.002 A 
HETATM   13  C13 UNL     1      26.610   7.198  48.844  1.00  0.00     0.034 A 
HETATM   14  C14 UNL     1      25.884   6.112  49.284  1.00  0.00     0.082 A 
BRANCH  14  15
HETATM   15  N3  UNL     1      24.599   6.443  49.795  1.00  0.00    -0.270 NA
HETATM   16  C15 UNL     1      24.447   7.344  50.723  1.00  0.00     0.149 C 
ENDBRANCH  14  15
ENDBRANCH   7   9
ENDBRANCH   5   7
BRANCH   1  17
HETATM   17  N1  UNL     1      27.319   0.589  52.835  1.00  0.00    -0.324 N 
HETATM   18  C3  UNL     1      28.349   1.200  53.615  1.00  0.00     0.244 C 
HETATM   19  O1  UNL     1      28.282   2.428  53.896  1.00  0.00    -0.268 OA
HETATM   20  H4  UNL     1      27.463  -0.431  52.655  1.00  0.00     0.169 HD
BRANCH  18  21
HETATM   21  C2  UNL     1      29.524   0.562  54.159  1.00  0.00     0.064 C 
HETATM   22  C1  UNL     1      29.322  -0.572  53.496  1.00  0.00     0.017 C 
ENDBRANCH  18  21
ENDBRANCH   1  17
TORSDOF 5
ENDMDL
MODEL 4
REMARK VINA RESULT:      -7.0      1.710      6.058
REMARK  5 active torsions:
REMARK  status: ('A' for Active; 'I' for Inactive)
REMARK    1  A    between atoms: C2_2  and  C3_3 
REMARK       I    between atoms: C3_3  and  N1_5 
REMARK    2  A    between atoms: N1_5  and  C4_6 
REMARK    3  A    between atoms: C8_10  and  N2_11 
REMARK    4  A    between atoms: N2_11  and  C9_12 
REMARK    5  A    between atoms: C14_17  and  N3_18 
ROOT
HETATM    1  C4  UNL     1      25.903   0.698  54.019  1.00  0.00     0.037 A 
HETATM    2  C5  UNL     1      24.943  -0.291  54.094  1.00  0.00     0.029 A 
HETATM    3  C6  UNL     1      23.732  -0.130  53.426  1.00  0.00     0.004 A 
HETATM    4  C7  UNL     1      23.476   1.007  52.688  1.00  0.00     0.029 A 
HETATM    5  C8  UNL     1      24.474   1.957  52.653  1.00  0.00     0.034 A 
HETATM    6  C16 UNL     1      25.695   1.870  53.286  1.00  0.00     0.059 A 
ENDROOT
BRANCH   5   7
HETATM    7  N2  UNL     1      24.252   3.144  51.904  1.00  0.00    -0.354 N 
HETATM    8  H8  UNL     1      23.407   3.748  51.978  1.00  0.00     0.166 HD
BRANCH   7   9
HETATM    9  C9  UNL     1      25.005   3.818  50.938  1.00  0.00     0.061 A 
HETATM   10  C10 UNL     1      26.048   3.254  50.200  1.00  0.00     0.032 A 
HETATM   11  C11 UNL     1      26.781   3.931  49.249  1.00  0.00     0.002 A 
HETATM   12  C12 UNL     1      26.484   5.247  48.992  1.00  0.00     0.002 A 
HETATM   13  C13 UNL     1      25.467   5.859  49.686  1.00  0.00     0.034 A 
HETATM   14  C14 UNL     1      24.760   5.144  50.628  1.00  0.00     0.082 A 
BRANCH  14  15
HETATM   15  N3  UNL     1      23.736   5.889  51.274  1.00  0.00    -0.270 NA
HETATM   16  C15 UNL     1      23.051   6.797  50.638  1.00  0.00     0.149 C 
ENDBRANCH  14  15
ENDBRANCH   7   9
ENDBRANCH   5   7
BRANCH   1  17
HETATM   17  N1  UNL     1      27.141   0.549  54.694  1.00  0.00    -0.324 N 
HETATM   18  C3  UNL     1      28.093  -0.111  53.856  1.00  0.00     0.244 C 
HETATM   19  O1  UNL     1      27.767  -0.466  52.691  1.00  0.00    -0.268 OA
HETATM   20  H4  UNL     1      27.504   0.803  55.641  1.00  0.00     0.169 HD
BRANCH  18  21
HETATM   21  C2  UNL     1      29.459  -0.443  54.184  1.00  0.00     0.064 C 
HETATM   22  C1  UNL     1      29.468  -1.534  53.425  1.00  0.00     0.017 C 
ENDBRANCH  18  21
ENDBRANCH   1  17
TORSDOF 5
ENDMDL
MODEL 5
REMARK VINA RESULT:      -6.8      2.645      6.249
REMARK  5 active torsions:
REMARK  status: ('A' for Active; 'I' for Inactive)
REMARK    1  A    between atoms: C2_2  and  C3_3 
REMARK       I    between atoms: C3_3  and  N1_5 
REMARK    2  A    between atoms: N1_5  and  C4_6 
REMARK    3  A    between atoms: C8_10  and  N2_11 
REMARK    4  A    between atoms: N2_11  and  C9_12 
REMARK    5  A    between atoms: C14_17  and  N3_18 
ROOT
HETATM    1  C4  UNL     1      26.095   0.820  52.387  1.00  0.00     0.037 A 
HETATM    2  C5  UNL     1      26.418   1.691  51.366  1.00  0.00     0.029 A 
HETATM    3  C6  UNL     1      25.469   2.602  50.910  1.00  0.00     0.004 A 
HETATM    4  C7  UNL     1      24.207   2.646  51.464  1.00  0.00     0.029 A 
HETATM    5  C8  UNL     1      23.947   1.751  52.480  1.00  0.00     0.034 A 
HETATM    6  C16 UNL     1      24.831   0.822  52.984  1.00  0.00     0.059 A 
ENDROOT
BRANCH   5   7
HETATM    7  N2  UNL     1      22.659   1.762  53.080  1.00  0.00    -0.354 N 
HETATM    8  H8  UNL     1      22.397   2.316  53.922  1.00  0.00     0.166 HD
BRANCH   7   9
HETATM    9  C9  UNL     1      21.458   1.113  52.776  1.00  0.00     0.061 A 
HETATM   10  C10 UNL     1      20.690   1.346  51.633  1.00  0.00     0.032 A 
HETATM   11  C11 UNL     1      19.509   0.697  51.346  1.00  0.00     0.002 A 
HETATM   12  C12 UNL     1      19.035  -0.245  52.226  1.00  0.00     0.002 A 
HETATM   13  C13 UNL     1      19.746  -0.519  53.371  1.00  0.00     0.034 A 
HETATM   14  C14 UNL     1      20.924   0.154  53.617  1.00  0.00     0.082 A 
BRANCH  14  15
HETATM   15  N3  UNL     1      21.563  -0.221  54.830  1.00  0.00    -0.270 NA
HETATM   16  C15 UNL     1      22.152  -1.377  54.961  1.00  0.00     0.149 C 
ENDBRANCH  14  15
ENDBRANCH   7   9
ENDBRANCH   5   7
BRANCH   1  17
HETATM   17  N1  UNL     1      27.052  -0.114  52.862  1.00  0.00    -0.324 N 
HETATM   18  C3  UNL     1      27.883   0.483  53.861  1.00  0.00     0.244 C 
HETATM   19  O1  UNL     1      27.699   1.685  54.197  1.00  0.00    -0.268 OA
HETATM   20  H4  UNL     1      27.282  -1.111  52.651  1.00  0.00     0.169 HD
BRANCH  18  21
HETATM   21  C2  UNL     1      28.967  -0.142  54.579  1.00  0.00     0.064 C 
HETATM   22  C1  UNL     1      29.778  -0.148  53.527  1.00  0.00     0.017 C 
ENDBRANCH  18  21
ENDBRANCH   1  17
TORSDOF 5
ENDMDL
MODEL 6
REMARK VINA RESULT:      -6.7      2.669      6.119
REMARK  5 active torsions:
REMARK  status: ('A' for Active; 'I' for Inactive)
REMARK    1  A    between atoms: C2_2  and  C3_3 
REMARK       I    between atoms: C3_3  and  N1_5 
REMARK    2  A    between atoms: N1_5  and  C4_6 
REMARK    3  A    between atoms: C8_10  and  N2_11 
REMARK    4  A    between atoms: N2_11  and  C9_12 
REMARK    5  A    between atoms: C14_17  and  N3_18 
ROOT
HETATM    1  C4  UNL     1      26.487   2.043  52.904  1.00  0.00     0.037 A 
HETATM    2  C5  UNL     1      26.730   2.393  51.591  1.00  0.00     0.029 A 
HETATM    3  C6  UNL     1      25.662   2.589  50.719  1.00  0.00     0.004 A 
HETATM    4  C7  UNL     1      24.360   2.436  51.150  1.00  0.00     0.029 A 
HETATM    5  C8  UNL     1      24.184   2.086  52.471  1.00  0.00     0.034 A 
HETATM    6  C16 UNL     1      25.188   1.875  53.392  1.00  0.00     0.059 A 
ENDROOT
BRANCH   5   7
HETATM    7  N2  UNL     1      22.860   1.918  52.957  1.00  0.00    -0.354 N 
HETATM    8  H8  UNL     1      22.187   2.692  53.137  1.00  0.00     0.166 HD
BRANCH   7   9
HETATM    9  C9  UNL     1      22.108   0.793  53.311  1.00  0.00     0.061 A 
HETATM   10  C10 UNL     1      22.600  -0.310  54.012  1.00  0.00     0.032 A 
HETATM   11  C11 UNL     1      21.845  -1.411  54.355  1.00  0.00     0.002 A 
HETATM   12  C12 UNL     1      20.521  -1.449  53.995  1.00  0.00     0.002 A 
HETATM   13  C13 UNL     1      19.977  -0.393  53.303  1.00  0.00     0.034 A 
HETATM   14  C14 UNL     1      20.768   0.689  52.981  1.00  0.00     0.082 A 
BRANCH  14  15
HETATM   15  N3  UNL     1      20.089   1.713  52.268  1.00  0.00    -0.270 NA
HETATM   16  C15 UNL     1      18.895   1.525  51.779  1.00  0.00     0.149 C 
ENDBRANCH  14  15
ENDBRANCH   7   9
ENDBRANCH   5   7
BRANCH   1  17
HETATM   17  N1  UNL     1      27.565   1.841  53.803  1.00  0.00    -0.324 N 
HETATM   18  C3  UNL     1      27.961   0.467  53.811  1.00  0.00     0.244 C 
HETATM   19  O1  UNL     1      27.363  -0.365  53.075  1.00  0.00    -0.268 OA
HETATM   20  H4  UNL     1      28.120   2.452  54.445  1.00  0.00     0.169 HD
BRANCH  18  21
HETATM   21  C2  UNL     1      29.017  -0.131  54.592  1.00  0.00     0.064 C 
HETATM   22  C1  UNL     1      29.792  -0.352  53.536  1.00  0.00     0.017 C 
ENDBRANCH  18  21
ENDBRANCH   1  17
TORSDOF 5
ENDMDL
MODEL 7
REMARK VINA RESULT:      -6.7      2.512      4.144
REMARK  5 active torsions:
REMARK  status: ('A' for Active; 'I' for Inactive)
REMARK    1  A    between atoms: C2_2  and  C3_3 
REMARK       I    between atoms: C3_3  and  N1_5 
REMARK    2  A    between atoms: N1_5  and  C4_6 
REMARK    3  A    between atoms: C8_10  and  N2_11 
REMARK    4  A    between atoms: N2_11  and  C9_12 
REMARK    5  A    between atoms: C14_17  and  N3_18 
ROOT
HETATM    1  C4  UNL     1      22.304   0.726  51.406  1.00  0.00     0.037 A 
HETATM    2  C5  UNL     1      22.568   1.778  50.551  1.00  0.00     0.029 A 
HETATM    3  C6  UNL     1      23.784   2.451  50.640  1.00  0.00     0.004 A 
HETATM    4  C7  UNL     1      24.730   2.082  51.573  1.00  0.00     0.029 A 
HETATM    5  C8  UNL     1      24.406   1.025  52.396  1.00  0.00     0.034 A 
HETATM    6  C16 UNL     1      23.228   0.311  52.369  1.00  0.00     0.059 A 
ENDROOT
BRANCH   5   7
HETATM    7  N2  UNL     1      25.353   0.612  53.372  1.00  0.00    -0.354 N 
HETATM    8  H8  UNL     1      25.311   0.852  54.384  1.00  0.00     0.166 HD
BRANCH   7   9
HETATM    9  C9  UNL     1      26.515  -0.163  53.306  1.00  0.00     0.061 A 
HETATM   10  C10 UNL     1      26.574  -1.479  52.842  1.00  0.00     0.032 A 
HETATM   11  C11 UNL     1      27.728  -2.230  52.782  1.00  0.00     0.002 A 
HETATM   12  C12 UNL     1      28.910  -1.670  53.201  1.00  0.00     0.002 A 
HETATM   13  C13 UNL     1      28.917  -0.377  53.669  1.00  0.00     0.034 A 
HETATM   14  C14 UNL     1      27.739   0.337  53.711  1.00  0.00     0.082 A 
BRANCH  14  15
HETATM   15  N3  UNL     1      27.881   1.660  54.213  1.00  0.00    -0.270 NA
HETATM   16  C15 UNL     1      28.679   2.521  53.648  1.00  0.00     0.149 C 
ENDBRANCH  14  15
ENDBRANCH   7   9
ENDBRANCH   5   7
BRANCH   1  17
HETATM   17  N1  UNL     1      21.070   0.031  51.327  1.00  0.00    -0.324 N 
HETATM   18  C3  UNL     1      20.065   0.704  52.090  1.00  0.00     0.244 C 
HETATM   19  O1  UNL     1      20.350   1.766  52.708  1.00  0.00    -0.268 OA
HETATM   20  H4  UNL     1      20.738  -0.838  50.852  1.00  0.00     0.169 HD
BRANCH  18  21
HETATM   21  C2  UNL     1      18.687   0.309  52.256  1.00  0.00     0.064 C 
HETATM   22  C1  UNL     1      18.984  -0.704  53.064  1.00  0.00     0.017 C 
ENDBRANCH  18  21
ENDBRANCH   1  17
TORSDOF 5
ENDMDL
MODEL 8
REMARK VINA RESULT:      -6.7      2.943      4.521
REMARK  5 active torsions:
REMARK  status: ('A' for Active; 'I' for Inactive)
REMARK    1  A    between atoms: C2_2  and  C3_3 
REMARK       I    between atoms: C3_3  and  N1_5 
REMARK    2  A    between atoms: N1_5  and  C4_6 
REMARK    3  A    between atoms: C8_10  and  N2_11 
REMARK    4  A    between atoms: N2_11  and  C9_12 
REMARK    5  A    between atoms: C14_17  and  N3_18 
ROOT
HETATM    1  C4  UNL     1      22.153   0.315  53.730  1.00  0.00     0.037 A 
HETATM    2  C5  UNL     1      22.006  -0.527  54.814  1.00  0.00     0.029 A 
HETATM    3  C6  UNL     1      23.098  -1.259  55.273  1.00  0.00     0.004 A 
HETATM    4  C7  UNL     1      24.328  -1.155  54.658  1.00  0.00     0.029 A 
HETATM    5  C8  UNL     1      24.410  -0.297  53.582  1.00  0.00     0.034 A 
HETATM    6  C16 UNL     1      23.377   0.458  53.070  1.00  0.00     0.059 A 
ENDROOT
BRANCH   5   7
HETATM    7  N2  UNL     1      25.659  -0.160  52.919  1.00  0.00    -0.354 N 
HETATM    8  H8  UNL     1      25.882  -0.548  51.978  1.00  0.00     0.166 HD
BRANCH   7   9
HETATM    9  C9  UNL     1      26.859   0.468  53.264  1.00  0.00     0.061 A 
HETATM   10  C10 UNL     1      27.045   1.850  53.346  1.00  0.00     0.032 A 
HETATM   11  C11 UNL     1      28.235   2.455  53.690  1.00  0.00     0.002 A 
HETATM   12  C12 UNL     1      29.323   1.668  53.975  1.00  0.00     0.002 A 
HETATM   13  C13 UNL     1      29.205   0.300  53.912  1.00  0.00     0.034 A 
HETATM   14  C14 UNL     1      27.995  -0.262  53.564  1.00  0.00     0.082 A 
BRANCH  14  15
HETATM   15  N3  UNL     1      28.003  -1.683  53.536  1.00  0.00    -0.270 NA
HETATM   16  C15 UNL     1      29.072  -2.352  53.208  1.00  0.00     0.149 C 
ENDBRANCH  14  15
ENDBRANCH   7   9
ENDBRANCH   5   7
BRANCH   1  17
HETATM   17  N1  UNL     1      21.049   1.067  53.252  1.00  0.00    -0.324 N 
HETATM   18  C3  UNL     1      20.621   0.576  51.979  1.00  0.00     0.244 C 
HETATM   19  O1  UNL     1      21.217  -0.402  51.449  1.00  0.00    -0.268 OA
HETATM   20  H4  UNL     1      20.495   1.878  53.608  1.00  0.00     0.169 HD
BRANCH  18  21
HETATM   21  C2  UNL     1      19.533   1.076  51.174  1.00  0.00     0.064 C 
HETATM   22  C1  UNL     1      18.682   0.143  51.588  1.00  0.00     0.017 C 
ENDBRANCH  18  21
ENDBRANCH   1  17
TORSDOF 5
ENDMDL
MODEL 9
REMARK VINA RESULT:      -6.7      2.341      5.344
REMARK  5 active torsions:
REMARK  status: ('A' for Active; 'I' for Inactive)
REMARK    1  A    between atoms: C2_2  and  C3_3 
REMARK       I    between atoms: C3_3  and  N1_5 
REMARK    2  A    between atoms: N1_5  and  C4_6 
REMARK    3  A    between atoms: C8_10  and  N2_11 
REMARK    4  A    between atoms: N2_11  and  C9_12 
REMARK    5  A    between atoms: C14_17  and  N3_18 
ROOT
HETATM    1  C4  UNL     1      26.280   2.200  51.750  1.00  0.00     0.037 A 
HETATM    2  C5  UNL     1      26.877   0.958  51.834  1.00  0.00     0.029 A 
HETATM    3  C6  UNL     1      26.161  -0.120  52.347  1.00  0.00     0.004 A 
HETATM    4  C7  UNL     1      24.859   0.036  52.775  1.00  0.00     0.029 A 
HETATM    5  C8  UNL     1      24.320   1.300  52.665  1.00  0.00     0.034 A 
HETATM    6  C16 UNL     1      24.964   2.413  52.170  1.00  0.00     0.059 A 
ENDROOT
BRANCH   5   7
HETATM    7  N2  UNL     1      22.981   1.504  53.095  1.00  0.00    -0.354 N 
HETATM    8  H8  UNL     1      22.696   2.100  53.900  1.00  0.00     0.166 HD
BRANCH   7   9
HETATM    9  C9  UNL     1      21.748   1.033  52.634  1.00  0.00     0.061 A 
HETATM   10  C10 UNL     1      21.228   1.266  51.359  1.00  0.00     0.032 A 
HETATM   11  C11 UNL     1      20.010   0.794  50.919  1.00  0.00     0.002 A 
HETATM   12  C12 UNL     1      19.240   0.042  51.771  1.00  0.00     0.002 A 
HETATM   13  C13 UNL     1      19.697  -0.223  53.040  1.00  0.00     0.034 A 
HETATM   14  C14 UNL     1      20.921   0.270  53.439  1.00  0.00     0.082 A 
BRANCH  14  15
HETATM   15  N3  UNL     1      21.279  -0.074  54.771  1.00  0.00    -0.270 NA
HETATM   16  C15 UNL     1      22.039  -1.101  55.028  1.00  0.00     0.149 C 
ENDBRANCH  14  15
ENDBRANCH   7   9
ENDBRANCH   5   7
BRANCH   1  17
HETATM   17  N1  UNL     1      26.998   3.307  51.230  1.00  0.00    -0.324 N 
HETATM   18  C3  UNL     1      26.616   3.562  49.876  1.00  0.00     0.244 C 
HETATM   19  O1  UNL     1      25.746   2.837  49.320  1.00  0.00    -0.268 OA
HETATM   20  H4  UNL     1      27.724   3.960  51.602  1.00  0.00     0.169 HD
BRANCH  18  21
HETATM   21  C2  UNL     1      27.120   4.600  49.009  1.00  0.00     0.064 C 
HETATM   22  C1  UNL     1      26.079   5.400  49.216  1.00  0.00     0.017 C 
ENDBRANCH  18  21
ENDBRANCH   1  17
TORSDOF 5
ENDMDL
