MODEL 1
REMARK VINA RESULT:      -8.6      0.000      0.000
REMARK  4 active torsions:
REMARK  status: ('A' for Active; 'I' for Inactive)
REMARK    1  A    between atoms: C2_2  and  O1_4 
REMARK    2  A    between atoms: O1_4  and  C4_5 
REMARK    3  A    between atoms: C6_7  and  N1_8 
REMARK    4  A    between atoms: N1_8  and  C7_9 
ROOT
HETATM    1  C4  UNL     1      25.731   2.172  52.935  1.00  0.00     0.072 C 
HETATM    2  C5  UNL     1      24.967   1.168  53.416  1.00  0.00     0.087 C 
HETATM    3  C6  UNL     1      25.241  -0.197  53.916  1.00  0.00     0.132 C 
HETATM    4  N2  UNL     1      26.306  -0.897  54.083  1.00  0.00    -0.215 NA
HETATM    5  C13 UNL     1      27.697  -0.709  53.879  1.00  0.00     0.139 A 
HETATM    6  N3  UNL     1      28.382  -1.751  53.481  1.00  0.00    -0.245 NA
HETATM    7  C14 UNL     1      29.734  -1.338  53.340  1.00  0.00     0.116 A 
HETATM    8  C15 UNL     1      29.866  -0.035  53.657  1.00  0.00     0.009 A 
HETATM    9  C16 UNL     1      28.527   0.503  54.045  1.00  0.00     0.104 A 
HETATM   10  C17 UNL     1      28.189   1.616  53.170  1.00  0.00    -0.008 C 
HETATM   11  C18 UNL     1      27.157   2.281  52.720  1.00  0.00     0.034 C 
ENDROOT
BRANCH   3  12
HETATM   12  N1  UNL     1      24.083  -0.942  54.330  1.00  0.00    -0.341 N 
HETATM   13  H9  UNL     1      24.306  -1.779  54.941  1.00  0.00     0.167 HD
BRANCH  12  14
HETATM   14  C7  UNL     1      22.776  -0.502  53.911  1.00  0.00     0.035 A 
HETATM   15  C8  UNL     1      21.723  -0.256  54.768  1.00  0.00     0.032 A 
HETATM   16  C9  UNL     1      20.504   0.185  54.295  1.00  0.00     0.046 A 
HETATM   17  C10 UNL     1      20.372   0.374  52.925  1.00  0.00     0.138 A 
HETATM   18  F1  UNL     1      19.179   0.807  52.401  1.00  0.00    -0.204 F 
HETATM   19  C11 UNL     1      21.391   0.145  52.029  1.00  0.00     0.074 A 
HETATM   20 CL1  UNL     1      21.255   0.380  50.297  1.00  0.00    -0.081 Cl
HETATM   21  C12 UNL     1      22.578  -0.294  52.575  1.00  0.00     0.056 A 
ENDBRANCH  12  14
ENDBRANCH   3  12
BRANCH   1  22
HETATM   22  O1  UNL     1      24.783   3.121  52.682  1.00  0.00    -0.347 OA
BRANCH  22  23
HETATM   23  C2  UNL     1      23.720   2.936  51.822  1.00  0.00     0.120 C 
HETATM   24  C1  UNL     1      24.218   3.378  50.427  1.00  0.00     0.040 C 
HETATM   25  C3  UNL     1      22.496   3.789  52.117  1.00  0.00     0.040 C 
ENDBRANCH  22  23
ENDBRANCH   1  22
TORSDOF 4
ENDMDL
MODEL 2
REMARK VINA RESULT:      -8.4      3.313      6.353
REMARK  4 active torsions:
REMARK  status: ('A' for Active; 'I' for Inactive)
REMARK    1  A    between atoms: C2_2  and  O1_4 
REMARK    2  A    between atoms: O1_4  and  C4_5 
REMARK    3  A    between atoms: C6_7  and  N1_8 
REMARK    4  A    between atoms: N1_8  and  C7_9 
ROOT
HETATM    1  C4  UNL     1      24.132   2.908  49.990  1.00  0.00     0.072 C 
HETATM    2  C5  UNL     1      24.804   2.841  51.159  1.00  0.00     0.087 C 
HETATM    3  C6  UNL     1      24.506   2.284  52.498  1.00  0.00     0.132 C 
HETATM    4  N2  UNL     1      23.509   1.654  53.008  1.00  0.00    -0.215 NA
HETATM    5  C13 UNL     1      22.246   1.195  52.553  1.00  0.00     0.139 A 
HETATM    6  N3  UNL     1      21.256   1.245  53.408  1.00  0.00    -0.245 NA
HETATM    7  C14 UNL     1      20.103   0.745  52.746  1.00  0.00     0.116 A 
HETATM    8  C15 UNL     1      20.400   0.390  51.481  1.00  0.00     0.009 A 
HETATM    9  C16 UNL     1      21.850   0.655  51.235  1.00  0.00     0.104 A 
HETATM   10  C17 UNL     1      21.984   1.576  50.116  1.00  0.00    -0.008 C 
HETATM   11  C18 UNL     1      22.818   2.443  49.605  1.00  0.00     0.034 C 
ENDROOT
BRANCH   3  12
HETATM   12  N1  UNL     1      25.544   2.456  53.477  1.00  0.00    -0.341 N 
HETATM   13  H9  UNL     1      25.348   3.224  54.182  1.00  0.00     0.167 HD
BRANCH  12  14
HETATM   14  C7  UNL     1      26.703   1.600  53.433  1.00  0.00     0.035 A 
HETATM   15  C8  UNL     1      27.985   2.004  53.743  1.00  0.00     0.032 A 
HETATM   16  C9  UNL     1      29.044   1.120  53.698  1.00  0.00     0.046 A 
HETATM   17  C10 UNL     1      28.776  -0.192  53.329  1.00  0.00     0.138 A 
HETATM   18  F1  UNL     1      29.793  -1.111  53.264  1.00  0.00    -0.204 F 
HETATM   19  C11 UNL     1      27.516  -0.646  53.012  1.00  0.00     0.074 A 
HETATM   20 CL1  UNL     1      27.147  -2.296  52.549  1.00  0.00    -0.081 Cl
HETATM   21  C12 UNL     1      26.509   0.294  53.078  1.00  0.00     0.056 A 
ENDBRANCH  12  14
ENDBRANCH   3  12
BRANCH   1  22
HETATM   22  O1  UNL     1      25.041   3.559  49.206  1.00  0.00    -0.347 OA
BRANCH  22  23
HETATM   23  C2  UNL     1      25.526   4.822  49.478  1.00  0.00     0.120 C 
HETATM   24  C1  UNL     1      24.540   5.809  48.814  1.00  0.00     0.040 C 
HETATM   25  C3  UNL     1      26.890   5.130  48.880  1.00  0.00     0.040 C 
ENDBRANCH  22  23
ENDBRANCH   1  22
TORSDOF 4
ENDMDL
MODEL 3
REMARK VINA RESULT:      -8.4      2.854      4.756
REMARK  4 active torsions:
REMARK  status: ('A' for Active; 'I' for Inactive)
REMARK    1  A    between atoms: C2_2  and  O1_4 
REMARK    2  A    between atoms: O1_4  and  C4_5 
REMARK    3  A    between atoms: C6_7  and  N1_8 
REMARK    4  A    between atoms: N1_8  and  C7_9 
ROOT
HETATM    1  C4  UNL     1      24.026  -0.014  53.184  1.00  0.00     0.072 C 
HETATM    2  C5  UNL     1      23.968   1.332  53.100  1.00  0.00     0.087 C 
HETATM    3  C6  UNL     1      24.969   2.421  53.168  1.00  0.00     0.132 C 
HETATM    4  N2  UNL     1      26.245   2.461  53.313  1.00  0.00    -0.215 NA
HETATM    5  C13 UNL     1      27.289   1.513  53.472  1.00  0.00     0.139 A 
HETATM    6  N3  UNL     1      28.279   1.851  54.258  1.00  0.00    -0.245 NA
HETATM    7  C14 UNL     1      29.195   0.765  54.272  1.00  0.00     0.116 A 
HETATM    8  C15 UNL     1      28.754  -0.236  53.486  1.00  0.00     0.009 A 
HETATM    9  C16 UNL     1      27.449   0.168  52.881  1.00  0.00     0.104 A 
HETATM   10  C17 UNL     1      26.430  -0.803  53.254  1.00  0.00    -0.008 C 
HETATM   11  C18 UNL     1      25.134  -0.921  53.384  1.00  0.00     0.034 C 
ENDROOT
BRANCH   3  12
HETATM   12  N1  UNL     1      24.438   3.750  53.035  1.00  0.00    -0.341 N 
HETATM   13  H9  UNL     1      24.388   4.286  53.948  1.00  0.00     0.167 HD
BRANCH  12  14
HETATM   14  C7  UNL     1      24.051   4.227  51.731  1.00  0.00     0.035 A 
HETATM   15  C8  UNL     1      24.549   3.740  50.541  1.00  0.00     0.032 A 
HETATM   16  C9  UNL     1      24.113   4.232  49.328  1.00  0.00     0.046 A 
HETATM   17  C10 UNL     1      23.154   5.237  49.345  1.00  0.00     0.138 A 
HETATM   18  F1  UNL     1      22.689   5.766  48.167  1.00  0.00    -0.204 F 
HETATM   19  C11 UNL     1      22.624   5.756  50.504  1.00  0.00     0.074 A 
HETATM   20 CL1  UNL     1      21.410   7.020  50.556  1.00  0.00    -0.081 Cl
HETATM   21  C12 UNL     1      23.108   5.215  51.676  1.00  0.00     0.056 A 
ENDBRANCH  12  14
ENDBRANCH   3  12
BRANCH   1  22
HETATM   22  O1  UNL     1      22.710  -0.340  53.027  1.00  0.00    -0.347 OA
BRANCH  22  23
HETATM   23  C2  UNL     1      21.769  -0.247  54.032  1.00  0.00     0.120 C 
HETATM   24  C1  UNL     1      21.545  -1.688  54.541  1.00  0.00     0.040 C 
HETATM   25  C3  UNL     1      20.404   0.257  53.591  1.00  0.00     0.040 C 
ENDBRANCH  22  23
ENDBRANCH   1  22
TORSDOF 4
ENDMDL
MODEL 4
REMARK VINA RESULT:      -8.4      3.397      6.402
REMARK  4 active torsions:
REMARK  status: ('A' for Active; 'I' for Inactive)
REMARK    1  A    between atoms: C2_2  and  O1_4 
REMARK    2  A    between atoms: O1_4  and  C4_5 
REMARK    3  A    between atoms: C6_7  and  N1_8 
REMARK    4  A    between atoms: N1_8  and  C7_9 
ROOT
HETATM    1  C4  UNL     1      24.058   2.116  51.115  1.00  0.00     0.072 C 
HETATM    2  C5  UNL     1      24.471   1.371  52.162  1.00  0.00     0.087 C 
HETATM    3  C6  UNL     1      23.816   0.399  53.067  1.00  0.00     0.132 C 
HETATM    4  N2  UNL     1      22.631  -0.088  53.158  1.00  0.00    -0.215 NA
HETATM    5  C13 UNL     1      21.406   0.060  52.457  1.00  0.00     0.139 A 
HETATM    6  N3  UNL     1      20.308   0.008  53.168  1.00  0.00    -0.245 NA
HETATM    7  C14 UNL     1      19.218   0.181  52.273  1.00  0.00     0.116 A 
HETATM    8  C15 UNL     1      19.663   0.338  51.011  1.00  0.00     0.009 A 
HETATM    9  C16 UNL     1      21.155   0.271  51.015  1.00  0.00     0.104 A 
HETATM   10  C17 UNL     1      21.689   1.508  50.463  1.00  0.00    -0.008 C 
HETATM   11  C18 UNL     1      22.770   2.244  50.469  1.00  0.00     0.034 C 
ENDROOT
BRANCH   3  12
HETATM   12  N1  UNL     1      24.666  -0.160  54.082  1.00  0.00    -0.341 N 
HETATM   13  H9  UNL     1      24.170  -0.356  54.998  1.00  0.00     0.167 HD
BRANCH  12  14
HETATM   14  C7  UNL     1      26.053  -0.411  53.781  1.00  0.00     0.035 A 
HETATM   15  C8  UNL     1      26.511  -1.478  53.035  1.00  0.00     0.032 A 
HETATM   16  C9  UNL     1      27.855  -1.640  52.769  1.00  0.00     0.046 A 
HETATM   17  C10 UNL     1      28.735  -0.693  53.278  1.00  0.00     0.138 A 
HETATM   18  F1  UNL     1      30.082  -0.811  53.048  1.00  0.00    -0.204 F 
HETATM   19  C11 UNL     1      28.329   0.389  54.026  1.00  0.00     0.074 A 
HETATM   20 CL1  UNL     1      29.415   1.601  54.676  1.00  0.00    -0.081 Cl
HETATM   21  C12 UNL     1      26.973   0.485  54.251  1.00  0.00     0.056 A 
ENDBRANCH  12  14
ENDBRANCH   3  12
BRANCH   1  22
HETATM   22  O1  UNL     1      25.214   2.762  50.785  1.00  0.00    -0.347 OA
BRANCH  22  23
HETATM   23  C2  UNL     1      25.298   3.746  49.821  1.00  0.00     0.120 C 
HETATM   24  C1  UNL     1      26.780   3.793  49.387  1.00  0.00     0.040 C 
HETATM   25  C3  UNL     1      24.959   5.149  50.302  1.00  0.00     0.040 C 
ENDBRANCH  22  23
ENDBRANCH   1  22
TORSDOF 4
ENDMDL
MODEL 5
REMARK VINA RESULT:      -8.3      2.275      3.774
REMARK  4 active torsions:
REMARK  status: ('A' for Active; 'I' for Inactive)
REMARK    1  A    between atoms: C2_2  and  O1_4 
REMARK    2  A    between atoms: O1_4  and  C4_5 
REMARK    3  A    between atoms: C6_7  and  N1_8 
REMARK    4  A    between atoms: N1_8  and  C7_9 
ROOT
HETATM    1  C4  UNL     1      24.249  -0.049  53.375  1.00  0.00     0.072 C 
HETATM    2  C5  UNL     1      24.116   1.251  53.034  1.00  0.00     0.087 C 
HETATM    3  C6  UNL     1      25.053   2.387  52.887  1.00  0.00     0.132 C 
HETATM    4  N2  UNL     1      26.324   2.527  53.015  1.00  0.00    -0.215 NA
HETATM    5  C13 UNL     1      27.419   1.687  53.349  1.00  0.00     0.139 A 
HETATM    6  N3  UNL     1      28.383   2.225  54.051  1.00  0.00    -0.245 NA
HETATM    7  C14 UNL     1      29.359   1.216  54.269  1.00  0.00     0.116 A 
HETATM    8  C15 UNL     1      28.980   0.059  53.691  1.00  0.00     0.009 A 
HETATM    9  C16 UNL     1      27.658   0.265  53.027  1.00  0.00     0.104 A 
HETATM   10  C17 UNL     1      26.693  -0.673  53.584  1.00  0.00    -0.008 C 
HETATM   11  C18 UNL     1      25.405  -0.837  53.740  1.00  0.00     0.034 C 
ENDROOT
BRANCH   3  12
HETATM   12  N1  UNL     1      24.449   3.634  52.504  1.00  0.00    -0.341 N 
HETATM   13  H9  UNL     1      24.970   4.489  52.853  1.00  0.00     0.167 HD
BRANCH  12  14
HETATM   14  C7  UNL     1      23.251   3.619  51.703  1.00  0.00     0.035 A 
HETATM   15  C8  UNL     1      22.021   4.074  52.128  1.00  0.00     0.032 A 
HETATM   16  C9  UNL     1      20.921   4.049  51.294  1.00  0.00     0.046 A 
HETATM   17  C10 UNL     1      21.094   3.548  50.010  1.00  0.00     0.138 A 
HETATM   18  F1  UNL     1      20.033   3.494  49.143  1.00  0.00    -0.204 F 
HETATM   19  C11 UNL     1      22.300   3.083  49.537  1.00  0.00     0.074 A 
HETATM   20 CL1  UNL     1      22.549   2.451  47.921  1.00  0.00    -0.081 Cl
HETATM   21  C12 UNL     1      23.353   3.140  50.426  1.00  0.00     0.056 A 
ENDBRANCH  12  14
ENDBRANCH   3  12
BRANCH   1  22
HETATM   22  O1  UNL     1      22.955  -0.473  53.290  1.00  0.00    -0.347 OA
BRANCH  22  23
HETATM   23  C2  UNL     1      21.874   0.377  53.171  1.00  0.00     0.120 C 
HETATM   24  C1  UNL     1      20.942   0.049  54.359  1.00  0.00     0.040 C 
HETATM   25  C3  UNL     1      21.035   0.182  51.918  1.00  0.00     0.040 C 
ENDBRANCH  22  23
ENDBRANCH   1  22
TORSDOF 4
ENDMDL
MODEL 6
REMARK VINA RESULT:      -7.9      3.779      6.214
REMARK  4 active torsions:
REMARK  status: ('A' for Active; 'I' for Inactive)
REMARK    1  A    between atoms: C2_2  and  O1_4 
REMARK    2  A    between atoms: O1_4  and  C4_5 
REMARK    3  A    between atoms: C6_7  and  N1_8 
REMARK    4  A    between atoms: N1_8  and  C7_9 
ROOT
HETATM    1  C4  UNL     1      22.586   1.356  50.899  1.00  0.00     0.072 C 
HETATM    2  C5  UNL     1      23.466   1.122  51.896  1.00  0.00     0.087 C 
HETATM    3  C6  UNL     1      24.776   1.695  52.280  1.00  0.00     0.132 C 
HETATM    4  N2  UNL     1      25.523   2.627  51.808  1.00  0.00    -0.215 NA
HETATM    5  C13 UNL     1      25.461   3.539  50.723  1.00  0.00     0.139 A 
HETATM    6  N3  UNL     1      26.590   3.824  50.125  1.00  0.00    -0.245 NA
HETATM    7  C14 UNL     1      26.294   4.741  49.081  1.00  0.00     0.116 A 
HETATM    8  C15 UNL     1      24.974   5.013  49.050  1.00  0.00     0.009 A 
HETATM    9  C16 UNL     1      24.299   4.241  50.136  1.00  0.00     0.104 A 
HETATM   10  C17 UNL     1      23.281   3.382  49.550  1.00  0.00    -0.008 C 
HETATM   11  C18 UNL     1      22.605   2.289  49.794  1.00  0.00     0.034 C 
ENDROOT
BRANCH   3  12
HETATM   12  N1  UNL     1      25.380   1.112  53.447  1.00  0.00    -0.341 N 
HETATM   13  H9  UNL     1      25.033   1.522  54.361  1.00  0.00     0.167 HD
BRANCH  12  14
HETATM   14  C7  UNL     1      26.350   0.058  53.286  1.00  0.00     0.035 A 
HETATM   15  C8  UNL     1      26.053  -1.219  52.856  1.00  0.00     0.032 A 
HETATM   16  C9  UNL     1      27.041  -2.170  52.706  1.00  0.00     0.046 A 
HETATM   17  C10 UNL     1      28.347  -1.800  53.002  1.00  0.00     0.138 A 
HETATM   18  F1  UNL     1      29.366  -2.710  52.875  1.00  0.00    -0.204 F 
HETATM   19  C11 UNL     1      28.695  -0.540  53.433  1.00  0.00     0.074 A 
HETATM   20 CL1  UNL     1      30.334  -0.044  53.809  1.00  0.00    -0.081 Cl
HETATM   21  C12 UNL     1      27.656   0.356  53.560  1.00  0.00     0.056 A 
ENDBRANCH  12  14
ENDBRANCH   3  12
BRANCH   1  22
HETATM   22  O1  UNL     1      21.611   0.449  51.196  1.00  0.00    -0.347 OA
BRANCH  22  23
HETATM   23  C2  UNL     1      20.407   0.778  51.786  1.00  0.00     0.120 C 
HETATM   24  C1  UNL     1      20.267  -0.148  53.015  1.00  0.00     0.040 C 
HETATM   25  C3  UNL     1      19.178   0.522  50.928  1.00  0.00     0.040 C 
ENDBRANCH  22  23
ENDBRANCH   1  22
TORSDOF 4
ENDMDL
MODEL 7
REMARK VINA RESULT:      -7.9      3.566      6.624
REMARK  4 active torsions:
REMARK  status: ('A' for Active; 'I' for Inactive)
REMARK    1  A    between atoms: C2_2  and  O1_4 
REMARK    2  A    between atoms: O1_4  and  C4_5 
REMARK    3  A    between atoms: C6_7  and  N1_8 
REMARK    4  A    between atoms: N1_8  and  C7_9 
ROOT
HETATM    1  C4  UNL     1      24.989   0.558  52.581  1.00  0.00     0.072 C 
HETATM    2  C5  UNL     1      24.600   1.377  51.580  1.00  0.00     0.087 C 
HETATM    3  C6  UNL     1      23.290   1.810  51.044  1.00  0.00     0.132 C 
HETATM    4  N2  UNL     1      22.067   1.571  51.356  1.00  0.00    -0.215 NA
HETATM    5  C13 UNL     1      21.392   0.800  52.338  1.00  0.00     0.139 A 
HETATM    6  N3  UNL     1      20.274   0.226  51.972  1.00  0.00    -0.245 NA
HETATM    7  C14 UNL     1      19.779  -0.486  53.098  1.00  0.00     0.116 A 
HETATM    8  C15 UNL     1      20.605  -0.339  54.151  1.00  0.00     0.009 A 
HETATM    9  C16 UNL     1      21.752   0.528  53.745  1.00  0.00     0.104 A 
HETATM   10  C17 UNL     1      22.996  -0.202  53.942  1.00  0.00    -0.008 C 
HETATM   11  C18 UNL     1      24.237  -0.231  53.530  1.00  0.00     0.034 C 
ENDROOT
BRANCH   3  12
HETATM   12  N1  UNL     1      23.354   2.713  49.927  1.00  0.00    -0.341 N 
HETATM   13  H9  UNL     1      22.897   2.339  49.046  1.00  0.00     0.167 HD
BRANCH  12  14
HETATM   14  C7  UNL     1      23.990   3.995  50.093  1.00  0.00     0.035 A 
HETATM   15  C8  UNL     1      23.531   4.994  50.926  1.00  0.00     0.032 A 
HETATM   16  C9  UNL     1      24.207   6.190  51.050  1.00  0.00     0.046 A 
HETATM   17  C10 UNL     1      25.368   6.357  50.305  1.00  0.00     0.138 A 
HETATM   18  F1  UNL     1      26.076   7.530  50.386  1.00  0.00    -0.204 F 
HETATM   19  C11 UNL     1      25.869   5.393  49.460  1.00  0.00     0.074 A 
HETATM   20 CL1  UNL     1      27.332   5.573  48.513  1.00  0.00    -0.081 Cl
HETATM   21  C12 UNL     1      25.140   4.225  49.389  1.00  0.00     0.056 A 
ENDBRANCH  12  14
ENDBRANCH   3  12
BRANCH   1  22
HETATM   22  O1  UNL     1      26.347   0.655  52.480  1.00  0.00    -0.347 OA
BRANCH  22  23
HETATM   23  C2  UNL     1      27.195   0.731  53.566  1.00  0.00     0.120 C 
HETATM   24  C1  UNL     1      27.897   2.103  53.464  1.00  0.00     0.040 C 
HETATM   25  C3  UNL     1      28.308  -0.306  53.589  1.00  0.00     0.040 C 
ENDBRANCH  22  23
ENDBRANCH   1  22
TORSDOF 4
ENDMDL
MODEL 8
REMARK VINA RESULT:      -7.9      3.583      6.868
REMARK  4 active torsions:
REMARK  status: ('A' for Active; 'I' for Inactive)
REMARK    1  A    between atoms: C2_2  and  O1_4 
REMARK    2  A    between atoms: O1_4  and  C4_5 
REMARK    3  A    between atoms: C6_7  and  N1_8 
REMARK    4  A    between atoms: N1_8  and  C7_9 
ROOT
HETATM    1  C4  UNL     1      23.837  -0.129  53.555  1.00  0.00     0.072 C 
HETATM    2  C5  UNL     1      23.947   1.168  53.195  1.00  0.00     0.087 C 
HETATM    3  C6  UNL     1      23.014   2.174  52.641  1.00  0.00     0.132 C 
HETATM    4  N2  UNL     1      21.767   2.169  52.329  1.00  0.00    -0.215 NA
HETATM    5  C13 UNL     1      20.707   1.227  52.361  1.00  0.00     0.139 A 
HETATM    6  N3  UNL     1      19.835   1.285  51.387  1.00  0.00    -0.245 NA
HETATM    7  C14 UNL     1      18.877   0.261  51.618  1.00  0.00     0.116 A 
HETATM    8  C15 UNL     1      19.174  -0.420  52.741  1.00  0.00     0.009 A 
HETATM    9  C16 UNL     1      20.415   0.158  53.340  1.00  0.00     0.104 A 
HETATM   10  C17 UNL     1      21.425  -0.886  53.445  1.00  0.00    -0.008 C 
HETATM   11  C18 UNL     1      22.720  -1.046  53.528  1.00  0.00     0.034 C 
ENDROOT
BRANCH   3  12
HETATM   12  N1  UNL     1      23.586   3.469  52.392  1.00  0.00    -0.341 N 
HETATM   13  H9  UNL     1      23.169   4.245  52.983  1.00  0.00     0.167 HD
BRANCH  12  14
HETATM   14  C7  UNL     1      24.640   3.598  51.418  1.00  0.00     0.035 A 
HETATM   15  C8  UNL     1      25.669   2.693  51.255  1.00  0.00     0.032 A 
HETATM   16  C9  UNL     1      26.632   2.873  50.284  1.00  0.00     0.046 A 
HETATM   17  C10 UNL     1      26.533   3.997  49.473  1.00  0.00     0.138 A 
HETATM   18  F1  UNL     1      27.467   4.227  48.495  1.00  0.00    -0.204 F 
HETATM   19  C11 UNL     1      25.526   4.928  49.594  1.00  0.00     0.074 A 
HETATM   20 CL1  UNL     1      25.372   6.352  48.584  1.00  0.00    -0.081 Cl
HETATM   21  C12 UNL     1      24.601   4.682  50.586  1.00  0.00     0.056 A 
ENDBRANCH  12  14
ENDBRANCH   3  12
BRANCH   1  22
HETATM   22  O1  UNL     1      25.108  -0.388  53.979  1.00  0.00    -0.347 OA
BRANCH  22  23
HETATM   23  C2  UNL     1      26.237  -0.125  53.230  1.00  0.00     0.120 C 
HETATM   24  C1  UNL     1      26.643  -1.470  52.586  1.00  0.00     0.040 C 
HETATM   25  C3  UNL     1      27.447   0.336  54.028  1.00  0.00     0.040 C 
ENDBRANCH  22  23
ENDBRANCH   1  22
TORSDOF 4
ENDMDL
MODEL 9
REMARK VINA RESULT:      -7.7      3.151      5.184
REMARK  4 active torsions:
REMARK  status: ('A' for Active; 'I' for Inactive)
REMARK    1  A    between atoms: C2_2  and  O1_4 
REMARK    2  A    between atoms: O1_4  and  C4_5 
REMARK    3  A    between atoms: C6_7  and  N1_8 
REMARK    4  A    between atoms: N1_8  and  C7_9 
ROOT
HETATM    1  C4  UNL     1      25.514   1.689  51.680  1.00  0.00     0.072 C 
HETATM    2  C5  UNL     1      24.270   2.089  52.024  1.00  0.00     0.087 C 
HETATM    3  C6  UNL     1      23.463   3.302  51.768  1.00  0.00     0.132 C 
HETATM    4  N2  UNL     1      23.657   4.390  51.113  1.00  0.00    -0.215 NA
HETATM    5  C13 UNL     1      24.707   4.945  50.336  1.00  0.00     0.139 A 
HETATM    6  N3  UNL     1      24.879   6.240  50.415  1.00  0.00    -0.245 NA
HETATM    7  C14 UNL     1      25.972   6.571  49.569  1.00  0.00     0.116 A 
HETATM    8  C15 UNL     1      26.462   5.466  48.974  1.00  0.00     0.009 A 
HETATM    9  C16 UNL     1      25.668   4.285  49.427  1.00  0.00     0.104 A 
HETATM   10  C17 UNL     1      26.561   3.322  50.055  1.00  0.00    -0.008 C 
HETATM   11  C18 UNL     1      26.553   2.329  50.906  1.00  0.00     0.034 C 
ENDROOT
BRANCH   3  12
HETATM   12  N1  UNL     1      22.152   3.301  52.358  1.00  0.00    -0.341 N 
HETATM   13  H9  UNL     1      22.035   4.000  53.147  1.00  0.00     0.167 HD
BRANCH  12  14
HETATM   14  C7  UNL     1      21.149   2.403  51.844  1.00  0.00     0.035 A 
HETATM   15  C8  UNL     1      20.628   2.461  50.568  1.00  0.00     0.032 A 
HETATM   16  C9  UNL     1      19.683   1.552  50.139  1.00  0.00     0.046 A 
HETATM   17  C10 UNL     1      19.272   0.574  51.036  1.00  0.00     0.138 A 
HETATM   18  F1  UNL     1      18.331  -0.352  50.662  1.00  0.00    -0.204 F 
HETATM   19  C11 UNL     1      19.761   0.472  52.318  1.00  0.00     0.074 A 
HETATM   20 CL1  UNL     1      19.265  -0.754  53.469  1.00  0.00    -0.081 Cl
HETATM   21  C12 UNL     1      20.701   1.415  52.676  1.00  0.00     0.056 A 
ENDBRANCH  12  14
ENDBRANCH   3  12
BRANCH   1  22
HETATM   22  O1  UNL     1      25.562   0.459  52.271  1.00  0.00    -0.347 OA
BRANCH  22  23
HETATM   23  C2  UNL     1      26.665  -0.028  52.942  1.00  0.00     0.120 C 
HETATM   24  C1  UNL     1      26.738  -1.534  52.605  1.00  0.00     0.040 C 
HETATM   25  C3  UNL     1      26.586   0.056  54.458  1.00  0.00     0.040 C 
ENDBRANCH  22  23
ENDBRANCH   1  22
TORSDOF 4
ENDMDL
