MODEL 1
REMARK VINA RESULT:      -7.6      0.000      0.000
REMARK  7 active torsions:
REMARK  status: ('A' for Active; 'I' for Inactive)
REMARK    1  A    between atoms: C3_3  and  C4_4 
REMARK    2  A    between atoms: C4_4  and  N2_18 
REMARK    3  A    between atoms: C5_5  and  C6_6 
REMARK    4  A    between atoms: C6_6  and  N1_7 
REMARK       I    between atoms: N1_7  and  C7_8 
REMARK    5  A    between atoms: C7_8  and  C8_10 
REMARK    6  A    between atoms: C13_15  and  O2_16 
REMARK    7  A    between atoms: N2_18  and  C15_19 
ROOT
HETATM    1  C4  UNL     1      25.174   2.277  52.319  1.00  0.00     0.046 C 
HETATM    2  C5  UNL     1      24.096   1.490  52.205  1.00  0.00     0.022 C 
ENDROOT
BRANCH   2   3
HETATM    3  C6  UNL     1      23.521   0.466  53.070  1.00  0.00     0.152 C 
BRANCH   3   4
HETATM    4  N1  UNL     1      22.288  -0.100  52.743  1.00  0.00    -0.353 N 
HETATM    5  C7  UNL     1      20.957   0.038  52.696  1.00  0.00     0.254 C 
HETATM    6  O1  UNL     1      20.576   1.189  53.145  1.00  0.00    -0.268 OA
HETATM    7  H9  UNL     1      22.380  -1.075  52.357  1.00  0.00     0.163 HD
BRANCH   5   8
HETATM    8  C8  UNL     1      19.624  -0.240  52.474  1.00  0.00     0.065 A 
HETATM    9  C9  UNL     1      19.775   0.517  51.169  1.00  0.00     0.020 A 
HETATM   10  C10 UNL     1      18.855   0.821  50.107  1.00  0.00     0.001 A 
HETATM   11  C11 UNL     1      17.528   0.361  50.221  1.00  0.00     0.003 A 
HETATM   12  C12 UNL     1      17.319  -0.349  51.406  1.00  0.00     0.038 A 
HETATM   13  C13 UNL     1      18.350  -0.507  52.262  1.00  0.00     0.084 A 
BRANCH  13  14
HETATM   14  O2  UNL     1      18.401  -1.186  53.533  1.00  0.00    -0.355 OA
HETATM   15  C14 UNL     1      17.781  -2.442  53.577  1.00  0.00     0.210 C 
ENDBRANCH  13  14
ENDBRANCH   5   8
ENDBRANCH   3   4
ENDBRANCH   2   3
BRANCH   1  16
HETATM   16  C3  UNL     1      25.517   3.240  51.253  1.00  0.00     0.025 C 
HETATM   17  C2  UNL     1      26.426   3.017  50.341  1.00  0.00    -0.029 C 
HETATM   18  C1  UNL     1      26.788   3.962  49.258  1.00  0.00     0.036 C 
ENDBRANCH   1  16
BRANCH   1  19
HETATM   19  N2  UNL     1      25.729   1.989  53.610  1.00  0.00    -0.189 N 
HETATM   20  H17 UNL     1      25.099   2.061  54.458  1.00  0.00     0.184 HD
BRANCH  19  21
HETATM   21  C15 UNL     1      27.108   1.616  53.791  1.00  0.00     0.722 A 
HETATM   22  N3  UNL     1      27.981   2.468  54.167  1.00  0.00    -0.100 NA
HETATM   23  C16 UNL     1      29.262   1.782  54.256  1.00  0.00     0.223 A 
HETATM   24  C17 UNL     1      28.947   0.389  53.861  1.00  0.00     0.048 A 
HETATM   25  C18 UNL     1      29.821  -0.794  53.749  1.00  0.00     0.068 C 
HETATM   26  N4  UNL     1      27.668   0.341  53.598  1.00  0.00    -0.071 NA
ENDBRANCH  19  21
ENDBRANCH   1  19
TORSDOF 7
ENDMDL
MODEL 2
REMARK VINA RESULT:      -7.5      2.273      3.392
REMARK  7 active torsions:
REMARK  status: ('A' for Active; 'I' for Inactive)
REMARK    1  A    between atoms: C3_3  and  C4_4 
REMARK    2  A    between atoms: C4_4  and  N2_18 
REMARK    3  A    between atoms: C5_5  and  C6_6 
REMARK    4  A    between atoms: C6_6  and  N1_7 
REMARK       I    between atoms: N1_7  and  C7_8 
REMARK    5  A    between atoms: C7_8  and  C8_10 
REMARK    6  A    between atoms: C13_15  and  O2_16 
REMARK    7  A    between atoms: N2_18  and  C15_19 
ROOT
HETATM    1  C4  UNL     1      25.822   3.452  50.337  1.00  0.00     0.046 C 
HETATM    2  C5  UNL     1      24.644   3.299  49.721  1.00  0.00     0.022 C 
ENDROOT
BRANCH   2   3
HETATM    3  C6  UNL     1      23.320   2.910  50.197  1.00  0.00     0.152 C 
BRANCH   3   4
HETATM    4  N1  UNL     1      23.159   1.698  50.870  1.00  0.00    -0.353 N 
HETATM    5  C7  UNL     1      22.910   1.071  52.026  1.00  0.00     0.254 C 
HETATM    6  O1  UNL     1      22.738   1.904  52.999  1.00  0.00    -0.268 OA
HETATM    7  H9  UNL     1      23.276   0.865  50.236  1.00  0.00     0.163 HD
BRANCH   5   8
HETATM    8  C8  UNL     1      22.699   0.062  52.944  1.00  0.00     0.065 A 
HETATM    9  C9  UNL     1      21.223   0.206  52.628  1.00  0.00     0.020 A 
HETATM   10  C10 UNL     1      20.051  -0.469  53.116  1.00  0.00     0.001 A 
HETATM   11  C11 UNL     1      20.218  -1.481  54.082  1.00  0.00     0.003 A 
HETATM   12  C12 UNL     1      21.561  -1.668  54.420  1.00  0.00     0.038 A 
HETATM   13  C13 UNL     1      22.496  -0.902  53.820  1.00  0.00     0.084 A 
BRANCH  13  14
HETATM   14  O2  UNL     1      23.929  -0.893  53.986  1.00  0.00    -0.355 OA
HETATM   15  C14 UNL     1      24.395  -1.183  55.275  1.00  0.00     0.210 C 
ENDBRANCH  13  14
ENDBRANCH   5   8
ENDBRANCH   3   4
ENDBRANCH   2   3
BRANCH   1  16
HETATM   16  C3  UNL     1      27.020   3.860  49.575  1.00  0.00     0.025 C 
HETATM   17  C2  UNL     1      27.136   5.011  48.967  1.00  0.00    -0.029 C 
HETATM   18  C1  UNL     1      28.326   5.448  48.199  1.00  0.00     0.036 C 
ENDBRANCH   1  16
BRANCH   1  19
HETATM   19  N2  UNL     1      25.567   3.216  51.729  1.00  0.00    -0.189 N 
HETATM   20  H17 UNL     1      24.899   3.862  52.236  1.00  0.00     0.184 HD
BRANCH  19  21
HETATM   21  C15 UNL     1      26.191   2.142  52.456  1.00  0.00     0.722 A 
HETATM   22  N3  UNL     1      26.644   2.317  53.638  1.00  0.00    -0.100 NA
HETATM   23  C16 UNL     1      27.205   1.053  54.091  1.00  0.00     0.223 A 
HETATM   24  C17 UNL     1      26.984   0.136  52.946  1.00  0.00     0.048 A 
HETATM   25  C18 UNL     1      27.330  -1.288  52.783  1.00  0.00     0.068 C 
HETATM   26  N4  UNL     1      26.384   0.823  52.011  1.00  0.00    -0.071 NA
ENDBRANCH  19  21
ENDBRANCH   1  19
TORSDOF 7
ENDMDL
MODEL 3
REMARK VINA RESULT:      -7.4      1.902      3.036
REMARK  7 active torsions:
REMARK  status: ('A' for Active; 'I' for Inactive)
REMARK    1  A    between atoms: C3_3  and  C4_4 
REMARK    2  A    between atoms: C4_4  and  N2_18 
REMARK    3  A    between atoms: C5_5  and  C6_6 
REMARK    4  A    between atoms: C6_6  and  N1_7 
REMARK       I    between atoms: N1_7  and  C7_8 
REMARK    5  A    between atoms: C7_8  and  C8_10 
REMARK    6  A    between atoms: C13_15  and  O2_16 
REMARK    7  A    between atoms: N2_18  and  C15_19 
ROOT
HETATM    1  C4  UNL     1      24.990   3.337  50.457  1.00  0.00     0.046 C 
HETATM    2  C5  UNL     1      23.809   3.524  49.854  1.00  0.00     0.022 C 
ENDROOT
BRANCH   2   3
HETATM    3  C6  UNL     1      22.431   3.399  50.316  1.00  0.00     0.152 C 
BRANCH   3   4
HETATM    4  N1  UNL     1      21.982   2.178  50.822  1.00  0.00    -0.353 N 
HETATM    5  C7  UNL     1      21.396   1.518  51.828  1.00  0.00     0.254 C 
HETATM    6  O1  UNL     1      21.087   2.305  52.806  1.00  0.00    -0.268 OA
HETATM    7  H9  UNL     1      22.156   1.377  50.160  1.00  0.00     0.163 HD
BRANCH   5   8
HETATM    8  C8  UNL     1      20.862   0.489  52.579  1.00  0.00     0.065 A 
HETATM    9  C9  UNL     1      22.267   0.260  53.101  1.00  0.00     0.020 A 
HETATM   10  C10 UNL     1      22.818  -0.685  54.034  1.00  0.00     0.001 A 
HETATM   11  C11 UNL     1      21.948  -1.620  54.628  1.00  0.00     0.003 A 
HETATM   12  C12 UNL     1      20.631  -1.464  54.189  1.00  0.00     0.038 A 
HETATM   13  C13 UNL     1      20.352  -0.492  53.296  1.00  0.00     0.084 A 
BRANCH  13  14
HETATM   14  O2  UNL     1      19.095  -0.124  52.691  1.00  0.00    -0.355 OA
HETATM   15  C14 UNL     1      18.064  -1.066  52.810  1.00  0.00     0.210 C 
ENDBRANCH  13  14
ENDBRANCH   5   8
ENDBRANCH   3   4
ENDBRANCH   2   3
BRANCH   1  16
HETATM   16  C3  UNL     1      26.252   3.539  49.716  1.00  0.00     0.025 C 
HETATM   17  C2  UNL     1      26.629   4.692  49.228  1.00  0.00    -0.029 C 
HETATM   18  C1  UNL     1      27.889   4.925  48.484  1.00  0.00     0.036 C 
ENDBRANCH   1  16
BRANCH   1  19
HETATM   19  N2  UNL     1      24.683   3.017  51.822  1.00  0.00    -0.189 N 
HETATM   20  H17 UNL     1      23.919   3.565  52.308  1.00  0.00     0.184 HD
BRANCH  19  21
HETATM   21  C15 UNL     1      25.381   1.990  52.549  1.00  0.00     0.722 A 
HETATM   22  N3  UNL     1      25.762   2.172  53.754  1.00  0.00    -0.100 NA
HETATM   23  C16 UNL     1      26.428   0.957  54.199  1.00  0.00     0.223 A 
HETATM   24  C17 UNL     1      26.350   0.058  53.023  1.00  0.00     0.048 A 
HETATM   25  C18 UNL     1      26.845  -1.319  52.838  1.00  0.00     0.068 C 
HETATM   26  N4  UNL     1      25.725   0.710  52.078  1.00  0.00    -0.071 NA
ENDBRANCH  19  21
ENDBRANCH   1  19
TORSDOF 7
ENDMDL
MODEL 4
REMARK VINA RESULT:      -7.4      1.524      4.009
REMARK  7 active torsions:
REMARK  status: ('A' for Active; 'I' for Inactive)
REMARK    1  A    between atoms: C3_3  and  C4_4 
REMARK    2  A    between atoms: C4_4  and  N2_18 
REMARK    3  A    between atoms: C5_5  and  C6_6 
REMARK    4  A    between atoms: C6_6  and  N1_7 
REMARK       I    between atoms: N1_7  and  C7_8 
REMARK    5  A    between atoms: C7_8  and  C8_10 
REMARK    6  A    between atoms: C13_15  and  O2_16 
REMARK    7  A    between atoms: N2_18  and  C15_19 
ROOT
HETATM    1  C4  UNL     1      26.472   0.144  53.391  1.00  0.00     0.046 C 
HETATM    2  C5  UNL     1      25.497  -0.707  53.733  1.00  0.00     0.022 C 
ENDROOT
BRANCH   2   3
HETATM    3  C6  UNL     1      24.088  -0.518  54.062  1.00  0.00     0.152 C 
BRANCH   3   4
HETATM    4  N1  UNL     1      23.147  -0.419  53.036  1.00  0.00    -0.353 N 
HETATM    5  C7  UNL     1      22.066   0.200  52.548  1.00  0.00     0.254 C 
HETATM    6  O1  UNL     1      21.652   1.138  53.336  1.00  0.00    -0.268 OA
HETATM    7  H9  UNL     1      23.306  -1.128  52.273  1.00  0.00     0.163 HD
BRANCH   5   8
HETATM    8  C8  UNL     1      21.022   0.538  51.711  1.00  0.00     0.065 A 
HETATM    9  C9  UNL     1      20.134  -0.265  52.642  1.00  0.00     0.020 A 
HETATM   10  C10 UNL     1      18.726  -0.555  52.637  1.00  0.00     0.001 A 
HETATM   11  C11 UNL     1      17.940  -0.026  51.593  1.00  0.00     0.003 A 
HETATM   12  C12 UNL     1      18.698   0.728  50.695  1.00  0.00     0.038 A 
HETATM   13  C13 UNL     1      20.024   0.860  50.912  1.00  0.00     0.084 A 
BRANCH  13  14
HETATM   14  O2  UNL     1      21.019   1.574  50.149  1.00  0.00    -0.355 OA
HETATM   15  C14 UNL     1      21.421   0.966  48.952  1.00  0.00     0.210 C 
ENDBRANCH  13  14
ENDBRANCH   5   8
ENDBRANCH   3   4
ENDBRANCH   2   3
BRANCH   1  16
HETATM   16  C3  UNL     1      27.836  -0.350  53.114  1.00  0.00     0.025 C 
HETATM   17  C2  UNL     1      28.742  -0.535  54.038  1.00  0.00    -0.029 C 
HETATM   18  C1  UNL     1      30.115  -1.032  53.790  1.00  0.00     0.036 C 
ENDBRANCH   1  16
BRANCH   1  19
HETATM   19  N2  UNL     1      25.852   1.436  53.315  1.00  0.00    -0.189 N 
HETATM   20  H17 UNL     1      25.492   1.876  54.208  1.00  0.00     0.184 HD
BRANCH  19  21
HETATM   21  C15 UNL     1      25.694   2.144  52.072  1.00  0.00     0.722 A 
HETATM   22  N3  UNL     1      24.547   2.281  51.527  1.00  0.00    -0.100 NA
HETATM   23  C16 UNL     1      24.726   3.038  50.297  1.00  0.00     0.223 A 
HETATM   24  C17 UNL     1      26.184   3.302  50.252  1.00  0.00     0.048 A 
HETATM   25  C18 UNL     1      26.994   4.024  49.253  1.00  0.00     0.068 C 
HETATM   26  N4  UNL     1      26.710   2.758  51.317  1.00  0.00    -0.071 NA
ENDBRANCH  19  21
ENDBRANCH   1  19
TORSDOF 7
ENDMDL
MODEL 5
REMARK VINA RESULT:      -7.2      3.837      7.259
REMARK  7 active torsions:
REMARK  status: ('A' for Active; 'I' for Inactive)
REMARK    1  A    between atoms: C3_3  and  C4_4 
REMARK    2  A    between atoms: C4_4  and  N2_18 
REMARK    3  A    between atoms: C5_5  and  C6_6 
REMARK    4  A    between atoms: C6_6  and  N1_7 
REMARK       I    between atoms: N1_7  and  C7_8 
REMARK    5  A    between atoms: C7_8  and  C8_10 
REMARK    6  A    between atoms: C13_15  and  O2_16 
REMARK    7  A    between atoms: N2_18  and  C15_19 
ROOT
HETATM    1  C4  UNL     1      25.031   1.891  52.646  1.00  0.00     0.046 C 
HETATM    2  C5  UNL     1      25.432   2.118  51.388  1.00  0.00     0.022 C 
ENDROOT
BRANCH   2   3
HETATM    3  C6  UNL     1      26.565   2.845  50.826  1.00  0.00     0.152 C 
BRANCH   3   4
HETATM    4  N1  UNL     1      26.411   4.182  50.458  1.00  0.00    -0.353 N 
HETATM    5  C7  UNL     1      25.760   5.083  49.712  1.00  0.00     0.254 C 
HETATM    6  O1  UNL     1      24.855   4.531  48.971  1.00  0.00    -0.268 OA
HETATM    7  H9  UNL     1      27.086   4.819  50.957  1.00  0.00     0.163 HD
BRANCH   5   8
HETATM    8  C8  UNL     1      25.375   6.289  49.162  1.00  0.00     0.065 A 
HETATM    9  C9  UNL     1      26.734   6.314  48.490  1.00  0.00     0.020 A 
HETATM   10  C10 UNL     1      27.369   7.256  47.609  1.00  0.00     0.001 A 
HETATM   11  C11 UNL     1      26.654   8.415  47.246  1.00  0.00     0.003 A 
HETATM   12  C12 UNL     1      25.387   8.456  47.833  1.00  0.00     0.038 A 
HETATM   13  C13 UNL     1      25.008   7.441  48.636  1.00  0.00     0.084 A 
BRANCH  13  14
HETATM   14  O2  UNL     1      23.773   7.241  49.354  1.00  0.00    -0.355 OA
HETATM   15  C14 UNL     1      23.642   7.956  50.552  1.00  0.00     0.210 C 
ENDBRANCH  13  14
ENDBRANCH   5   8
ENDBRANCH   3   4
ENDBRANCH   2   3
BRANCH   1  16
HETATM   16  C3  UNL     1      23.811   1.104  52.914  1.00  0.00     0.025 C 
HETATM   17  C2  UNL     1      23.815  -0.060  53.509  1.00  0.00    -0.029 C 
HETATM   18  C1  UNL     1      22.606  -0.869  53.794  1.00  0.00     0.036 C 
ENDBRANCH   1  16
BRANCH   1  19
HETATM   19  N2  UNL     1      26.034   2.482  53.485  1.00  0.00    -0.189 N 
HETATM   20  H17 UNL     1      25.826   3.417  53.936  1.00  0.00     0.184 HD
BRANCH  19  21
HETATM   21  C15 UNL     1      27.307   1.855  53.725  1.00  0.00     0.722 A 
HETATM   22  N3  UNL     1      28.292   2.514  54.200  1.00  0.00    -0.100 NA
HETATM   23  C16 UNL     1      29.420   1.602  54.324  1.00  0.00     0.223 A 
HETATM   24  C17 UNL     1      28.886   0.309  53.833  1.00  0.00     0.048 A 
HETATM   25  C18 UNL     1      29.538  -1.007  53.706  1.00  0.00     0.068 C 
HETATM   26  N4  UNL     1      27.640   0.509  53.493  1.00  0.00    -0.071 NA
ENDBRANCH  19  21
ENDBRANCH   1  19
TORSDOF 7
ENDMDL
MODEL 6
REMARK VINA RESULT:      -7.2      3.556      6.224
REMARK  7 active torsions:
REMARK  status: ('A' for Active; 'I' for Inactive)
REMARK    1  A    between atoms: C3_3  and  C4_4 
REMARK    2  A    between atoms: C4_4  and  N2_18 
REMARK    3  A    between atoms: C5_5  and  C6_6 
REMARK    4  A    between atoms: C6_6  and  N1_7 
REMARK       I    between atoms: N1_7  and  C7_8 
REMARK    5  A    between atoms: C7_8  and  C8_10 
REMARK    6  A    between atoms: C13_15  and  O2_16 
REMARK    7  A    between atoms: N2_18  and  C15_19 
ROOT
HETATM    1  C4  UNL     1      26.094   4.452  49.650  1.00  0.00     0.046 C 
HETATM    2  C5  UNL     1      25.211   3.478  49.399  1.00  0.00     0.022 C 
ENDROOT
BRANCH   2   3
HETATM    3  C6  UNL     1      23.905   3.155  49.964  1.00  0.00     0.152 C 
BRANCH   3   4
HETATM    4  N1  UNL     1      23.745   1.985  50.707  1.00  0.00    -0.353 N 
HETATM    5  C7  UNL     1      23.757   1.399  51.910  1.00  0.00     0.254 C 
HETATM    6  O1  UNL     1      24.043   2.237  52.852  1.00  0.00    -0.268 OA
HETATM    7  H9  UNL     1      23.511   1.153  50.105  1.00  0.00     0.163 HD
BRANCH   5   8
HETATM    8  C8  UNL     1      23.662   0.434  52.893  1.00  0.00     0.065 A 
HETATM    9  C9  UNL     1      22.210   0.849  53.035  1.00  0.00     0.020 A 
HETATM   10  C10 UNL     1      21.145   0.392  53.885  1.00  0.00     0.001 A 
HETATM   11  C11 UNL     1      21.418  -0.645  54.799  1.00  0.00     0.003 A 
HETATM   12  C12 UNL     1      22.744  -1.078  54.720  1.00  0.00     0.038 A 
HETATM   13  C13 UNL     1      23.570  -0.488  53.831  1.00  0.00     0.084 A 
BRANCH  13  14
HETATM   14  O2  UNL     1      24.963  -0.743  53.552  1.00  0.00    -0.355 OA
HETATM   15  C14 UNL     1      25.870  -0.290  54.519  1.00  0.00     0.210 C 
ENDBRANCH  13  14
ENDBRANCH   5   8
ENDBRANCH   3   4
ENDBRANCH   2   3
BRANCH   1  16
HETATM   16  C3  UNL     1      27.367   4.522  48.904  1.00  0.00     0.025 C 
HETATM   17  C2  UNL     1      27.969   5.642  48.601  1.00  0.00    -0.029 C 
HETATM   18  C1  UNL     1      29.248   5.742  47.857  1.00  0.00     0.036 C 
ENDBRANCH   1  16
BRANCH   1  19
HETATM   19  N2  UNL     1      25.475   5.293  50.635  1.00  0.00    -0.189 N 
HETATM   20  H17 UNL     1      25.586   5.038  51.656  1.00  0.00     0.184 HD
BRANCH  19  21
HETATM   21  C15 UNL     1      24.707   6.458  50.282  1.00  0.00     0.722 A 
HETATM   22  N3  UNL     1      23.886   6.985  51.106  1.00  0.00    -0.100 NA
HETATM   23  C16 UNL     1      23.277   8.135  50.453  1.00  0.00     0.223 A 
HETATM   24  C17 UNL     1      23.909   8.157  49.112  1.00  0.00     0.048 A 
HETATM   25  C18 UNL     1      23.713   9.080  47.978  1.00  0.00     0.068 C 
HETATM   26  N4  UNL     1      24.742   7.152  49.060  1.00  0.00    -0.071 NA
ENDBRANCH  19  21
ENDBRANCH   1  19
TORSDOF 7
ENDMDL
MODEL 7
REMARK VINA RESULT:      -7.1      3.100      5.785
REMARK  7 active torsions:
REMARK  status: ('A' for Active; 'I' for Inactive)
REMARK    1  A    between atoms: C3_3  and  C4_4 
REMARK    2  A    between atoms: C4_4  and  N2_18 
REMARK    3  A    between atoms: C5_5  and  C6_6 
REMARK    4  A    between atoms: C6_6  and  N1_7 
REMARK       I    between atoms: N1_7  and  C7_8 
REMARK    5  A    between atoms: C7_8  and  C8_10 
REMARK    6  A    between atoms: C13_15  and  O2_16 
REMARK    7  A    between atoms: N2_18  and  C15_19 
ROOT
HETATM    1  C4  UNL     1      25.803   4.529  50.083  1.00  0.00     0.046 C 
HETATM    2  C5  UNL     1      26.388   3.337  50.248  1.00  0.00     0.022 C 
ENDROOT
BRANCH   2   3
HETATM    3  C6  UNL     1      26.315   2.335  51.306  1.00  0.00     0.152 C 
BRANCH   3   4
HETATM    4  N1  UNL     1      25.145   1.593  51.473  1.00  0.00    -0.353 N 
HETATM    5  C7  UNL     1      24.028   1.386  52.181  1.00  0.00     0.254 C 
HETATM    6  O1  UNL     1      23.928   2.208  53.174  1.00  0.00    -0.268 OA
HETATM    7  H9  UNL     1      25.038   0.838  50.747  1.00  0.00     0.163 HD
BRANCH   5   8
HETATM    8  C8  UNL     1      22.825   0.850  52.593  1.00  0.00     0.065 A 
HETATM    9  C9  UNL     1      23.634   0.006  53.558  1.00  0.00     0.020 A 
HETATM   10  C10 UNL     1      23.265  -0.983  54.534  1.00  0.00     0.001 A 
HETATM   11  C11 UNL     1      21.898  -1.288  54.690  1.00  0.00     0.003 A 
HETATM   12  C12 UNL     1      21.091  -0.542  53.828  1.00  0.00     0.038 A 
HETATM   13  C13 UNL     1      21.676   0.338  52.988  1.00  0.00     0.084 A 
BRANCH  13  14
HETATM   14  O2  UNL     1      21.082   1.219  52.012  1.00  0.00    -0.355 OA
HETATM   15  C14 UNL     1      20.171   2.158  52.514  1.00  0.00     0.210 C 
ENDBRANCH  13  14
ENDBRANCH   5   8
ENDBRANCH   3   4
ENDBRANCH   2   3
BRANCH   1  16
HETATM   16  C3  UNL     1      26.080   5.342  48.882  1.00  0.00     0.025 C 
HETATM   17  C2  UNL     1      26.761   6.458  48.902  1.00  0.00    -0.029 C 
HETATM   18  C1  UNL     1      27.057   7.291  47.713  1.00  0.00     0.036 C 
ENDBRANCH   1  16
BRANCH   1  19
HETATM   19  N2  UNL     1      24.922   4.688  51.206  1.00  0.00    -0.189 N 
HETATM   20  H17 UNL     1      25.252   4.356  52.155  1.00  0.00     0.184 HD
BRANCH  19  21
HETATM   21  C15 UNL     1      23.612   5.270  51.082  1.00  0.00     0.722 A 
HETATM   22  N3  UNL     1      22.564   4.621  51.415  1.00  0.00    -0.100 NA
HETATM   23  C16 UNL     1      21.413   5.479  51.173  1.00  0.00     0.223 A 
HETATM   24  C17 UNL     1      22.009   6.730  50.645  1.00  0.00     0.048 A 
HETATM   25  C18 UNL     1      21.367   7.985  50.210  1.00  0.00     0.068 C 
HETATM   26  N4  UNL     1      23.304   6.558  50.611  1.00  0.00    -0.071 NA
ENDBRANCH  19  21
ENDBRANCH   1  19
TORSDOF 7
ENDMDL
MODEL 8
REMARK VINA RESULT:      -7.0      3.583      5.870
REMARK  7 active torsions:
REMARK  status: ('A' for Active; 'I' for Inactive)
REMARK    1  A    between atoms: C3_3  and  C4_4 
REMARK    2  A    between atoms: C4_4  and  N2_18 
REMARK    3  A    between atoms: C5_5  and  C6_6 
REMARK    4  A    between atoms: C6_6  and  N1_7 
REMARK       I    between atoms: N1_7  and  C7_8 
REMARK    5  A    between atoms: C7_8  and  C8_10 
REMARK    6  A    between atoms: C13_15  and  O2_16 
REMARK    7  A    between atoms: N2_18  and  C15_19 
ROOT
HETATM    1  C4  UNL     1      24.289   0.442  53.205  1.00  0.00     0.046 C 
HETATM    2  C5  UNL     1      23.840   1.678  52.953  1.00  0.00     0.022 C 
ENDROOT
BRANCH   2   3
HETATM    3  C6  UNL     1      24.428   2.824  52.268  1.00  0.00     0.152 C 
BRANCH   3   4
HETATM    4  N1  UNL     1      23.691   3.495  51.291  1.00  0.00    -0.353 N 
HETATM    5  C7  UNL     1      23.636   3.964  50.038  1.00  0.00     0.254 C 
HETATM    6  O1  UNL     1      24.727   3.725  49.386  1.00  0.00    -0.268 OA
HETATM    7  H9  UNL     1      22.742   3.796  51.635  1.00  0.00     0.163 HD
BRANCH   5   8
HETATM    8  C8  UNL     1      23.166   4.573  48.892  1.00  0.00     0.065 A 
HETATM    9  C9  UNL     1      22.800   3.183  48.411  1.00  0.00     0.020 A 
HETATM   10  C10 UNL     1      22.189   2.699  47.202  1.00  0.00     0.001 A 
HETATM   11  C11 UNL     1      21.826   3.638  46.216  1.00  0.00     0.003 A 
HETATM   12  C12 UNL     1      22.137   4.946  46.597  1.00  0.00     0.038 A 
HETATM   13  C13 UNL     1      22.717   5.154  47.797  1.00  0.00     0.084 A 
BRANCH  13  14
HETATM   14  O2  UNL     1      23.132   6.387  48.422  1.00  0.00    -0.355 OA
HETATM   15  C14 UNL     1      24.267   6.996  47.870  1.00  0.00     0.210 C 
ENDBRANCH  13  14
ENDBRANCH   5   8
ENDBRANCH   3   4
ENDBRANCH   2   3
BRANCH   1  16
HETATM   16  C3  UNL     1      23.451  -0.524  53.943  1.00  0.00     0.025 C 
HETATM   17  C2  UNL     1      22.179  -0.712  53.705  1.00  0.00    -0.029 C 
HETATM   18  C1  UNL     1      21.316  -1.677  54.426  1.00  0.00     0.036 C 
ENDBRANCH   1  16
BRANCH   1  19
HETATM   19  N2  UNL     1      25.573   0.358  52.570  1.00  0.00    -0.189 N 
HETATM   20  H17 UNL     1      25.620   0.436  51.516  1.00  0.00     0.184 HD
BRANCH  19  21
HETATM   21  C15 UNL     1      26.790   0.163  53.314  1.00  0.00     0.722 A 
HETATM   22  N3  UNL     1      26.960   0.700  54.460  1.00  0.00    -0.100 NA
HETATM   23  C16 UNL     1      28.278   0.312  54.942  1.00  0.00     0.223 A 
HETATM   24  C17 UNL     1      28.815  -0.542  53.855  1.00  0.00     0.048 A 
HETATM   25  C18 UNL     1      30.109  -1.241  53.741  1.00  0.00     0.068 C 
HETATM   26  N4  UNL     1      27.904  -0.600  52.921  1.00  0.00    -0.071 NA
ENDBRANCH  19  21
ENDBRANCH   1  19
TORSDOF 7
ENDMDL
MODEL 9
REMARK VINA RESULT:      -7.0      1.364      3.538
REMARK  7 active torsions:
REMARK  status: ('A' for Active; 'I' for Inactive)
REMARK    1  A    between atoms: C3_3  and  C4_4 
REMARK    2  A    between atoms: C4_4  and  N2_18 
REMARK    3  A    between atoms: C5_5  and  C6_6 
REMARK    4  A    between atoms: C6_6  and  N1_7 
REMARK       I    between atoms: N1_7  and  C7_8 
REMARK    5  A    between atoms: C7_8  and  C8_10 
REMARK    6  A    between atoms: C13_15  and  O2_16 
REMARK    7  A    between atoms: N2_18  and  C15_19 
ROOT
HETATM    1  C4  UNL     1      25.983  -0.235  53.698  1.00  0.00     0.046 C 
HETATM    2  C5  UNL     1      24.983  -0.974  54.195  1.00  0.00     0.022 C 
ENDROOT
BRANCH   2   3
HETATM    3  C6  UNL     1      23.658  -0.635  54.702  1.00  0.00     0.152 C 
BRANCH   3   4
HETATM    4  N1  UNL     1      22.544  -0.792  53.877  1.00  0.00    -0.353 N 
HETATM    5  C7  UNL     1      21.296  -0.411  53.577  1.00  0.00     0.254 C 
HETATM    6  O1  UNL     1      20.868   0.512  54.376  1.00  0.00    -0.268 OA
HETATM    7  H9  UNL     1      22.686  -1.530  53.140  1.00  0.00     0.163 HD
BRANCH   5   8
HETATM    8  C8  UNL     1      20.072  -0.333  52.944  1.00  0.00     0.065 A 
HETATM    9  C9  UNL     1      20.809   0.324  51.794  1.00  0.00     0.020 A 
HETATM   10  C10 UNL     1      20.374   0.834  50.521  1.00  0.00     0.001 A 
HETATM   11  C11 UNL     1      19.005   0.743  50.199  1.00  0.00     0.003 A 
HETATM   12  C12 UNL     1      18.264   0.143  51.221  1.00  0.00     0.038 A 
HETATM   13  C13 UNL     1      18.903  -0.259  52.339  1.00  0.00     0.084 A 
BRANCH  13  14
HETATM   14  O2  UNL     1      18.381  -0.896  53.524  1.00  0.00    -0.355 OA
HETATM   15  C14 UNL     1      17.751  -2.132  53.323  1.00  0.00     0.210 C 
ENDBRANCH  13  14
ENDBRANCH   5   8
ENDBRANCH   3   4
ENDBRANCH   2   3
BRANCH   1  16
HETATM   16  C3  UNL     1      27.241  -0.872  53.259  1.00  0.00     0.025 C 
HETATM   17  C2  UNL     1      28.424  -0.506  53.677  1.00  0.00    -0.029 C 
HETATM   18  C1  UNL     1      29.701  -1.129  53.256  1.00  0.00     0.036 C 
ENDBRANCH   1  16
BRANCH   1  19
HETATM   19  N2  UNL     1      25.490   1.112  53.664  1.00  0.00    -0.189 N 
HETATM   20  H17 UNL     1      25.336   1.616  54.582  1.00  0.00     0.184 HD
BRANCH  19  21
HETATM   21  C15 UNL     1      25.189   1.792  52.432  1.00  0.00     0.722 A 
HETATM   22  N3  UNL     1      24.014   1.775  51.934  1.00  0.00    -0.100 NA
HETATM   23  C16 UNL     1      24.041   2.548  50.701  1.00  0.00     0.223 A 
HETATM   24  C17 UNL     1      25.448   3.003  50.599  1.00  0.00     0.048 A 
HETATM   25  C18 UNL     1      26.114   3.826  49.571  1.00  0.00     0.068 C 
HETATM   26  N4  UNL     1      26.083   2.534  51.639  1.00  0.00    -0.071 NA
ENDBRANCH  19  21
ENDBRANCH   1  19
TORSDOF 7
ENDMDL
