MODEL 1
REMARK VINA RESULT:      -7.5      0.000      0.000
REMARK  4 active torsions:
REMARK  status: ('A' for Active; 'I' for Inactive)
REMARK    1  A    between atoms: C2_2  and  O1_3 
REMARK    2  A    between atoms: O1_3  and  C3_4 
REMARK    3  A    between atoms: C8_10  and  O2_11 
REMARK    4  A    between atoms: C15_19  and  C16_20 
ROOT
HETATM    1  C3  UNL     1      22.886   1.737  50.499  1.00  0.00     0.129 C 
HETATM    2  C4  UNL     1      22.154   0.960  51.600  1.00  0.00     0.041 C 
HETATM    3  C5  UNL     1      21.663   0.240  52.639  1.00  0.00     0.098 A 
HETATM    4  C6  UNL     1      22.291  -0.468  53.783  1.00  0.00    -0.004 A 
HETATM    5 BR1  UNL     1      20.395  -0.734  54.025  1.00  0.00    -0.121 Br
HETATM    6  C7  UNL     1      23.181  -0.988  54.657  1.00  0.00     0.052 C 
HETATM    7  C8  UNL     1      24.626  -0.874  54.589  1.00  0.00     0.071 C 
HETATM    8  C9  UNL     1      25.435  -0.321  53.717  1.00  0.00    -0.012 C 
HETATM    9  C10 UNL     1      25.478   0.415  52.435  1.00  0.00     0.310 C 
HETATM   10  N1  UNL     1      25.040   1.758  52.794  1.00  0.00     0.092 N 
HETATM   11  C11 UNL     1      24.938   2.623  51.695  1.00  0.00     0.275 C 
HETATM   12  C12 UNL     1      23.614   2.872  51.053  1.00  0.00     0.062 C 
HETATM   13  C13 UNL     1      25.986   2.146  53.835  1.00  0.00     0.273 C 
HETATM   14  C14 UNL     1      27.207   1.258  53.904  1.00  0.00     0.042 C 
HETATM   15  C15 UNL     1      26.892  -0.215  54.129  1.00  0.00     0.054 C 
ENDROOT
BRANCH   1  16
HETATM   16  O1  UNL     1      21.835   2.053  49.648  1.00  0.00    -0.386 OA
BRANCH  16  17
HETATM   17  C2  UNL     1      21.794   1.389  48.462  1.00  0.00     0.163 C 
HETATM   18  C1  UNL     1      22.634   2.143  47.455  1.00  0.00     0.033 C 
ENDBRANCH  16  17
ENDBRANCH   1  16
BRANCH   7  19
HETATM   19  O2  UNL     1      25.213  -1.488  55.686  1.00  0.00    -0.360 OA
HETATM   20  H10 UNL     1      25.983  -0.996  56.126  1.00  0.00     0.217 HD
ENDBRANCH   7  19
BRANCH  15  21
HETATM   21  C16 UNL     1      27.707  -0.995  53.162  1.00  0.00     0.400 C 
HETATM   22  O3  UNL     1      27.888  -2.200  53.075  1.00  0.00    -0.429 OA
ENDBRANCH  15  21
TORSDOF 4
ENDMDL
MODEL 2
REMARK VINA RESULT:      -7.1      1.970      5.673
REMARK  4 active torsions:
REMARK  status: ('A' for Active; 'I' for Inactive)
REMARK    1  A    between atoms: C2_2  and  O1_3 
REMARK    2  A    between atoms: O1_3  and  C3_4 
REMARK    3  A    between atoms: C8_10  and  O2_11 
REMARK    4  A    between atoms: C15_19  and  C16_20 
ROOT
HETATM    1  C3  UNL     1      26.535   0.484  53.488  1.00  0.00     0.129 C 
HETATM    2  C4  UNL     1      25.112  -0.039  53.713  1.00  0.00     0.041 C 
HETATM    3  C5  UNL     1      23.799  -0.358  53.835  1.00  0.00     0.098 A 
HETATM    4  C6  UNL     1      22.539   0.318  53.434  1.00  0.00    -0.004 A 
HETATM    5 BR1  UNL     1      21.969  -1.333  54.255  1.00  0.00    -0.121 Br
HETATM    6  C7  UNL     1      21.637   1.198  52.947  1.00  0.00     0.052 C 
HETATM    7  C8  UNL     1      21.926   2.474  52.318  1.00  0.00     0.071 C 
HETATM    8  C9  UNL     1      23.044   3.121  52.092  1.00  0.00    -0.012 C 
HETATM    9  C10 UNL     1      24.510   3.063  52.278  1.00  0.00     0.310 C 
HETATM   10  N1  UNL     1      24.945   2.083  51.291  1.00  0.00     0.092 N 
HETATM   11  C11 UNL     1      26.321   1.815  51.340  1.00  0.00     0.275 C 
HETATM   12  C12 UNL     1      26.829   0.613  52.065  1.00  0.00     0.062 C 
HETATM   13  C13 UNL     1      24.438   2.630  50.037  1.00  0.00     0.273 C 
HETATM   14  C14 UNL     1      24.012   4.076  50.137  1.00  0.00     0.042 C 
HETATM   15  C15 UNL     1      22.943   4.338  51.190  1.00  0.00     0.054 C 
ENDROOT
BRANCH   1  16
HETATM   16  O1  UNL     1      27.283  -0.465  54.173  1.00  0.00    -0.386 OA
BRANCH  16  17
HETATM   17  C2  UNL     1      28.496  -0.062  54.636  1.00  0.00     0.163 C 
HETATM   18  C1  UNL     1      29.575  -0.795  53.870  1.00  0.00     0.033 C 
ENDBRANCH  16  17
ENDBRANCH   1  16
BRANCH   7  19
HETATM   19  O2  UNL     1      20.753   3.082  51.894  1.00  0.00    -0.360 OA
HETATM   20  H10 UNL     1      19.899   2.802  52.362  1.00  0.00     0.217 HD
ENDBRANCH   7  19
BRANCH  15  21
HETATM   21  C16 UNL     1      23.368   5.530  51.968  1.00  0.00     0.400 C 
HETATM   22  O3  UNL     1      24.041   6.492  51.631  1.00  0.00    -0.429 OA
ENDBRANCH  15  21
TORSDOF 4
ENDMDL
MODEL 3
REMARK VINA RESULT:      -6.5      3.009      5.283
REMARK  4 active torsions:
REMARK  status: ('A' for Active; 'I' for Inactive)
REMARK    1  A    between atoms: C2_2  and  O1_3 
REMARK    2  A    between atoms: O1_3  and  C3_4 
REMARK    3  A    between atoms: C8_10  and  O2_11 
REMARK    4  A    between atoms: C15_19  and  C16_20 
ROOT
HETATM    1  C3  UNL     1      25.107   4.045  50.235  1.00  0.00     0.129 C 
HETATM    2  C4  UNL     1      25.752   2.901  51.025  1.00  0.00     0.041 C 
HETATM    3  C5  UNL     1      26.161   1.836  51.758  1.00  0.00     0.098 A 
HETATM    4  C6  UNL     1      25.447   0.751  52.476  1.00  0.00    -0.004 A 
HETATM    5 BR1  UNL     1      27.318   0.368  52.750  1.00  0.00    -0.121 Br
HETATM    6  C7  UNL     1      24.492  -0.047  53.003  1.00  0.00     0.052 C 
HETATM    7  C8  UNL     1      23.056   0.129  52.884  1.00  0.00     0.071 C 
HETATM    8  C9  UNL     1      22.317   1.054  52.320  1.00  0.00    -0.012 C 
HETATM    9  C10 UNL     1      22.373   2.327  51.569  1.00  0.00     0.310 C 
HETATM   10  N1  UNL     1      22.785   1.921  50.232  1.00  0.00     0.092 N 
HETATM   11  C11 UNL     1      22.972   3.000  49.355  1.00  0.00     0.275 C 
HETATM   12  C12 UNL     1      24.342   3.536  49.103  1.00  0.00     0.062 C 
HETATM   13  C13 UNL     1      21.764   0.951  49.852  1.00  0.00     0.273 C 
HETATM   14  C14 UNL     1      20.540   0.984  50.737  1.00  0.00     0.042 C 
HETATM   15  C15 UNL     1      20.833   0.752  52.214  1.00  0.00     0.054 C 
ENDROOT
BRANCH   1  16
HETATM   16  O1  UNL     1      26.221   4.811  49.912  1.00  0.00    -0.386 OA
BRANCH  16  17
HETATM   17  C2  UNL     1      27.136   4.233  49.089  1.00  0.00     0.163 C 
HETATM   18  C1  UNL     1      27.978   5.321  48.459  1.00  0.00     0.033 C 
ENDBRANCH  16  17
ENDBRANCH   1  16
BRANCH   7  19
HETATM   19  O2  UNL     1      22.386  -0.914  53.508  1.00  0.00    -0.360 OA
HETATM   20  H10 UNL     1      22.942  -1.526  54.095  1.00  0.00     0.217 HD
ENDBRANCH   7  19
BRANCH  15  21
HETATM   21  C16 UNL     1      20.092   1.787  52.981  1.00  0.00     0.400 C 
HETATM   22  O3  UNL     1      19.744   2.912  52.656  1.00  0.00    -0.429 OA
ENDBRANCH  15  21
TORSDOF 4
ENDMDL
MODEL 4
REMARK VINA RESULT:      -6.5      3.153      5.645
REMARK  4 active torsions:
REMARK  status: ('A' for Active; 'I' for Inactive)
REMARK    1  A    between atoms: C2_2  and  O1_3 
REMARK    2  A    between atoms: O1_3  and  C3_4 
REMARK    3  A    between atoms: C8_10  and  O2_11 
REMARK    4  A    between atoms: C15_19  and  C16_20 
ROOT
HETATM    1  C3  UNL     1      21.677   0.837  52.204  1.00  0.00     0.129 C 
HETATM    2  C4  UNL     1      23.149   0.443  52.371  1.00  0.00     0.041 C 
HETATM    3  C5  UNL     1      24.489   0.242  52.439  1.00  0.00     0.098 A 
HETATM    4  C6  UNL     1      25.666   1.030  51.995  1.00  0.00    -0.004 A 
HETATM    5 BR1  UNL     1      26.415  -0.543  52.827  1.00  0.00    -0.121 Br
HETATM    6  C7  UNL     1      26.466   1.982  51.466  1.00  0.00     0.052 C 
HETATM    7  C8  UNL     1      26.038   3.201  50.806  1.00  0.00     0.071 C 
HETATM    8  C9  UNL     1      24.856   3.685  50.510  1.00  0.00    -0.012 C 
HETATM    9  C10 UNL     1      23.405   3.410  50.590  1.00  0.00     0.310 C 
HETATM   10  N1  UNL     1      23.086   3.644  51.992  1.00  0.00     0.092 N 
HETATM   11  C11 UNL     1      21.748   3.369  52.312  1.00  0.00     0.275 C 
HETATM   12  C12 UNL     1      21.375   2.063  52.933  1.00  0.00     0.062 C 
HETATM   13  C13 UNL     1      23.532   5.016  52.207  1.00  0.00     0.273 C 
HETATM   14  C14 UNL     1      23.794   5.774  50.927  1.00  0.00     0.042 C 
HETATM   15  C15 UNL     1      24.823   5.120  50.016  1.00  0.00     0.054 C 
ENDROOT
BRANCH   1  16
HETATM   16  O1  UNL     1      21.038  -0.308  52.662  1.00  0.00    -0.386 OA
BRANCH  16  17
HETATM   17  C2  UNL     1      20.783  -0.368  53.996  1.00  0.00     0.163 C 
HETATM   18  C1  UNL     1      21.267  -1.700  54.525  1.00  0.00     0.033 C 
ENDBRANCH  16  17
ENDBRANCH   1  16
BRANCH   7  19
HETATM   19  O2  UNL     1      27.137   3.965  50.439  1.00  0.00    -0.360 OA
HETATM   20  H10 UNL     1      27.612   3.699  49.584  1.00  0.00     0.217 HD
ENDBRANCH   7  19
BRANCH  15  21
HETATM   21  C16 UNL     1      24.265   5.125  48.639  1.00  0.00     0.400 C 
HETATM   22  O3  UNL     1      23.648   5.995  48.042  1.00  0.00    -0.429 OA
ENDBRANCH  15  21
TORSDOF 4
ENDMDL
MODEL 5
REMARK VINA RESULT:      -6.4      2.890      6.302
REMARK  4 active torsions:
REMARK  status: ('A' for Active; 'I' for Inactive)
REMARK    1  A    between atoms: C2_2  and  O1_3 
REMARK    2  A    between atoms: O1_3  and  C3_4 
REMARK    3  A    between atoms: C8_10  and  O2_11 
REMARK    4  A    between atoms: C15_19  and  C16_20 
ROOT
HETATM    1  C3  UNL     1      24.857   0.507  52.188  1.00  0.00     0.129 C 
HETATM    2  C4  UNL     1      24.465   1.989  52.175  1.00  0.00     0.041 C 
HETATM    3  C5  UNL     1      23.953   3.245  52.164  1.00  0.00     0.098 A 
HETATM    4  C6  UNL     1      22.572   3.789  52.165  1.00  0.00    -0.004 A 
HETATM    5 BR1  UNL     1      23.711   5.347  52.169  1.00  0.00    -0.121 Br
HETATM    6  C7  UNL     1      21.226   3.914  52.163  1.00  0.00     0.052 C 
HETATM    7  C8  UNL     1      20.258   2.833  52.149  1.00  0.00     0.071 C 
HETATM    8  C9  UNL     1      20.382   1.529  52.096  1.00  0.00    -0.012 C 
HETATM    9  C10 UNL     1      21.368   0.431  52.011  1.00  0.00     0.310 C 
HETATM   10  N1  UNL     1      21.936   0.371  53.351  1.00  0.00     0.092 N 
HETATM   11  C11 UNL     1      22.963  -0.575  53.480  1.00  0.00     0.275 C 
HETATM   12  C12 UNL     1      24.392  -0.149  53.404  1.00  0.00     0.062 C 
HETATM   13  C13 UNL     1      20.764   0.171  54.197  1.00  0.00     0.273 C 
HETATM   14  C14 UNL     1      19.531  -0.249  53.432  1.00  0.00     0.042 C 
HETATM   15  C15 UNL     1      19.116   0.726  52.337  1.00  0.00     0.054 C 
ENDROOT
BRANCH   1  16
HETATM   16  O1  UNL     1      26.236   0.592  52.040  1.00  0.00    -0.386 OA
BRANCH  16  17
HETATM   17  C2  UNL     1      26.958  -0.482  52.458  1.00  0.00     0.163 C 
HETATM   18  C1  UNL     1      28.160   0.013  53.231  1.00  0.00     0.033 C 
ENDBRANCH  16  17
ENDBRANCH   1  16
BRANCH   7  19
HETATM   19  O2  UNL     1      18.967   3.338  52.205  1.00  0.00    -0.360 OA
HETATM   20  H10 UNL     1      18.801   4.093  52.861  1.00  0.00     0.217 HD
ENDBRANCH   7  19
BRANCH  15  21
HETATM   21  C16 UNL     1      18.831  -0.072  51.117  1.00  0.00     0.400 C 
HETATM   22  O3  UNL     1      18.159   0.203  50.134  1.00  0.00    -0.429 OA
ENDBRANCH  15  21
TORSDOF 4
ENDMDL
MODEL 6
REMARK VINA RESULT:      -6.3      3.109      6.737
REMARK  4 active torsions:
REMARK  status: ('A' for Active; 'I' for Inactive)
REMARK    1  A    between atoms: C2_2  and  O1_3 
REMARK    2  A    between atoms: O1_3  and  C3_4 
REMARK    3  A    between atoms: C8_10  and  O2_11 
REMARK    4  A    between atoms: C15_19  and  C16_20 
ROOT
HETATM    1  C3  UNL     1      26.062   1.174  52.155  1.00  0.00     0.129 C 
HETATM    2  C4  UNL     1      26.376   2.289  51.151  1.00  0.00     0.041 C 
HETATM    3  C5  UNL     1      26.483   3.282  50.233  1.00  0.00     0.098 A 
HETATM    4  C6  UNL     1      25.498   4.026  49.408  1.00  0.00    -0.004 A 
HETATM    5 BR1  UNL     1      27.206   4.796  48.943  1.00  0.00    -0.121 Br
HETATM    6  C7  UNL     1      24.358   4.470  48.834  1.00  0.00     0.052 C 
HETATM    7  C8  UNL     1      23.016   3.976  49.083  1.00  0.00     0.071 C 
HETATM    8  C9  UNL     1      22.549   3.010  49.837  1.00  0.00    -0.012 C 
HETATM    9  C10 UNL     1      22.945   1.934  50.770  1.00  0.00     0.310 C 
HETATM   10  N1  UNL     1      23.285   2.646  51.995  1.00  0.00     0.092 N 
HETATM   11  C11 UNL     1      23.762   1.808  53.013  1.00  0.00     0.275 C 
HETATM   12  C12 UNL     1      25.230   1.667  53.246  1.00  0.00     0.062 C 
HETATM   13  C13 UNL     1      22.066   3.392  52.292  1.00  0.00     0.273 C 
HETATM   14  C14 UNL     1      20.862   2.917  51.514  1.00  0.00     0.042 C 
HETATM   15  C15 UNL     1      21.041   2.959  50.002  1.00  0.00     0.054 C 
ENDROOT
BRANCH   1  16
HETATM   16  O1  UNL     1      27.341   0.764  52.511  1.00  0.00    -0.386 OA
BRANCH  16  17
HETATM   17  C2  UNL     1      27.429  -0.373  53.251  1.00  0.00     0.163 C 
HETATM   18  C1  UNL     1      26.735  -1.492  52.507  1.00  0.00     0.033 C 
ENDBRANCH  16  17
ENDBRANCH   1  16
BRANCH   7  19
HETATM   19  O2  UNL     1      22.088   4.707  48.355  1.00  0.00    -0.360 OA
HETATM   20  H10 UNL     1      21.128   4.381  48.383  1.00  0.00     0.217 HD
ENDBRANCH   7  19
BRANCH  15  21
HETATM   21  C16 UNL     1      20.557   1.663  49.461  1.00  0.00     0.400 C 
HETATM   22  O3  UNL     1      19.645   0.942  49.837  1.00  0.00    -0.429 OA
ENDBRANCH  15  21
TORSDOF 4
ENDMDL
MODEL 7
REMARK VINA RESULT:      -6.0      2.958      4.796
REMARK  4 active torsions:
REMARK  status: ('A' for Active; 'I' for Inactive)
REMARK    1  A    between atoms: C2_2  and  O1_3 
REMARK    2  A    between atoms: O1_3  and  C3_4 
REMARK    3  A    between atoms: C8_10  and  O2_11 
REMARK    4  A    between atoms: C15_19  and  C16_20 
ROOT
HETATM    1  C3  UNL     1      19.596   0.806  51.146  1.00  0.00     0.129 C 
HETATM    2  C4  UNL     1      20.564   0.223  52.182  1.00  0.00     0.041 C 
HETATM    3  C5  UNL     1      21.528  -0.165  53.054  1.00  0.00     0.098 A 
HETATM    4  C6  UNL     1      22.873   0.362  53.395  1.00  0.00    -0.004 A 
HETATM    5 BR1  UNL     1      22.639  -1.166  54.550  1.00  0.00    -0.121 Br
HETATM    6  C7  UNL     1      24.008   1.095  53.436  1.00  0.00     0.052 C 
HETATM    7  C8  UNL     1      24.318   2.255  52.621  1.00  0.00     0.071 C 
HETATM    8  C9  UNL     1      23.670   2.862  51.655  1.00  0.00    -0.012 C 
HETATM    9  C10 UNL     1      22.433   2.824  50.846  1.00  0.00     0.310 C 
HETATM   10  N1  UNL     1      21.407   3.306  51.760  1.00  0.00     0.092 N 
HETATM   11  C11 UNL     1      20.116   3.286  51.210  1.00  0.00     0.275 C 
HETATM   12  C12 UNL     1      19.187   2.157  51.510  1.00  0.00     0.062 C 
HETATM   13  C13 UNL     1      21.915   4.612  52.167  1.00  0.00     0.273 C 
HETATM   14  C14 UNL     1      23.032   5.126  51.289  1.00  0.00     0.042 C 
HETATM   15  C15 UNL     1      24.236   4.197  51.206  1.00  0.00     0.054 C 
ENDROOT
BRANCH   1  16
HETATM   16  O1  UNL     1      18.588  -0.150  51.151  1.00  0.00    -0.386 OA
BRANCH  16  17
HETATM   17  C2  UNL     1      17.531   0.088  51.973  1.00  0.00     0.163 C 
HETATM   18  C1  UNL     1      17.234  -1.169  52.759  1.00  0.00     0.033 C 
ENDBRANCH  16  17
ENDBRANCH   1  16
BRANCH   7  19
HETATM   19  O2  UNL     1      25.551   2.782  52.976  1.00  0.00    -0.360 OA
HETATM   20  H10 UNL     1      25.566   3.410  53.771  1.00  0.00     0.217 HD
ENDBRANCH   7  19
BRANCH  15  21
HETATM   21  C16 UNL     1      24.612   4.085  49.774  1.00  0.00     0.400 C 
HETATM   22  O3  UNL     1      25.625   3.639  49.257  1.00  0.00    -0.429 OA
ENDBRANCH  15  21
TORSDOF 4
ENDMDL
MODEL 8
REMARK VINA RESULT:      -5.8      9.663     11.768
REMARK  4 active torsions:
REMARK  status: ('A' for Active; 'I' for Inactive)
REMARK    1  A    between atoms: C2_2  and  O1_3 
REMARK    2  A    between atoms: O1_3  and  C3_4 
REMARK    3  A    between atoms: C8_10  and  O2_11 
REMARK    4  A    between atoms: C15_19  and  C16_20 
ROOT
HETATM    1  C3  UNL     1      32.225   5.573  47.544  1.00  0.00     0.129 C 
HETATM    2  C4  UNL     1      30.741   5.433  47.902  1.00  0.00     0.041 C 
HETATM    3  C5  UNL     1      29.421   5.482  48.210  1.00  0.00     0.098 A 
HETATM    4  C6  UNL     1      28.445   6.590  48.365  1.00  0.00    -0.004 A 
HETATM    5 BR1  UNL     1      27.420   4.987  48.687  1.00  0.00    -0.121 Br
HETATM    6  C7  UNL     1      27.865   7.809  48.427  1.00  0.00     0.052 C 
HETATM    7  C8  UNL     1      28.517   9.088  48.218  1.00  0.00     0.071 C 
HETATM    8  C9  UNL     1      29.760   9.423  47.971  1.00  0.00    -0.012 C 
HETATM    9  C10 UNL     1      31.123   8.880  47.782  1.00  0.00     0.310 C 
HETATM   10  N1  UNL     1      31.078   8.292  46.450  1.00  0.00     0.092 N 
HETATM   11  C11 UNL     1      32.269   7.646  46.085  1.00  0.00     0.275 C 
HETATM   12  C12 UNL     1      32.394   6.165  46.222  1.00  0.00     0.062 C 
HETATM   13  C13 UNL     1      30.667   9.411  45.609  1.00  0.00     0.273 C 
HETATM   14  C14 UNL     1      30.791  10.755  46.288  1.00  0.00     0.042 C 
HETATM   15  C15 UNL     1      30.000  10.872  47.584  1.00  0.00     0.054 C 
ENDROOT
BRANCH   1  16
HETATM   16  O1  UNL     1      32.659   4.260  47.675  1.00  0.00    -0.386 OA
BRANCH  16  17
HETATM   17  C2  UNL     1      32.644   3.501  46.547  1.00  0.00     0.163 C 
HETATM   18  C1  UNL     1      32.669   2.041  46.942  1.00  0.00     0.033 C 
ENDBRANCH  16  17
ENDBRANCH   1  16
BRANCH   7  19
HETATM   19  O2  UNL     1      27.596  10.122  48.308  1.00  0.00    -0.360 OA
HETATM   20  H10 UNL     1      27.077  10.197  49.176  1.00  0.00     0.217 HD
ENDBRANCH   7  19
BRANCH  15  21
HETATM   21  C16 UNL     1      30.897  11.482  48.598  1.00  0.00     0.400 C 
HETATM   22  O3  UNL     1      30.712  12.430  49.347  1.00  0.00    -0.429 OA
ENDBRANCH  15  21
TORSDOF 4
ENDMDL
MODEL 9
REMARK VINA RESULT:      -5.7     22.050     23.897
REMARK  4 active torsions:
REMARK  status: ('A' for Active; 'I' for Inactive)
REMARK    1  A    between atoms: C2_2  and  O1_3 
REMARK    2  A    between atoms: O1_3  and  C3_4 
REMARK    3  A    between atoms: C8_10  and  O2_11 
REMARK    4  A    between atoms: C15_19  and  C16_20 
ROOT
HETATM    1  C3  UNL     1      38.641   2.684  70.684  1.00  0.00     0.129 C 
HETATM    2  C4  UNL     1      38.367   1.544  69.696  1.00  0.00     0.041 C 
HETATM    3  C5  UNL     1      38.296   0.531  68.798  1.00  0.00     0.098 A 
HETATM    4  C6  UNL     1      39.312  -0.225  68.023  1.00  0.00    -0.004 A 
HETATM    5 BR1  UNL     1      37.625  -1.016  67.519  1.00  0.00    -0.121 Br
HETATM    6  C7  UNL     1      40.473  -0.674  67.496  1.00  0.00     0.052 C 
HETATM    7  C8  UNL     1      41.803  -0.166  67.778  1.00  0.00     0.071 C 
HETATM    8  C9  UNL     1      42.239   0.820  68.525  1.00  0.00    -0.012 C 
HETATM    9  C10 UNL     1      41.807   1.914  69.420  1.00  0.00     0.310 C 
HETATM   10  N1  UNL     1      41.431   1.226  70.649  1.00  0.00     0.092 N 
HETATM   11  C11 UNL     1      40.915   2.084  71.632  1.00  0.00     0.275 C 
HETATM   12  C12 UNL     1      39.439   2.220  71.813  1.00  0.00     0.062 C 
HETATM   13  C13 UNL     1      42.643   0.495  71.002  1.00  0.00     0.273 C 
HETATM   14  C14 UNL     1      43.870   0.961  70.254  1.00  0.00     0.042 C 
HETATM   15  C15 UNL     1      43.741   0.884  68.738  1.00  0.00     0.054 C 
ENDROOT
BRANCH   1  16
HETATM   16  O1  UNL     1      37.349   3.092  70.989  1.00  0.00    -0.386 OA
BRANCH  16  17
HETATM   17  C2  UNL     1      37.231   4.218  71.743  1.00  0.00     0.163 C 
HETATM   18  C1  UNL     1      37.597   5.413  70.892  1.00  0.00     0.033 C 
ENDBRANCH  16  17
ENDBRANCH   1  16
BRANCH   7  19
HETATM   19  O2  UNL     1      42.759  -0.906  67.097  1.00  0.00    -0.360 OA
HETATM   20  H10 UNL     1      42.419  -1.552  66.393  1.00  0.00     0.217 HD
ENDBRANCH   7  19
BRANCH  15  21
HETATM   21  C16 UNL     1      44.234   2.172  68.184  1.00  0.00     0.400 C 
HETATM   22  O3  UNL     1      44.222   2.594  67.038  1.00  0.00    -0.429 OA
ENDBRANCH  15  21
TORSDOF 4
ENDMDL
