MODEL 1
REMARK VINA RESULT:      -9.8      0.000      0.000
REMARK  2 active torsions:
REMARK  status: ('A' for Active; 'I' for Inactive)
REMARK    1  A    between atoms: C10_12  and  N2_13 
REMARK    2  A    between atoms: N2_13  and  C11_14 
ROOT
HETATM    1  C1  UNL     1      17.105   4.358  50.738  1.00  0.00     0.032 C 
HETATM    2  C2  UNL     1      18.239   3.411  50.313  1.00  0.00     0.078 C 
HETATM    3  C3  UNL     1      19.182   4.144  49.427  1.00  0.00     0.055 C 
HETATM    4  C4  UNL     1      20.421   3.394  49.097  1.00  0.00     0.278 C 
HETATM    5  N1  UNL     1      21.391   3.305  50.175  1.00  0.00     0.119 N 
HETATM    6  C5  UNL     1      22.045   4.630  50.165  1.00  0.00     0.301 C 
HETATM    7  C6  UNL     1      23.168   4.390  49.205  1.00  0.00     0.201 C 
HETATM    8  O1  UNL     1      23.267   3.039  48.947  1.00  0.00    -0.355 OA
HETATM    9  C7  UNL     1      22.442   2.393  49.862  1.00  0.00     0.364 C 
HETATM   10  C8  UNL     1      23.149   1.744  50.965  1.00  0.00     0.075 A 
HETATM   11  C9  UNL     1      23.460   0.963  52.056  1.00  0.00     0.063 A 
HETATM   12  C10 UNL     1      24.568   0.771  52.776  1.00  0.00     0.116 A 
HETATM   13  N3  UNL     1      24.404  -0.084  53.767  1.00  0.00    -0.249 NA
HETATM   14  C17 UNL     1      23.163  -0.685  53.973  1.00  0.00     0.117 A 
HETATM   15  C18 UNL     1      22.660  -0.032  52.941  1.00  0.00     0.094 A 
HETATM   16  C19 UNL     1      21.222  -0.732  53.482  1.00  0.00    -0.003 C 
HETATM   17  N4  UNL     1      20.125  -1.243  53.901  1.00  0.00    -0.100 N 
HETATM   18  C20 UNL     1      22.070   0.687  51.791  1.00  0.00     0.013 A 
HETATM   19  C21 UNL     1      20.878   0.673  51.580  1.00  0.00     0.020 C 
HETATM   20  C22 UNL     1      19.586   0.238  51.314  1.00  0.00     0.013 C 
HETATM   21  C23 UNL     1      19.003   1.370  51.325  1.00  0.00     0.083 C 
HETATM   22  N5  UNL     1      18.836   2.795  51.453  1.00  0.00    -0.395 N 
HETATM   23  H24 UNL     1      19.271   2.542  52.359  1.00  0.00     0.159 HD
ENDROOT
BRANCH  12  24
HETATM   24  N2  UNL     1      25.701   1.524  52.285  1.00  0.00    -0.344 N 
HETATM   25  H15 UNL     1      25.729   2.286  51.590  1.00  0.00     0.167 HD
BRANCH  24  26
HETATM   26  C11 UNL     1      26.958   1.198  52.824  1.00  0.00     0.034 A 
HETATM   27  C12 UNL     1      27.779   2.208  53.396  1.00  0.00     0.029 A 
HETATM   28  C13 UNL     1      29.033   1.947  53.935  1.00  0.00     0.004 A 
HETATM   29  C14 UNL     1      29.536   0.671  53.929  1.00  0.00     0.019 A 
HETATM   30  C15 UNL     1      28.791  -0.349  53.390  1.00  0.00     0.013 A 
HETATM   31 BR1  UNL     1      29.447  -2.160  53.366  1.00  0.00    -0.051 Br
HETATM   32  C16 UNL     1      27.553  -0.033  52.873  1.00  0.00     0.048 A 
ENDBRANCH  24  26
ENDBRANCH  12  24
TORSDOF 2
ENDMDL
MODEL 2
REMARK VINA RESULT:      -9.3      1.768      2.446
REMARK  2 active torsions:
REMARK  status: ('A' for Active; 'I' for Inactive)
REMARK    1  A    between atoms: C10_12  and  N2_13 
REMARK    2  A    between atoms: N2_13  and  C11_14 
ROOT
HETATM    1  C1  UNL     1      19.547   6.430  47.849  1.00  0.00     0.032 C 
HETATM    2  C2  UNL     1      20.687   5.401  47.906  1.00  0.00     0.078 C 
HETATM    3  C3  UNL     1      21.987   6.101  47.727  1.00  0.00     0.055 C 
HETATM    4  C4  UNL     1      23.180   5.244  47.947  1.00  0.00     0.278 C 
HETATM    5  N1  UNL     1      23.461   4.927  49.337  1.00  0.00     0.119 N 
HETATM    6  C5  UNL     1      24.098   6.157  49.852  1.00  0.00     0.301 C 
HETATM    7  C6  UNL     1      25.539   5.882  49.553  1.00  0.00     0.201 C 
HETATM    8  O1  UNL     1      25.684   4.563  49.178  1.00  0.00    -0.355 OA
HETATM    9  C7  UNL     1      24.476   3.931  49.454  1.00  0.00     0.364 C 
HETATM   10  C8  UNL     1      24.489   3.091  50.649  1.00  0.00     0.075 A 
HETATM   11  C9  UNL     1      24.160   2.169  51.619  1.00  0.00     0.063 A 
HETATM   12  C10 UNL     1      24.736   1.771  52.756  1.00  0.00     0.116 A 
HETATM   13  N3  UNL     1      24.046   0.845  53.392  1.00  0.00    -0.249 NA
HETATM   14  C17 UNL     1      22.844   0.380  52.862  1.00  0.00     0.117 A 
HETATM   15  C18 UNL     1      22.970   1.193  51.829  1.00  0.00     0.094 A 
HETATM   16  C19 UNL     1      21.422   0.621  51.472  1.00  0.00    -0.003 C 
HETATM   17  N4  UNL     1      20.239   0.206  51.209  1.00  0.00    -0.100 N 
HETATM   18  C20 UNL     1      23.086   2.093  50.661  1.00  0.00     0.013 A 
HETATM   19  C21 UNL     1      22.168   2.246  49.887  1.00  0.00     0.020 C 
HETATM   20  C22 UNL     1      21.169   2.001  48.952  1.00  0.00     0.013 C 
HETATM   21  C23 UNL     1      20.722   3.188  48.842  1.00  0.00     0.083 C 
HETATM   22  N5  UNL     1      20.589   4.603  49.084  1.00  0.00    -0.395 N 
HETATM   23  H24 UNL     1      20.488   4.206  50.036  1.00  0.00     0.159 HD
ENDROOT
BRANCH  12  24
HETATM   24  N2  UNL     1      25.999   2.427  53.011  1.00  0.00    -0.344 N 
HETATM   25  H15 UNL     1      26.216   3.434  53.060  1.00  0.00     0.167 HD
BRANCH  24  26
HETATM   26  C11 UNL     1      27.108   1.593  53.244  1.00  0.00     0.034 A 
HETATM   27  C12 UNL     1      28.320   2.134  53.756  1.00  0.00     0.029 A 
HETATM   28  C13 UNL     1      29.450   1.362  53.996  1.00  0.00     0.004 A 
HETATM   29  C14 UNL     1      29.435   0.015  53.735  1.00  0.00     0.019 A 
HETATM   30  C15 UNL     1      28.294  -0.567  53.239  1.00  0.00     0.013 A 
HETATM   31 BR1  UNL     1      28.218  -2.455  52.867  1.00  0.00    -0.051 Br
HETATM   32  C16 UNL     1      27.202   0.246  53.024  1.00  0.00     0.048 A 
ENDBRANCH  24  26
ENDBRANCH  12  24
TORSDOF 2
ENDMDL
MODEL 3
REMARK VINA RESULT:      -9.2      3.247      8.070
REMARK  2 active torsions:
REMARK  status: ('A' for Active; 'I' for Inactive)
REMARK    1  A    between atoms: C10_12  and  N2_13 
REMARK    2  A    between atoms: N2_13  and  C11_14 
ROOT
HETATM    1  C1  UNL     1      29.090   1.008  54.016  1.00  0.00     0.032 C 
HETATM    2  C2  UNL     1      27.875   0.861  53.085  1.00  0.00     0.078 C 
HETATM    3  C3  UNL     1      27.044  -0.284  53.543  1.00  0.00     0.055 C 
HETATM    4  C4  UNL     1      25.743  -0.417  52.839  1.00  0.00     0.278 C 
HETATM    5  N1  UNL     1      24.736   0.557  53.221  1.00  0.00     0.119 N 
HETATM    6  C5  UNL     1      24.229   0.047  54.511  1.00  0.00     0.301 C 
HETATM    7  C6  UNL     1      23.117  -0.844  54.052  1.00  0.00     0.201 C 
HETATM    8  O1  UNL     1      22.882  -0.627  52.711  1.00  0.00    -0.355 OA
HETATM    9  C7  UNL     1      23.603   0.508  52.355  1.00  0.00     0.364 C 
HETATM   10  C8  UNL     1      22.796   1.717  52.199  1.00  0.00     0.075 A 
HETATM   11  C9  UNL     1      22.369   2.987  51.880  1.00  0.00     0.063 A 
HETATM   12  C10 UNL     1      21.224   3.653  52.053  1.00  0.00     0.116 A 
HETATM   13  N3  UNL     1      21.265   4.887  51.587  1.00  0.00    -0.249 NA
HETATM   14  C17 UNL     1      22.426   5.370  50.988  1.00  0.00     0.117 A 
HETATM   15  C18 UNL     1      23.029   4.213  51.191  1.00  0.00     0.094 A 
HETATM   16  C19 UNL     1      24.366   5.057  50.598  1.00  0.00    -0.003 C 
HETATM   17  N4  UNL     1      25.388   5.699  50.170  1.00  0.00    -0.100 N 
HETATM   18  C20 UNL     1      23.729   2.927  51.406  1.00  0.00     0.013 A 
HETATM   19  C21 UNL     1      24.918   2.815  51.212  1.00  0.00     0.020 C 
HETATM   20  C22 UNL     1      26.164   2.802  50.597  1.00  0.00     0.013 C 
HETATM   21  C23 UNL     1      26.865   2.461  51.604  1.00  0.00     0.083 C 
HETATM   22  N5  UNL     1      27.180   2.100  52.964  1.00  0.00    -0.395 N 
HETATM   23  H24 UNL     1      26.692   3.007  53.083  1.00  0.00     0.159 HD
ENDROOT
BRANCH  12  24
HETATM   24  N2  UNL     1      20.195   2.858  52.684  1.00  0.00    -0.344 N 
HETATM   25  H15 UNL     1      19.956   2.770  53.683  1.00  0.00     0.167 HD
BRANCH  24  26
HETATM   26  C11 UNL     1      19.378   2.091  51.833  1.00  0.00     0.034 A 
HETATM   27  C12 UNL     1      19.219   0.696  52.054  1.00  0.00     0.029 A 
HETATM   28  C13 UNL     1      18.433  -0.113  51.241  1.00  0.00     0.004 A 
HETATM   29  C14 UNL     1      17.770   0.423  50.167  1.00  0.00     0.019 A 
HETATM   30  C15 UNL     1      17.884   1.766  49.900  1.00  0.00     0.013 A 
HETATM   31 BR1  UNL     1      16.965   2.570  48.410  1.00  0.00    -0.051 Br
HETATM   32  C16 UNL     1      18.674   2.520  50.741  1.00  0.00     0.048 A 
ENDBRANCH  24  26
ENDBRANCH  12  24
TORSDOF 2
ENDMDL
MODEL 4
REMARK VINA RESULT:      -9.2      1.473      2.055
REMARK  2 active torsions:
REMARK  status: ('A' for Active; 'I' for Inactive)
REMARK    1  A    between atoms: C10_12  and  N2_13 
REMARK    2  A    between atoms: N2_13  and  C11_14 
ROOT
HETATM    1  C1  UNL     1      15.579   3.989  50.779  1.00  0.00     0.032 C 
HETATM    2  C2  UNL     1      16.805   3.132  50.423  1.00  0.00     0.078 C 
HETATM    3  C3  UNL     1      17.831   3.992  49.776  1.00  0.00     0.055 C 
HETATM    4  C4  UNL     1      19.138   3.323  49.551  1.00  0.00     0.278 C 
HETATM    5  N1  UNL     1      19.945   3.134  50.743  1.00  0.00     0.119 N 
HETATM    6  C5  UNL     1      20.532   4.469  50.981  1.00  0.00     0.301 C 
HETATM    7  C6  UNL     1      21.792   4.377  50.178  1.00  0.00     0.201 C 
HETATM    8  O1  UNL     1      21.989   3.070  49.785  1.00  0.00    -0.355 OA
HETATM    9  C7  UNL     1      21.072   2.296  50.489  1.00  0.00     0.364 C 
HETATM   10  C8  UNL     1      21.641   1.541  51.603  1.00  0.00     0.075 A 
HETATM   11  C9  UNL     1      21.827   0.644  52.632  1.00  0.00     0.063 A 
HETATM   12  C10 UNL     1      22.827   0.400  53.482  1.00  0.00     0.116 A 
HETATM   13  N3  UNL     1      22.561  -0.571  54.334  1.00  0.00    -0.249 NA
HETATM   14  C17 UNL     1      21.333  -1.228  54.283  1.00  0.00     0.117 A 
HETATM   15  C18 UNL     1      20.954  -0.471  53.270  1.00  0.00     0.094 A 
HETATM   16  C19 UNL     1      19.487  -1.272  53.507  1.00  0.00    -0.003 C 
HETATM   17  N4  UNL     1      18.366  -1.861  53.698  1.00  0.00    -0.100 N 
HETATM   18  C20 UNL     1      20.504   0.363  52.134  1.00  0.00     0.013 A 
HETATM   19  C21 UNL     1      19.357   0.339  51.748  1.00  0.00     0.020 C 
HETATM   20  C22 UNL     1      18.138  -0.098  51.245  1.00  0.00     0.013 C 
HETATM   21  C23 UNL     1      17.508   1.007  51.298  1.00  0.00     0.083 C 
HETATM   22  N5  UNL     1      17.259   2.402  51.561  1.00  0.00    -0.395 N 
HETATM   23  H24 UNL     1      17.570   2.054  52.487  1.00  0.00     0.159 HD
ENDROOT
BRANCH  12  24
HETATM   24  N2  UNL     1      23.983   1.238  53.253  1.00  0.00    -0.344 N 
HETATM   25  H15 UNL     1      24.034   2.258  53.107  1.00  0.00     0.167 HD
BRANCH  24  26
HETATM   26  C11 UNL     1      25.235   0.597  53.235  1.00  0.00     0.034 A 
HETATM   27  C12 UNL     1      25.358  -0.728  52.734  1.00  0.00     0.029 A 
HETATM   28  C13 UNL     1      26.566  -1.414  52.701  1.00  0.00     0.004 A 
HETATM   29  C14 UNL     1      27.711  -0.821  53.167  1.00  0.00     0.019 A 
HETATM   30  C15 UNL     1      27.658   0.459  53.665  1.00  0.00     0.013 A 
HETATM   31 BR1  UNL     1      29.239   1.341  54.322  1.00  0.00    -0.051 Br
HETATM   32  C16 UNL     1      26.434   1.092  53.670  1.00  0.00     0.048 A 
ENDBRANCH  24  26
ENDBRANCH  12  24
TORSDOF 2
ENDMDL
MODEL 5
REMARK VINA RESULT:      -9.2      3.464      7.040
REMARK  2 active torsions:
REMARK  status: ('A' for Active; 'I' for Inactive)
REMARK    1  A    between atoms: C10_12  and  N2_13 
REMARK    2  A    between atoms: N2_13  and  C11_14 
ROOT
HETATM    1  C1  UNL     1      27.542   4.369  48.583  1.00  0.00     0.032 C 
HETATM    2  C2  UNL     1      26.695   4.304  49.863  1.00  0.00     0.078 C 
HETATM    3  C3  UNL     1      25.566   5.265  49.752  1.00  0.00     0.055 C 
HETATM    4  C4  UNL     1      24.566   5.166  50.846  1.00  0.00     0.278 C 
HETATM    5  N1  UNL     1      23.685   4.014  50.771  1.00  0.00     0.119 N 
HETATM    6  C5  UNL     1      22.699   4.397  49.740  1.00  0.00     0.301 C 
HETATM    7  C6  UNL     1      21.657   5.073  50.575  1.00  0.00     0.201 C 
HETATM    8  O1  UNL     1      21.918   4.840  51.908  1.00  0.00    -0.355 OA
HETATM    9  C7  UNL     1      22.910   3.866  51.959  1.00  0.00     0.364 C 
HETATM   10  C8  UNL     1      22.434   2.531  52.316  1.00  0.00     0.075 A 
HETATM   11  C9  UNL     1      22.374   1.210  52.700  1.00  0.00     0.063 A 
HETATM   12  C10 UNL     1      21.377   0.339  52.880  1.00  0.00     0.116 A 
HETATM   13  N3  UNL     1      21.792  -0.857  53.251  1.00  0.00    -0.249 NA
HETATM   14  C17 UNL     1      23.154  -1.104  53.418  1.00  0.00     0.117 A 
HETATM   15  C18 UNL     1      23.435   0.142  53.082  1.00  0.00     0.094 A 
HETATM   16  C19 UNL     1      25.022  -0.427  53.168  1.00  0.00    -0.003 C 
HETATM   17  N4  UNL     1      26.227  -0.860  53.212  1.00  0.00    -0.100 N 
HETATM   18  C20 UNL     1      23.779   1.531  52.707  1.00  0.00     0.013 A 
HETATM   19  C21 UNL     1      24.925   1.867  52.508  1.00  0.00     0.020 C 
HETATM   20  C22 UNL     1      26.279   2.123  52.684  1.00  0.00     0.013 C 
HETATM   21  C23 UNL     1      26.536   2.570  51.520  1.00  0.00     0.083 C 
HETATM   22  N5  UNL     1      26.316   2.959  50.150  1.00  0.00    -0.395 N 
HETATM   23  H24 UNL     1      25.990   1.975  50.155  1.00  0.00     0.159 HD
ENDROOT
BRANCH  12  24
HETATM   24  N2  UNL     1      20.072   0.916  52.654  1.00  0.00    -0.344 N 
HETATM   25  H15 UNL     1      19.804   1.907  52.542  1.00  0.00     0.167 HD
BRANCH  24  26
HETATM   26  C11 UNL     1      18.992   0.020  52.556  1.00  0.00     0.034 A 
HETATM   27  C12 UNL     1      18.833  -1.022  53.510  1.00  0.00     0.029 A 
HETATM   28  C13 UNL     1      17.793  -1.942  53.457  1.00  0.00     0.004 A 
HETATM   29  C14 UNL     1      16.862  -1.876  52.452  1.00  0.00     0.019 A 
HETATM   30  C15 UNL     1      16.962  -0.892  51.498  1.00  0.00     0.013 A 
HETATM   31 BR1  UNL     1      15.675  -0.750  50.073  1.00  0.00    -0.051 Br
HETATM   32  C16 UNL     1      18.011  -0.005  51.602  1.00  0.00     0.048 A 
ENDBRANCH  24  26
ENDBRANCH  12  24
TORSDOF 2
ENDMDL
MODEL 6
REMARK VINA RESULT:      -9.0      3.162      6.820
REMARK  2 active torsions:
REMARK  status: ('A' for Active; 'I' for Inactive)
REMARK    1  A    between atoms: C10_12  and  N2_13 
REMARK    2  A    between atoms: N2_13  and  C11_14 
ROOT
HETATM    1  C1  UNL     1      27.451   4.390  48.583  1.00  0.00     0.032 C 
HETATM    2  C2  UNL     1      26.732   4.318  49.939  1.00  0.00     0.078 C 
HETATM    3  C3  UNL     1      25.674   5.361  49.988  1.00  0.00     0.055 C 
HETATM    4  C4  UNL     1      24.783   5.276  51.174  1.00  0.00     0.278 C 
HETATM    5  N1  UNL     1      23.814   4.194  51.137  1.00  0.00     0.119 N 
HETATM    6  C5  UNL     1      22.762   4.699  50.231  1.00  0.00     0.301 C 
HETATM    7  C6  UNL     1      21.862   5.403  51.199  1.00  0.00     0.201 C 
HETATM    8  O1  UNL     1      22.236   5.082  52.487  1.00  0.00    -0.355 OA
HETATM    9  C7  UNL     1      23.152   4.039  52.391  1.00  0.00     0.364 C 
HETATM   10  C8  UNL     1      22.614   2.725  52.734  1.00  0.00     0.075 A 
HETATM   11  C9  UNL     1      22.493   1.392  53.063  1.00  0.00     0.063 A 
HETATM   12  C10 UNL     1      21.456   0.586  53.305  1.00  0.00     0.116 A 
HETATM   13  N3  UNL     1      21.814  -0.654  53.578  1.00  0.00    -0.249 NA
HETATM   14  C17 UNL     1      23.163  -1.005  53.592  1.00  0.00     0.117 A 
HETATM   15  C18 UNL     1      23.503   0.233  53.285  1.00  0.00     0.094 A 
HETATM   16  C19 UNL     1      25.043  -0.450  53.183  1.00  0.00    -0.003 C 
HETATM   17  N4  UNL     1      26.210  -0.968  53.082  1.00  0.00    -0.100 N 
HETATM   18  C20 UNL     1      23.911   1.612  52.941  1.00  0.00     0.013 A 
HETATM   19  C21 UNL     1      25.054   1.877  52.640  1.00  0.00     0.020 C 
HETATM   20  C22 UNL     1      26.434   2.027  52.687  1.00  0.00     0.013 C 
HETATM   21  C23 UNL     1      26.608   2.516  51.524  1.00  0.00     0.083 C 
HETATM   22  N5  UNL     1      26.283   2.990  50.202  1.00  0.00    -0.395 N 
HETATM   23  H24 UNL     1      25.886   2.032  50.197  1.00  0.00     0.159 HD
ENDROOT
BRANCH  12  24
HETATM   24  N2  UNL     1      20.182   1.265  53.241  1.00  0.00    -0.344 N 
HETATM   25  H15 UNL     1      19.727   1.872  53.941  1.00  0.00     0.167 HD
BRANCH  24  26
HETATM   26  C11 UNL     1      19.437   1.102  52.058  1.00  0.00     0.034 A 
HETATM   27  C12 UNL     1      18.483   0.054  51.947  1.00  0.00     0.029 A 
HETATM   28  C13 UNL     1      17.727  -0.161  50.801  1.00  0.00     0.004 A 
HETATM   29  C14 UNL     1      17.884   0.652  49.708  1.00  0.00     0.019 A 
HETATM   30  C15 UNL     1      18.791   1.682  49.752  1.00  0.00     0.013 A 
HETATM   31 BR1  UNL     1      19.041   2.858  48.247  1.00  0.00    -0.051 Br
HETATM   32  C16 UNL     1      19.511   1.851  50.915  1.00  0.00     0.048 A 
ENDBRANCH  24  26
ENDBRANCH  12  24
TORSDOF 2
ENDMDL
MODEL 7
REMARK VINA RESULT:      -9.0      2.732      6.583
REMARK  2 active torsions:
REMARK  status: ('A' for Active; 'I' for Inactive)
REMARK    1  A    between atoms: C10_12  and  N2_13 
REMARK    2  A    between atoms: N2_13  and  C11_14 
ROOT
HETATM    1  C1  UNL     1      28.190  -1.109  53.006  1.00  0.00     0.032 C 
HETATM    2  C2  UNL     1      27.040  -0.219  53.503  1.00  0.00     0.078 C 
HETATM    3  C3  UNL     1      27.210   1.153  52.955  1.00  0.00     0.055 C 
HETATM    4  C4  UNL     1      26.064   2.062  53.210  1.00  0.00     0.278 C 
HETATM    5  N1  UNL     1      24.886   1.808  52.399  1.00  0.00     0.119 N 
HETATM    6  C5  UNL     1      25.226   2.406  51.092  1.00  0.00     0.301 C 
HETATM    7  C6  UNL     1      24.731   3.807  51.279  1.00  0.00     0.201 C 
HETATM    8  O1  UNL     1      23.977   3.875  52.431  1.00  0.00    -0.355 OA
HETATM    9  C7  UNL     1      23.764   2.566  52.850  1.00  0.00     0.364 C 
HETATM   10  C8  UNL     1      22.424   2.051  52.577  1.00  0.00     0.075 A 
HETATM   11  C9  UNL     1      21.280   1.283  52.573  1.00  0.00     0.063 A 
HETATM   12  C10 UNL     1      20.101   1.377  51.953  1.00  0.00     0.116 A 
HETATM   13  N3  UNL     1      19.281   0.384  52.242  1.00  0.00    -0.249 NA
HETATM   14  C17 UNL     1      19.684  -0.623  53.117  1.00  0.00     0.117 A 
HETATM   15  C18 UNL     1      20.857  -0.038  53.273  1.00  0.00     0.094 A 
HETATM   16  C19 UNL     1      21.192  -1.440  54.151  1.00  0.00    -0.003 C 
HETATM   17  N4  UNL     1      21.458  -2.512  54.800  1.00  0.00    -0.100 N 
HETATM   18  C20 UNL     1      22.180   0.596  53.465  1.00  0.00     0.013 A 
HETATM   19  C21 UNL     1      23.076   0.026  54.047  1.00  0.00     0.020 C 
HETATM   20  C22 UNL     1      23.815  -0.622  55.028  1.00  0.00     0.013 C 
HETATM   21  C23 UNL     1      24.877  -0.827  54.356  1.00  0.00     0.083 C 
HETATM   22  N5  UNL     1      25.778  -0.825  53.231  1.00  0.00    -0.395 N 
HETATM   23  H24 UNL     1      24.941  -1.298  52.843  1.00  0.00     0.159 HD
ENDROOT
BRANCH  12  24
HETATM   24  N2  UNL     1      19.984   2.560  51.132  1.00  0.00    -0.344 N 
HETATM   25  H15 UNL     1      19.381   3.389  51.259  1.00  0.00     0.167 HD
BRANCH  24  26
HETATM   26  C11 UNL     1      20.809   2.625  49.995  1.00  0.00     0.034 A 
HETATM   27  C12 UNL     1      21.057   1.460  49.218  1.00  0.00     0.029 A 
HETATM   28  C13 UNL     1      21.871   1.463  48.092  1.00  0.00     0.004 A 
HETATM   29  C14 UNL     1      22.483   2.620  47.684  1.00  0.00     0.019 A 
HETATM   30  C15 UNL     1      22.284   3.780  48.393  1.00  0.00     0.013 A 
HETATM   31 BR1  UNL     1      23.111   5.433  47.855  1.00  0.00    -0.051 Br
HETATM   32  C16 UNL     1      21.464   3.720  49.499  1.00  0.00     0.048 A 
ENDBRANCH  24  26
ENDBRANCH  12  24
TORSDOF 2
ENDMDL
MODEL 8
REMARK VINA RESULT:      -8.9      3.368      5.825
REMARK  2 active torsions:
REMARK  status: ('A' for Active; 'I' for Inactive)
REMARK    1  A    between atoms: C10_12  and  N2_13 
REMARK    2  A    between atoms: N2_13  and  C11_14 
ROOT
HETATM    1  C1  UNL     1      20.515   9.439  47.715  1.00  0.00     0.032 C 
HETATM    2  C2  UNL     1      21.414   8.856  48.817  1.00  0.00     0.078 C 
HETATM    3  C3  UNL     1      20.581   8.059  49.756  1.00  0.00     0.055 C 
HETATM    4  C4  UNL     1      21.357   7.289  50.761  1.00  0.00     0.278 C 
HETATM    5  N1  UNL     1      22.030   6.110  50.246  1.00  0.00     0.119 N 
HETATM    6  C5  UNL     1      20.947   5.110  50.138  1.00  0.00     0.301 C 
HETATM    7  C6  UNL     1      20.998   4.482  51.496  1.00  0.00     0.201 C 
HETATM    8  O1  UNL     1      22.138   4.899  52.150  1.00  0.00    -0.355 OA
HETATM    9  C7  UNL     1      22.926   5.553  51.208  1.00  0.00     0.364 C 
HETATM   10  C8  UNL     1      24.067   4.778  50.726  1.00  0.00     0.075 A 
HETATM   11  C9  UNL     1      25.252   4.402  50.132  1.00  0.00     0.063 A 
HETATM   12  C10 UNL     1      25.905   3.243  50.012  1.00  0.00     0.116 A 
HETATM   13  N3  UNL     1      27.030   3.348  49.333  1.00  0.00    -0.249 NA
HETATM   14  C17 UNL     1      27.428   4.583  48.825  1.00  0.00     0.117 A 
HETATM   15  C18 UNL     1      26.347   5.153  49.326  1.00  0.00     0.094 A 
HETATM   16  C19 UNL     1      26.927   6.491  48.476  1.00  0.00    -0.003 C 
HETATM   17  N4  UNL     1      27.352   7.502  47.814  1.00  0.00    -0.100 N 
HETATM   18  C20 UNL     1      25.145   5.817  49.877  1.00  0.00     0.013 A 
HETATM   19  C21 UNL     1      24.860   6.955  49.580  1.00  0.00     0.020 C 
HETATM   20  C22 UNL     1      24.915   8.333  49.412  1.00  0.00     0.013 C 
HETATM   21  C23 UNL     1      23.790   8.496  48.839  1.00  0.00     0.083 C 
HETATM   22  N5  UNL     1      22.520   8.156  48.248  1.00  0.00    -0.395 N 
HETATM   23  H24 UNL     1      23.178   7.562  47.712  1.00  0.00     0.159 HD
ENDROOT
BRANCH  12  24
HETATM   24  N2  UNL     1      25.241   2.147  50.681  1.00  0.00    -0.344 N 
HETATM   25  H15 UNL     1      24.391   1.630  50.406  1.00  0.00     0.167 HD
BRANCH  24  26
HETATM   26  C11 UNL     1      25.824   1.690  51.877  1.00  0.00     0.034 A 
HETATM   27  C12 UNL     1      25.458   2.268  53.123  1.00  0.00     0.029 A 
HETATM   28  C13 UNL     1      26.007   1.863  54.334  1.00  0.00     0.004 A 
HETATM   29  C14 UNL     1      26.951   0.869  54.366  1.00  0.00     0.019 A 
HETATM   30  C15 UNL     1      27.348   0.271  53.195  1.00  0.00     0.013 A 
HETATM   31 BR1  UNL     1      28.661  -1.138  53.188  1.00  0.00    -0.051 Br
HETATM   32  C16 UNL     1      26.767   0.709  52.025  1.00  0.00     0.048 A 
ENDBRANCH  24  26
ENDBRANCH  12  24
TORSDOF 2
ENDMDL
MODEL 9
REMARK VINA RESULT:      -8.4      4.695      7.466
REMARK  2 active torsions:
REMARK  status: ('A' for Active; 'I' for Inactive)
REMARK    1  A    between atoms: C10_12  and  N2_13 
REMARK    2  A    between atoms: N2_13  and  C11_14 
ROOT
HETATM    1  C1  UNL     1      22.858  10.973  45.237  1.00  0.00     0.032 C 
HETATM    2  C2  UNL     1      23.316  10.344  46.562  1.00  0.00     0.078 C 
HETATM    3  C3  UNL     1      22.156   9.683  47.216  1.00  0.00     0.055 C 
HETATM    4  C4  UNL     1      22.505   8.877  48.414  1.00  0.00     0.278 C 
HETATM    5  N1  UNL     1      23.159   7.611  48.134  1.00  0.00     0.119 N 
HETATM    6  C5  UNL     1      22.048   6.731  47.716  1.00  0.00     0.301 C 
HETATM    7  C6  UNL     1      21.621   6.159  49.032  1.00  0.00     0.201 C 
HETATM    8  O1  UNL     1      22.557   6.479  49.993  1.00  0.00    -0.355 OA
HETATM    9  C7  UNL     1      23.658   7.002  49.323  1.00  0.00     0.364 C 
HETATM   10  C8  UNL     1      24.793   6.088  49.211  1.00  0.00     0.075 A 
HETATM   11  C9  UNL     1      26.048   5.561  49.001  1.00  0.00     0.063 A 
HETATM   12  C10 UNL     1      26.568   4.334  49.092  1.00  0.00     0.116 A 
HETATM   13  N3  UNL     1      27.848   4.287  48.780  1.00  0.00    -0.249 NA
HETATM   14  C17 UNL     1      28.519   5.449  48.403  1.00  0.00     0.117 A 
HETATM   15  C18 UNL     1      27.413   6.153  48.554  1.00  0.00     0.094 A 
HETATM   16  C19 UNL     1      28.370   7.383  47.903  1.00  0.00    -0.003 C 
HETATM   17  N4  UNL     1      29.085   8.313  47.391  1.00  0.00    -0.100 N 
HETATM   18  C20 UNL     1      26.187   6.966  48.714  1.00  0.00     0.013 A 
HETATM   19  C21 UNL     1      26.137   8.115  48.336  1.00  0.00     0.020 C 
HETATM   20  C22 UNL     1      26.399   9.470  48.180  1.00  0.00     0.013 C 
HETATM   21  C23 UNL     1      25.521   9.730  47.296  1.00  0.00     0.083 C 
HETATM   22  N5  UNL     1      24.451   9.505  46.356  1.00  0.00    -0.395 N 
HETATM   23  H24 UNL     1      25.165   8.820  46.046  1.00  0.00     0.159 HD
ENDROOT
BRANCH  12  24
HETATM   24  N2  UNL     1      25.613   3.346  49.542  1.00  0.00    -0.344 N 
HETATM   25  H15 UNL     1      24.872   2.862  49.011  1.00  0.00     0.167 HD
BRANCH  24  26
HETATM   26  C11 UNL     1      25.692   2.958  50.891  1.00  0.00     0.034 A 
HETATM   27  C12 UNL     1      24.607   3.206  51.776  1.00  0.00     0.029 A 
HETATM   28  C13 UNL     1      24.633   2.854  53.120  1.00  0.00     0.004 A 
HETATM   29  C14 UNL     1      25.739   2.244  53.654  1.00  0.00     0.019 A 
HETATM   30  C15 UNL     1      26.822   1.978  52.851  1.00  0.00     0.013 A 
HETATM   31 BR1  UNL     1      28.394   1.113  53.549  1.00  0.00    -0.051 Br
HETATM   32  C16 UNL     1      26.739   2.345  51.525  1.00  0.00     0.048 A 
ENDBRANCH  24  26
ENDBRANCH  12  24
TORSDOF 2
ENDMDL
