MODEL 1
REMARK VINA RESULT:      -7.7      0.000      0.000
REMARK  5 active torsions:
REMARK  status: ('A' for Active; 'I' for Inactive)
REMARK    1  A    between atoms: O1_2  and  C2_3 
REMARK    2  A    between atoms: C7_10  and  N3_11 
REMARK    3  A    between atoms: N3_11  and  C8_12 
REMARK    4  A    between atoms: C11_15  and  O2_16 
REMARK    5  A    between atoms: S1_20  and  O3_21 
ROOT
HETATM    1  C2  UNL     1      22.718   1.187  52.780  1.00  0.00     0.124 A 
HETATM    2  C3  UNL     1      24.023   1.320  52.690  1.00  0.00     0.063 A 
HETATM    3  C4  UNL     1      24.686   2.062  51.620  1.00  0.00     0.042 A 
HETATM    4  C5  UNL     1      24.085   2.717  50.571  1.00  0.00     0.080 A 
HETATM    5  N1  UNL     1      24.854   3.363  49.655  1.00  0.00    -0.241 NA
HETATM    6  C6  UNL     1      26.195   3.404  49.710  1.00  0.00     0.236 A 
HETATM    7  N2  UNL     1      26.805   2.769  50.729  1.00  0.00    -0.224 NA
HETATM    8  C7  UNL     1      26.082   2.105  51.677  1.00  0.00     0.142 A 
HETATM    9  C14 UNL     1      22.648   2.781  50.349  1.00  0.00     0.102 A 
HETATM   10  S1  UNL     1      21.751   1.984  51.482  1.00  0.00    -0.005 SA
ENDROOT
BRANCH   8  11
HETATM   11  N3  UNL     1      26.808   1.465  52.714  1.00  0.00    -0.340 N 
HETATM   12  H6  UNL     1      26.865   2.206  53.470  1.00  0.00     0.167 HD
BRANCH  11  13
HETATM   13  C8  UNL     1      27.382   0.195  52.884  1.00  0.00     0.033 A 
HETATM   14  C9  UNL     1      28.648   0.090  53.428  1.00  0.00     0.032 A 
HETATM   15  C10 UNL     1      29.127  -1.199  53.555  1.00  0.00     0.039 A 
HETATM   16  C11 UNL     1      28.420  -2.325  53.178  1.00  0.00     0.065 A 
HETATM   17  C12 UNL     1      27.164  -2.151  52.644  1.00  0.00     0.039 A 
HETATM   18  C13 UNL     1      26.632  -0.909  52.491  1.00  0.00     0.032 A 
BRANCH  16  19
HETATM   19  O2  UNL     1      29.034  -3.576  53.366  1.00  0.00    -0.361 OA
HETATM   20  H9  UNL     1      29.139  -4.234  52.602  1.00  0.00     0.217 HD
ENDBRANCH  16  19
ENDBRANCH  11  13
ENDBRANCH   8  11
BRANCH   1  21
HETATM   21  O1  UNL     1      22.109   0.492  53.784  1.00  0.00    -0.348 OA
HETATM   22  C1  UNL     1      22.109  -0.921  53.852  1.00  0.00     0.211 C 
ENDBRANCH   1  21
BRANCH  10  23
HETATM   23  O3  UNL     1      20.051   2.032  51.512  1.00  0.00    -0.326 OA
HETATM   24  C15 UNL     1      19.567   0.805  51.042  1.00  0.00     0.220 C 
ENDBRANCH  10  23
TORSDOF 5
ENDMDL
MODEL 2
REMARK VINA RESULT:      -7.5      2.768      4.247
REMARK  5 active torsions:
REMARK  status: ('A' for Active; 'I' for Inactive)
REMARK    1  A    between atoms: O1_2  and  C2_3 
REMARK    2  A    between atoms: C7_10  and  N3_11 
REMARK    3  A    between atoms: N3_11  and  C8_12 
REMARK    4  A    between atoms: C11_15  and  O2_16 
REMARK    5  A    between atoms: S1_20  and  O3_21 
ROOT
HETATM    1  C2  UNL     1      22.036   1.113  51.303  1.00  0.00     0.124 A 
HETATM    2  C3  UNL     1      23.096   0.671  51.945  1.00  0.00     0.063 A 
HETATM    3  C4  UNL     1      23.028  -0.051  53.212  1.00  0.00     0.042 A 
HETATM    4  C5  UNL     1      21.894  -0.378  53.919  1.00  0.00     0.080 A 
HETATM    5  N1  UNL     1      22.008  -1.058  55.091  1.00  0.00    -0.241 NA
HETATM    6  C6  UNL     1      23.183  -1.440  55.615  1.00  0.00     0.236 A 
HETATM    7  N2  UNL     1      24.306  -1.130  54.939  1.00  0.00    -0.224 NA
HETATM    8  C7  UNL     1      24.251  -0.450  53.759  1.00  0.00     0.142 A 
HETATM    9  C14 UNL     1      20.537  -0.048  53.508  1.00  0.00     0.102 A 
HETATM   10  S1  UNL     1      20.444   0.777  52.081  1.00  0.00    -0.005 SA
ENDROOT
BRANCH   8  11
HETATM   11  N3  UNL     1      25.484  -0.166  53.116  1.00  0.00    -0.340 N 
HETATM   12  H6  UNL     1      25.379  -0.626  52.167  1.00  0.00     0.167 HD
BRANCH  11  13
HETATM   13  C8  UNL     1      26.653   0.523  53.475  1.00  0.00     0.033 A 
HETATM   14  C9  UNL     1      26.849   1.811  53.013  1.00  0.00     0.032 A 
HETATM   15  C10 UNL     1      28.027   2.406  53.418  1.00  0.00     0.039 A 
HETATM   16  C11 UNL     1      28.964   1.791  54.226  1.00  0.00     0.065 A 
HETATM   17  C12 UNL     1      28.707   0.508  54.652  1.00  0.00     0.039 A 
HETATM   18  C13 UNL     1      27.566  -0.137  54.290  1.00  0.00     0.032 A 
BRANCH  16  19
HETATM   19  O2  UNL     1      30.120   2.519  54.559  1.00  0.00    -0.361 OA
HETATM   20  H9  UNL     1      30.892   2.614  53.909  1.00  0.00     0.217 HD
ENDBRANCH  16  19
ENDBRANCH  11  13
ENDBRANCH   8  11
BRANCH   1  21
HETATM   21  O1  UNL     1      22.111   1.786  50.119  1.00  0.00    -0.348 OA
HETATM   22  C1  UNL     1      21.581   1.278  48.909  1.00  0.00     0.211 C 
ENDBRANCH   1  21
BRANCH  10  23
HETATM   23  O3  UNL     1      18.965   1.152  51.329  1.00  0.00    -0.326 OA
HETATM   24  C15 UNL     1      18.673   2.498  51.579  1.00  0.00     0.220 C 
ENDBRANCH  10  23
TORSDOF 5
ENDMDL
MODEL 3
REMARK VINA RESULT:      -7.2      3.318      6.951
REMARK  5 active torsions:
REMARK  status: ('A' for Active; 'I' for Inactive)
REMARK    1  A    between atoms: O1_2  and  C2_3 
REMARK    2  A    between atoms: C7_10  and  N3_11 
REMARK    3  A    between atoms: N3_11  and  C8_12 
REMARK    4  A    between atoms: C11_15  and  O2_16 
REMARK    5  A    between atoms: S1_20  and  O3_21 
ROOT
HETATM    1  C2  UNL     1      26.884   1.335  52.732  1.00  0.00     0.124 A 
HETATM    2  C3  UNL     1      25.727   1.611  52.169  1.00  0.00     0.063 A 
HETATM    3  C4  UNL     1      24.508   0.845  52.416  1.00  0.00     0.042 A 
HETATM    4  C5  UNL     1      24.368  -0.246  53.241  1.00  0.00     0.080 A 
HETATM    5  N1  UNL     1      23.154  -0.846  53.359  1.00  0.00    -0.241 NA
HETATM    6  C6  UNL     1      22.056  -0.433  52.705  1.00  0.00     0.236 A 
HETATM    7  N2  UNL     1      22.171   0.634  51.891  1.00  0.00    -0.224 NA
HETATM    8  C7  UNL     1      23.365   1.275  51.736  1.00  0.00     0.142 A 
HETATM    9  C14 UNL     1      25.443  -0.833  54.028  1.00  0.00     0.102 A 
HETATM   10  S1  UNL     1      26.899  -0.075  53.856  1.00  0.00    -0.005 SA
ENDROOT
BRANCH   8  11
HETATM   11  N3  UNL     1      23.392   2.389  50.858  1.00  0.00    -0.340 N 
HETATM   12  H6  UNL     1      23.216   1.958  49.906  1.00  0.00     0.167 HD
BRANCH  11  13
HETATM   13  C8  UNL     1      23.585   3.771  51.016  1.00  0.00     0.033 A 
HETATM   14  C9  UNL     1      23.132   4.391  52.165  1.00  0.00     0.032 A 
HETATM   15  C10 UNL     1      23.367   5.750  52.229  1.00  0.00     0.039 A 
HETATM   16  C11 UNL     1      24.005   6.471  51.237  1.00  0.00     0.065 A 
HETATM   17  C12 UNL     1      24.432   5.792  50.118  1.00  0.00     0.039 A 
HETATM   18  C13 UNL     1      24.232   4.453  49.991  1.00  0.00     0.032 A 
BRANCH  16  19
HETATM   19  O2  UNL     1      24.176   7.852  51.437  1.00  0.00    -0.361 OA
HETATM   20  H9  UNL     1      25.099   8.267  51.502  1.00  0.00     0.217 HD
ENDBRANCH  16  19
ENDBRANCH  11  13
ENDBRANCH   8  11
BRANCH   1  21
HETATM   21  O1  UNL     1      28.017   2.057  52.494  1.00  0.00    -0.348 OA
HETATM   22  C1  UNL     1      28.793   2.633  53.527  1.00  0.00     0.211 C 
ENDBRANCH   1  21
BRANCH  10  23
HETATM   23  O3  UNL     1      28.269  -0.492  54.775  1.00  0.00    -0.326 OA
HETATM   24  C15 UNL     1      29.275  -0.917  53.898  1.00  0.00     0.220 C 
ENDBRANCH  10  23
TORSDOF 5
ENDMDL
MODEL 4
REMARK VINA RESULT:      -7.2      3.149      7.400
REMARK  5 active torsions:
REMARK  status: ('A' for Active; 'I' for Inactive)
REMARK    1  A    between atoms: O1_2  and  C2_3 
REMARK    2  A    between atoms: C7_10  and  N3_11 
REMARK    3  A    between atoms: N3_11  and  C8_12 
REMARK    4  A    between atoms: C11_15  and  O2_16 
REMARK    5  A    between atoms: S1_20  and  O3_21 
ROOT
HETATM    1  C2  UNL     1      26.354   1.075  52.135  1.00  0.00     0.124 A 
HETATM    2  C3  UNL     1      25.105   0.694  52.297  1.00  0.00     0.063 A 
HETATM    3  C4  UNL     1      24.635  -0.053  53.461  1.00  0.00     0.042 A 
HETATM    4  C5  UNL     1      25.385  -0.469  54.536  1.00  0.00     0.080 A 
HETATM    5  N1  UNL     1      24.787  -1.161  55.542  1.00  0.00    -0.241 NA
HETATM    6  C6  UNL     1      23.482  -1.471  55.554  1.00  0.00     0.236 A 
HETATM    7  N2  UNL     1      22.729  -1.074  54.510  1.00  0.00    -0.224 NA
HETATM    8  C7  UNL     1      23.276  -0.377  53.474  1.00  0.00     0.142 A 
HETATM    9  C14 UNL     1      26.811  -0.224  54.696  1.00  0.00     0.102 A 
HETATM   10  S1  UNL     1      27.497   0.618  53.453  1.00  0.00    -0.005 SA
ENDROOT
BRANCH   8  11
HETATM   11  N3  UNL     1      22.407   0.000  52.417  1.00  0.00    -0.340 N 
HETATM   12  H6  UNL     1      22.704  -0.629  51.617  1.00  0.00     0.167 HD
BRANCH  11  13
HETATM   13  C8  UNL     1      21.368   0.934  52.274  1.00  0.00     0.033 A 
HETATM   14  C9  UNL     1      21.630   2.276  52.475  1.00  0.00     0.032 A 
HETATM   15  C10 UNL     1      20.546   3.115  52.312  1.00  0.00     0.039 A 
HETATM   16  C11 UNL     1      19.278   2.682  51.973  1.00  0.00     0.065 A 
HETATM   17  C12 UNL     1      19.086   1.332  51.787  1.00  0.00     0.039 A 
HETATM   18  C13 UNL     1      20.110   0.450  51.932  1.00  0.00     0.032 A 
BRANCH  16  19
HETATM   19  O2  UNL     1      18.269   3.651  51.841  1.00  0.00    -0.361 OA
HETATM   20  H9  UNL     1      18.372   4.580  52.234  1.00  0.00     0.217 HD
ENDBRANCH  16  19
ENDBRANCH  11  13
ENDBRANCH   8  11
BRANCH   1  21
HETATM   21  O1  UNL     1      26.782   1.774  51.044  1.00  0.00    -0.348 OA
HETATM   22  C1  UNL     1      26.299   3.063  50.718  1.00  0.00     0.211 C 
ENDBRANCH   1  21
BRANCH  10  23
HETATM   23  O3  UNL     1      29.116   1.141  53.477  1.00  0.00    -0.326 OA
HETATM   24  C15 UNL     1      29.941   0.017  53.598  1.00  0.00     0.220 C 
ENDBRANCH  10  23
TORSDOF 5
ENDMDL
MODEL 5
REMARK VINA RESULT:      -7.1      4.227      5.818
REMARK  5 active torsions:
REMARK  status: ('A' for Active; 'I' for Inactive)
REMARK    1  A    between atoms: O1_2  and  C2_3 
REMARK    2  A    between atoms: C7_10  and  N3_11 
REMARK    3  A    between atoms: N3_11  and  C8_12 
REMARK    4  A    between atoms: C11_15  and  O2_16 
REMARK    5  A    between atoms: S1_20  and  O3_21 
ROOT
HETATM    1  C2  UNL     1      27.803   5.157  48.603  1.00  0.00     0.124 A 
HETATM    2  C3  UNL     1      27.179   4.249  49.323  1.00  0.00     0.063 A 
HETATM    3  C4  UNL     1      25.871   4.467  49.937  1.00  0.00     0.042 A 
HETATM    4  C5  UNL     1      25.106   5.608  49.871  1.00  0.00     0.080 A 
HETATM    5  N1  UNL     1      23.904   5.645  50.505  1.00  0.00    -0.241 NA
HETATM    6  C6  UNL     1      23.404   4.616  51.207  1.00  0.00     0.236 A 
HETATM    7  N2  UNL     1      24.138   3.490  51.285  1.00  0.00    -0.224 NA
HETATM    8  C7  UNL     1      25.351   3.397  50.669  1.00  0.00     0.142 A 
HETATM    9  C14 UNL     1      25.483   6.819  49.157  1.00  0.00     0.102 A 
HETATM   10  S1  UNL     1      26.948   6.732  48.403  1.00  0.00    -0.005 SA
ENDROOT
BRANCH   8  11
HETATM   11  N3  UNL     1      26.054   2.172  50.805  1.00  0.00    -0.340 N 
HETATM   12  H6  UNL     1      25.997   1.746  49.836  1.00  0.00     0.167 HD
BRANCH  11  13
HETATM   13  C8  UNL     1      26.719   1.522  51.857  1.00  0.00     0.033 A 
HETATM   14  C9  UNL     1      27.524   2.258  52.706  1.00  0.00     0.032 A 
HETATM   15  C10 UNL     1      28.136   1.532  53.708  1.00  0.00     0.039 A 
HETATM   16  C11 UNL     1      27.979   0.170  53.881  1.00  0.00     0.065 A 
HETATM   17  C12 UNL     1      27.162  -0.503  53.001  1.00  0.00     0.039 A 
HETATM   18  C13 UNL     1      26.529   0.151  51.990  1.00  0.00     0.032 A 
BRANCH  16  19
HETATM   19  O2  UNL     1      28.664  -0.438  54.947  1.00  0.00    -0.361 OA
HETATM   20  H9  UNL     1      29.543  -0.923  54.803  1.00  0.00     0.217 HD
ENDBRANCH  16  19
ENDBRANCH  11  13
ENDBRANCH   8  11
BRANCH   1  21
HETATM   21  O1  UNL     1      29.025   4.942  48.034  1.00  0.00    -0.348 OA
HETATM   22  C1  UNL     1      30.145   5.769  48.282  1.00  0.00     0.211 C 
ENDBRANCH   1  21
BRANCH  10  23
HETATM   23  O3  UNL     1      27.541   7.968  47.395  1.00  0.00    -0.326 OA
HETATM   24  C15 UNL     1      26.508   8.377  46.544  1.00  0.00     0.220 C 
ENDBRANCH  10  23
TORSDOF 5
ENDMDL
MODEL 6
REMARK VINA RESULT:      -7.0      2.410      6.635
REMARK  5 active torsions:
REMARK  status: ('A' for Active; 'I' for Inactive)
REMARK    1  A    between atoms: O1_2  and  C2_3 
REMARK    2  A    between atoms: C7_10  and  N3_11 
REMARK    3  A    between atoms: N3_11  and  C8_12 
REMARK    4  A    between atoms: C11_15  and  O2_16 
REMARK    5  A    between atoms: S1_20  and  O3_21 
ROOT
HETATM    1  C2  UNL     1      25.789  -0.243  53.929  1.00  0.00     0.124 A 
HETATM    2  C3  UNL     1      24.963   0.308  53.066  1.00  0.00     0.063 A 
HETATM    3  C4  UNL     1      25.370   1.321  52.096  1.00  0.00     0.042 A 
HETATM    4  C5  UNL     1      26.629   1.850  51.929  1.00  0.00     0.080 A 
HETATM    5  N1  UNL     1      26.838   2.793  50.973  1.00  0.00    -0.241 NA
HETATM    6  C6  UNL     1      25.873   3.253  50.162  1.00  0.00     0.236 A 
HETATM    7  N2  UNL     1      24.632   2.749  50.308  1.00  0.00    -0.224 NA
HETATM    8  C7  UNL     1      24.365   1.801  51.251  1.00  0.00     0.142 A 
HETATM    9  C14 UNL     1      27.796   1.474  52.714  1.00  0.00     0.102 A 
HETATM   10  S1  UNL     1      27.498   0.327  53.863  1.00  0.00    -0.005 SA
ENDROOT
BRANCH   8  11
HETATM   11  N3  UNL     1      23.030   1.328  51.334  1.00  0.00    -0.340 N 
HETATM   12  H6  UNL     1      23.137   0.275  51.266  1.00  0.00     0.167 HD
BRANCH  11  13
HETATM   13  C8  UNL     1      21.771   1.933  51.472  1.00  0.00     0.033 A 
HETATM   14  C9  UNL     1      21.668   3.136  52.146  1.00  0.00     0.032 A 
HETATM   15  C10 UNL     1      20.390   3.651  52.230  1.00  0.00     0.039 A 
HETATM   16  C11 UNL     1      19.273   3.040  51.693  1.00  0.00     0.065 A 
HETATM   17  C12 UNL     1      19.446   1.844  51.034  1.00  0.00     0.039 A 
HETATM   18  C13 UNL     1      20.677   1.280  50.915  1.00  0.00     0.032 A 
BRANCH  16  19
HETATM   19  O2  UNL     1      18.033   3.681  51.856  1.00  0.00    -0.361 OA
HETATM   20  H9  UNL     1      17.587   3.748  52.764  1.00  0.00     0.217 HD
ENDBRANCH  16  19
ENDBRANCH  11  13
ENDBRANCH   8  11
BRANCH   1  21
HETATM   21  O1  UNL     1      25.398  -1.190  54.831  1.00  0.00    -0.348 OA
HETATM   22  C1  UNL     1      24.082  -1.264  55.347  1.00  0.00     0.211 C 
ENDBRANCH   1  21
BRANCH  10  23
HETATM   23  O3  UNL     1      28.729  -0.370  54.809  1.00  0.00    -0.326 OA
HETATM   24  C15 UNL     1      29.783  -0.734  53.963  1.00  0.00     0.220 C 
ENDBRANCH  10  23
TORSDOF 5
ENDMDL
MODEL 7
REMARK VINA RESULT:      -6.9      2.860      5.765
REMARK  5 active torsions:
REMARK  status: ('A' for Active; 'I' for Inactive)
REMARK    1  A    between atoms: O1_2  and  C2_3 
REMARK    2  A    between atoms: C7_10  and  N3_11 
REMARK    3  A    between atoms: N3_11  and  C8_12 
REMARK    4  A    between atoms: C11_15  and  O2_16 
REMARK    5  A    between atoms: S1_20  and  O3_21 
ROOT
HETATM    1  C2  UNL     1      22.990   0.703  52.152  1.00  0.00     0.124 A 
HETATM    2  C3  UNL     1      23.950   1.433  51.627  1.00  0.00     0.063 A 
HETATM    3  C4  UNL     1      25.311   1.475  52.156  1.00  0.00     0.042 A 
HETATM    4  C5  UNL     1      25.798   0.790  53.244  1.00  0.00     0.080 A 
HETATM    5  N1  UNL     1      27.099   0.944  53.605  1.00  0.00    -0.241 NA
HETATM    6  C6  UNL     1      27.961   1.739  52.952  1.00  0.00     0.236 A 
HETATM    7  N2  UNL     1      27.505   2.420  51.883  1.00  0.00    -0.224 NA
HETATM    8  C7  UNL     1      26.208   2.303  51.476  1.00  0.00     0.142 A 
HETATM    9  C14 UNL     1      25.014  -0.116  54.072  1.00  0.00     0.102 A 
HETATM   10  S1  UNL     1      23.440  -0.273  53.600  1.00  0.00    -0.005 SA
ENDROOT
BRANCH   8  11
HETATM   11  N3  UNL     1      25.816   3.057  50.340  1.00  0.00    -0.340 N 
HETATM   12  H6  UNL     1      25.158   2.404  49.826  1.00  0.00     0.167 HD
BRANCH  11  13
HETATM   13  C8  UNL     1      26.109   4.341  49.852  1.00  0.00     0.033 A 
HETATM   14  C9  UNL     1      25.333   5.412  50.254  1.00  0.00     0.032 A 
HETATM   15  C10 UNL     1      25.698   6.632  49.721  1.00  0.00     0.039 A 
HETATM   16  C11 UNL     1      26.756   6.808  48.849  1.00  0.00     0.065 A 
HETATM   17  C12 UNL     1      27.488   5.700  48.490  1.00  0.00     0.039 A 
HETATM   18  C13 UNL     1      27.182   4.468  48.977  1.00  0.00     0.032 A 
BRANCH  16  19
HETATM   19  O2  UNL     1      27.012   8.110  48.386  1.00  0.00    -0.361 OA
HETATM   20  H9  UNL     1      27.536   8.777  48.943  1.00  0.00     0.217 HD
ENDBRANCH  16  19
ENDBRANCH  11  13
ENDBRANCH   8  11
BRANCH   1  21
HETATM   21  O1  UNL     1      21.721   0.671  51.649  1.00  0.00    -0.348 OA
HETATM   22  C1  UNL     1      21.438   0.795  50.268  1.00  0.00     0.211 C 
ENDBRANCH   1  21
BRANCH  10  23
HETATM   23  O3  UNL     1      22.367  -1.376  54.325  1.00  0.00    -0.326 OA
HETATM   24  C15 UNL     1      21.207  -0.684  54.694  1.00  0.00     0.220 C 
ENDBRANCH  10  23
TORSDOF 5
ENDMDL
MODEL 8
REMARK VINA RESULT:      -6.8      3.011      7.232
REMARK  5 active torsions:
REMARK  status: ('A' for Active; 'I' for Inactive)
REMARK    1  A    between atoms: O1_2  and  C2_3 
REMARK    2  A    between atoms: C7_10  and  N3_11 
REMARK    3  A    between atoms: N3_11  and  C8_12 
REMARK    4  A    between atoms: C11_15  and  O2_16 
REMARK    5  A    between atoms: S1_20  and  O3_21 
ROOT
HETATM    1  C2  UNL     1      26.397   1.770  52.110  1.00  0.00     0.124 A 
HETATM    2  C3  UNL     1      25.086   1.816  52.210  1.00  0.00     0.063 A 
HETATM    3  C4  UNL     1      24.306   0.879  53.014  1.00  0.00     0.042 A 
HETATM    4  C5  UNL     1      24.787  -0.165  53.769  1.00  0.00     0.080 A 
HETATM    5  N1  UNL     1      23.919  -0.948  54.462  1.00  0.00    -0.241 NA
HETATM    6  C6  UNL     1      22.589  -0.763  54.457  1.00  0.00     0.236 A 
HETATM    7  N2  UNL     1      22.096   0.253  53.724  1.00  0.00    -0.224 NA
HETATM    8  C7  UNL     1      22.921   1.070  53.010  1.00  0.00     0.142 A 
HETATM    9  C14 UNL     1      26.195  -0.517  53.894  1.00  0.00     0.102 A 
HETATM   10  S1  UNL     1      27.215   0.457  53.037  1.00  0.00    -0.005 SA
ENDROOT
BRANCH   8  11
HETATM   11  N3  UNL     1      22.314   2.115  52.266  1.00  0.00    -0.340 N 
HETATM   12  H6  UNL     1      22.514   2.979  52.847  1.00  0.00     0.167 HD
BRANCH  11  13
HETATM   13  C8  UNL     1      21.596   2.187  51.062  1.00  0.00     0.033 A 
HETATM   14  C9  UNL     1      20.693   3.217  50.872  1.00  0.00     0.032 A 
HETATM   15  C10 UNL     1      20.036   3.202  49.658  1.00  0.00     0.039 A 
HETATM   16  C11 UNL     1      20.239   2.246  48.681  1.00  0.00     0.065 A 
HETATM   17  C12 UNL     1      21.153   1.249  48.934  1.00  0.00     0.039 A 
HETATM   18  C13 UNL     1      21.835   1.203  50.109  1.00  0.00     0.032 A 
BRANCH  16  19
HETATM   19  O2  UNL     1      19.498   2.358  47.492  1.00  0.00    -0.361 OA
HETATM   20  H9  UNL     1      19.952   2.490  46.595  1.00  0.00     0.217 HD
ENDBRANCH  16  19
ENDBRANCH  11  13
ENDBRANCH   8  11
BRANCH   1  21
HETATM   21  O1  UNL     1      27.116   2.652  51.356  1.00  0.00    -0.348 OA
HETATM   22  C1  UNL     1      26.554   3.383  50.283  1.00  0.00     0.211 C 
ENDBRANCH   1  21
BRANCH  10  23
HETATM   23  O3  UNL     1      28.909   0.330  53.134  1.00  0.00    -0.326 OA
HETATM   24  C15 UNL     1      29.224  -0.863  53.795  1.00  0.00     0.220 C 
ENDBRANCH  10  23
TORSDOF 5
ENDMDL
MODEL 9
REMARK VINA RESULT:      -6.6      2.843      3.909
REMARK  5 active torsions:
REMARK  status: ('A' for Active; 'I' for Inactive)
REMARK    1  A    between atoms: O1_2  and  C2_3 
REMARK    2  A    between atoms: C7_10  and  N3_11 
REMARK    3  A    between atoms: N3_11  and  C8_12 
REMARK    4  A    between atoms: C11_15  and  O2_16 
REMARK    5  A    between atoms: S1_20  and  O3_21 
ROOT
HETATM    1  C2  UNL     1      22.995   4.819  51.127  1.00  0.00     0.124 A 
HETATM    2  C3  UNL     1      24.019   4.006  50.978  1.00  0.00     0.063 A 
HETATM    3  C4  UNL     1      25.201   4.336  50.186  1.00  0.00     0.042 A 
HETATM    4  C5  UNL     1      25.435   5.499  49.492  1.00  0.00     0.080 A 
HETATM    5  N1  UNL     1      26.596   5.645  48.800  1.00  0.00    -0.241 NA
HETATM    6  C6  UNL     1      27.552   4.705  48.750  1.00  0.00     0.236 A 
HETATM    7  N2  UNL     1      27.344   3.557  49.423  1.00  0.00    -0.224 NA
HETATM    8  C7  UNL     1      26.198   3.357  50.134  1.00  0.00     0.142 A 
HETATM    9  C14 UNL     1      24.515   6.626  49.431  1.00  0.00     0.102 A 
HETATM   10  S1  UNL     1      23.119   6.408  50.283  1.00  0.00    -0.005 SA
ENDROOT
BRANCH   8  11
HETATM   11  N3  UNL     1      26.064   2.117  50.812  1.00  0.00    -0.340 N 
HETATM   12  H6  UNL     1      25.219   1.674  50.351  1.00  0.00     0.167 HD
BRANCH  11  13
HETATM   13  C8  UNL     1      26.764   1.472  51.844  1.00  0.00     0.033 A 
HETATM   14  C9  UNL     1      26.663   0.099  51.975  1.00  0.00     0.032 A 
HETATM   15  C10 UNL     1      27.386  -0.443  53.018  1.00  0.00     0.039 A 
HETATM   16  C11 UNL     1      28.164   0.298  53.887  1.00  0.00     0.065 A 
HETATM   17  C12 UNL     1      28.221   1.661  53.700  1.00  0.00     0.039 A 
HETATM   18  C13 UNL     1      27.533   2.260  52.693  1.00  0.00     0.032 A 
BRANCH  16  19
HETATM   19  O2  UNL     1      28.846  -0.390  54.906  1.00  0.00    -0.361 OA
HETATM   20  H9  UNL     1      28.778  -1.397  55.001  1.00  0.00     0.217 HD
ENDBRANCH  16  19
ENDBRANCH  11  13
ENDBRANCH   8  11
BRANCH   1  21
HETATM   21  O1  UNL     1      21.896   4.501  51.870  1.00  0.00    -0.348 OA
HETATM   22  C1  UNL     1      20.587   4.466  51.332  1.00  0.00     0.211 C 
ENDBRANCH   1  21
BRANCH  10  23
HETATM   23  O3  UNL     1      21.954   7.633  50.474  1.00  0.00    -0.326 OA
HETATM   24  C15 UNL     1      22.243   8.661  49.568  1.00  0.00     0.220 C 
ENDBRANCH  10  23
TORSDOF 5
ENDMDL
