MODEL 1
REMARK VINA RESULT:      -8.4      0.000      0.000
REMARK  1 active torsions:
REMARK  status: ('A' for Active; 'I' for Inactive)
REMARK    1  A    between atoms: C1_2  and  C2_3 
ROOT
HETATM    1  C2  UNL     1      27.782   0.736  53.448  1.00  0.00     0.021 C 
HETATM    2  C3  UNL     1      28.129   2.212  53.278  1.00  0.00     0.140 C 
HETATM    3  N1  UNL     1      27.265   2.915  52.427  1.00  0.00    -0.347 N 
HETATM    4  N2  UNL     1      27.011   2.478  51.167  1.00  0.00    -0.188 NA
HETATM    5  S1  UNL     1      25.497   3.045  50.432  1.00  0.00    -0.081 SA
HETATM    6  C4  UNL     1      25.665   4.664  50.130  1.00  0.00     0.169 C 
HETATM    7  N3  UNL     1      24.670   5.517  49.537  1.00  0.00    -0.247 NA
HETATM    8  C5  UNL     1      23.411   5.269  49.461  1.00  0.00     0.232 C 
HETATM    9  N4  UNL     1      22.494   4.269  49.822  1.00  0.00    -0.257 NA
HETATM   10  C6  UNL     1      22.749   3.133  50.313  1.00  0.00     0.107 C 
HETATM   11  C7  UNL     1      23.858   2.289  50.734  1.00  0.00     0.103 C 
HETATM   12  C8  UNL     1      23.589   1.977  52.225  1.00  0.00     0.056 C 
HETATM   13  C9  UNL     1      24.431   0.920  52.579  1.00  0.00    -0.067 C 
HETATM   14  C10 UNL     1      24.279  -0.146  53.659  1.00  0.00    -0.007 C 
HETATM   15  C11 UNL     1      25.697  -0.745  53.598  1.00  0.00     0.016 A 
HETATM   16  C12 UNL     1      26.490  -1.680  53.213  1.00  0.00    -0.014 A 
HETATM   17  C13 UNL     1      26.463  -0.700  51.840  1.00  0.00    -0.014 A 
HETATM   18  C14 UNL     1      25.619   0.219  52.345  1.00  0.00     0.021 A 
HETATM   19  C15 UNL     1      26.370   0.628  53.703  1.00  0.00     0.027 A 
HETATM   20  H6  UNL     1      27.037   3.893  52.646  1.00  0.00     0.174 HD
HETATM   21  H7  UNL     1      27.814   2.628  50.488  1.00  0.00     0.160 HD
ENDROOT
BRANCH   1  22
HETATM   22  C1  UNL     1      28.685   0.199  54.515  1.00  0.00     0.091 C 
HETATM   23 BR1  UNL     1      30.101  -0.905  53.745  1.00  0.00    -0.096 Br
ENDBRANCH   1  22
TORSDOF 1
ENDMDL
MODEL 2
REMARK VINA RESULT:      -8.3      2.830      5.777
REMARK  1 active torsions:
REMARK  status: ('A' for Active; 'I' for Inactive)
REMARK    1  A    between atoms: C1_2  and  C2_3 
ROOT
HETATM    1  C2  UNL     1      23.521   3.245  50.105  1.00  0.00     0.021 C 
HETATM    2  C3  UNL     1      24.994   3.226  49.706  1.00  0.00     0.140 C 
HETATM    3  N1  UNL     1      25.854   2.721  50.690  1.00  0.00    -0.347 N 
HETATM    4  N2  UNL     1      25.850   3.223  51.951  1.00  0.00    -0.188 NA
HETATM    5  S1  UNL     1      26.477   2.154  53.223  1.00  0.00    -0.081 SA
HETATM    6  C4  UNL     1      28.111   2.011  52.992  1.00  0.00     0.169 C 
HETATM    7  N3  UNL     1      29.009   1.234  53.802  1.00  0.00    -0.247 NA
HETATM    8  C5  UNL     1      28.676   0.279  54.597  1.00  0.00     0.232 C 
HETATM    9  N4  UNL     1      27.526  -0.397  55.033  1.00  0.00    -0.257 NA
HETATM   10  C6  UNL     1      26.322  -0.117  54.769  1.00  0.00     0.107 C 
HETATM   11  C7  UNL     1      25.502   0.836  54.035  1.00  0.00     0.103 C 
HETATM   12  C8  UNL     1      24.674  -0.017  53.045  1.00  0.00     0.056 C 
HETATM   13  C9  UNL     1      23.651   0.800  52.559  1.00  0.00    -0.067 C 
HETATM   14  C10 UNL     1      22.271   0.440  52.019  1.00  0.00    -0.007 C 
HETATM   15  C11 UNL     1      21.876   1.816  51.452  1.00  0.00     0.016 A 
HETATM   16  C12 UNL     1      21.213   2.912  51.561  1.00  0.00    -0.014 A 
HETATM   17  C13 UNL     1      22.594   3.284  52.456  1.00  0.00    -0.014 A 
HETATM   18  C14 UNL     1      23.196   2.092  52.280  1.00  0.00     0.021 A 
HETATM   19  C15 UNL     1      23.191   1.968  50.680  1.00  0.00     0.027 A 
HETATM   20  H6  UNL     1      26.670   2.167  50.402  1.00  0.00     0.174 HD
HETATM   21  H7  UNL     1      26.302   4.181  52.036  1.00  0.00     0.160 HD
ENDROOT
BRANCH   1  22
HETATM   22  C1  UNL     1      22.746   3.635  48.884  1.00  0.00     0.091 C 
HETATM   23 BR1  UNL     1      22.375   2.078  47.764  1.00  0.00    -0.096 Br
ENDBRANCH   1  22
TORSDOF 1
ENDMDL
MODEL 3
REMARK VINA RESULT:      -7.8      4.180      6.724
REMARK  1 active torsions:
REMARK  status: ('A' for Active; 'I' for Inactive)
REMARK    1  A    between atoms: C1_2  and  C2_3 
ROOT
HETATM    1  C2  UNL     1      20.100   0.203  52.101  1.00  0.00     0.021 C 
HETATM    2  C3  UNL     1      20.429  -0.469  53.431  1.00  0.00     0.140 C 
HETATM    3  N1  UNL     1      21.782  -0.412  53.790  1.00  0.00    -0.347 N 
HETATM    4  N2  UNL     1      22.752  -0.843  52.943  1.00  0.00    -0.188 NA
HETATM    5  S1  UNL     1      24.376  -0.176  53.207  1.00  0.00    -0.081 SA
HETATM    6  C4  UNL     1      24.951  -0.812  54.624  1.00  0.00     0.169 C 
HETATM    7  N3  UNL     1      26.234  -0.534  55.211  1.00  0.00    -0.247 NA
HETATM    8  C5  UNL     1      26.986   0.474  54.941  1.00  0.00     0.232 C 
HETATM    9  N4  UNL     1      26.995   1.612  54.119  1.00  0.00    -0.257 NA
HETATM   10  C6  UNL     1      26.158   1.921  53.225  1.00  0.00     0.107 C 
HETATM   11  C7  UNL     1      24.936   1.452  52.588  1.00  0.00     0.103 C 
HETATM   12  C8  UNL     1      23.902   2.583  52.807  1.00  0.00     0.056 C 
HETATM   13  C9  UNL     1      22.833   2.331  51.945  1.00  0.00    -0.067 C 
HETATM   14  C10 UNL     1      21.824   3.286  51.316  1.00  0.00    -0.007 C 
HETATM   15  C11 UNL     1      20.842   2.247  50.746  1.00  0.00     0.016 A 
HETATM   16  C12 UNL     1      20.385   1.586  49.742  1.00  0.00    -0.014 A 
HETATM   17  C13 UNL     1      21.696   0.623  50.187  1.00  0.00    -0.014 A 
HETATM   18  C14 UNL     1      22.090   1.396  51.217  1.00  0.00     0.021 A 
HETATM   19  C15 UNL     1      20.738   1.493  52.076  1.00  0.00     0.027 A 
HETATM   20  H6  UNL     1      22.031  -0.305  54.781  1.00  0.00     0.174 HD
HETATM   21  H7  UNL     1      22.811  -1.900  52.856  1.00  0.00     0.160 HD
ENDROOT
BRANCH   1  22
HETATM   22  C1  UNL     1      18.608   0.206  51.974  1.00  0.00     0.091 C 
HETATM   23 BR1  UNL     1      17.816  -1.262  52.991  1.00  0.00    -0.096 Br
ENDBRANCH   1  22
TORSDOF 1
ENDMDL
MODEL 4
REMARK VINA RESULT:      -7.6      3.568      6.060
REMARK  1 active torsions:
REMARK  status: ('A' for Active; 'I' for Inactive)
REMARK    1  A    between atoms: C1_2  and  C2_3 
ROOT
HETATM    1  C2  UNL     1      22.225   0.515  52.519  1.00  0.00     0.021 C 
HETATM    2  C3  UNL     1      22.759  -0.697  53.275  1.00  0.00     0.140 C 
HETATM    3  N1  UNL     1      24.155  -0.743  53.385  1.00  0.00    -0.347 N 
HETATM    4  N2  UNL     1      24.949  -0.650  52.288  1.00  0.00    -0.188 NA
HETATM    5  S1  UNL     1      26.615  -0.102  52.570  1.00  0.00    -0.081 SA
HETATM    6  C4  UNL     1      27.407  -1.310  53.378  1.00  0.00     0.169 C 
HETATM    7  N3  UNL     1      28.781  -1.277  53.803  1.00  0.00    -0.247 NA
HETATM    8  C5  UNL     1      29.505  -0.223  53.939  1.00  0.00     0.232 C 
HETATM    9  N4  UNL     1      29.405   1.169  53.789  1.00  0.00    -0.257 NA
HETATM   10  C6  UNL     1      28.435   1.824  53.313  1.00  0.00     0.107 C 
HETATM   11  C7  UNL     1      27.107   1.652  52.741  1.00  0.00     0.103 C 
HETATM   12  C8  UNL     1      26.163   2.471  53.653  1.00  0.00     0.056 C 
HETATM   13  C9  UNL     1      24.953   2.608  52.969  1.00  0.00    -0.067 C 
HETATM   14  C10 UNL     1      23.880   3.687  53.064  1.00  0.00    -0.007 C 
HETATM   15  C11 UNL     1      22.782   2.999  52.231  1.00  0.00     0.016 A 
HETATM   16  C12 UNL     1      22.138   2.884  51.125  1.00  0.00    -0.014 A 
HETATM   17  C13 UNL     1      23.476   1.904  50.818  1.00  0.00    -0.014 A 
HETATM   18  C14 UNL     1      24.067   2.102  52.012  1.00  0.00     0.021 A 
HETATM   19  C15 UNL     1      22.888   1.690  53.020  1.00  0.00     0.027 A 
HETATM   20  H6  UNL     1      24.575  -1.116  54.246  1.00  0.00     0.174 HD
HETATM   21  H7  UNL     1      24.961  -1.527  51.688  1.00  0.00     0.160 HD
ENDROOT
BRANCH   1  22
HETATM   22  C1  UNL     1      20.735   0.492  52.659  1.00  0.00     0.091 C 
HETATM   23 BR1  UNL     1      20.160  -1.008  53.771  1.00  0.00    -0.096 Br
ENDBRANCH   1  22
TORSDOF 1
ENDMDL
MODEL 5
REMARK VINA RESULT:      -7.4      4.207      5.661
REMARK  1 active torsions:
REMARK  status: ('A' for Active; 'I' for Inactive)
REMARK    1  A    between atoms: C1_2  and  C2_3 
ROOT
HETATM    1  C2  UNL     1      24.656   0.809  53.211  1.00  0.00     0.021 C 
HETATM    2  C3  UNL     1      24.158  -0.518  53.776  1.00  0.00     0.140 C 
HETATM    3  N1  UNL     1      22.780  -0.728  53.634  1.00  0.00    -0.347 N 
HETATM    4  N2  UNL     1      21.882   0.188  54.076  1.00  0.00    -0.188 NA
HETATM    5  S1  UNL     1      20.275   0.139  53.321  1.00  0.00    -0.081 SA
HETATM    6  C4  UNL     1      19.526  -1.247  53.832  1.00  0.00     0.169 C 
HETATM    7  N3  UNL     1      18.206  -1.676  53.458  1.00  0.00    -0.247 NA
HETATM    8  C5  UNL     1      17.539  -1.266  52.437  1.00  0.00     0.232 C 
HETATM    9  N4  UNL     1      17.674  -0.379  51.359  1.00  0.00    -0.257 NA
HETATM   10  C6  UNL     1      18.613   0.440  51.148  1.00  0.00     0.107 C 
HETATM   11  C7  UNL     1      19.868   0.914  51.714  1.00  0.00     0.103 C 
HETATM   12  C8  UNL     1      20.930   0.658  50.619  1.00  0.00     0.056 C 
HETATM   13  C9  UNL     1      22.068   1.385  50.976  1.00  0.00    -0.067 C 
HETATM   14  C10 UNL     1      23.184   1.963  50.113  1.00  0.00    -0.007 C 
HETATM   15  C11 UNL     1      24.164   2.360  51.232  1.00  0.00     0.016 A 
HETATM   16  C12 UNL     1      24.687   3.267  51.978  1.00  0.00    -0.014 A 
HETATM   17  C13 UNL     1      23.288   2.903  52.849  1.00  0.00    -0.014 A 
HETATM   18  C14 UNL     1      22.832   1.971  51.991  1.00  0.00     0.021 A 
HETATM   19  C15 UNL     1      24.092   0.982  51.898  1.00  0.00     0.027 A 
HETATM   20  H6  UNL     1      22.438  -1.679  53.449  1.00  0.00     0.174 HD
HETATM   21  H7  UNL     1      21.776   0.215  55.133  1.00  0.00     0.160 HD
ENDROOT
BRANCH   1  22
HETATM   22  C1  UNL     1      26.151   0.778  53.284  1.00  0.00     0.091 C 
HETATM   23 BR1  UNL     1      26.844  -0.955  52.707  1.00  0.00    -0.096 Br
ENDBRANCH   1  22
TORSDOF 1
ENDMDL
MODEL 6
REMARK VINA RESULT:      -7.3      3.979      6.840
REMARK  1 active torsions:
REMARK  status: ('A' for Active; 'I' for Inactive)
REMARK    1  A    between atoms: C1_2  and  C2_3 
ROOT
HETATM    1  C2  UNL     1      21.272   3.656  50.739  1.00  0.00     0.021 C 
HETATM    2  C3  UNL     1      20.464   3.330  51.991  1.00  0.00     0.140 C 
HETATM    3  N1  UNL     1      20.985   2.282  52.761  1.00  0.00    -0.347 N 
HETATM    4  N2  UNL     1      21.257   1.073  52.208  1.00  0.00    -0.188 NA
HETATM    5  S1  UNL     1      22.446   0.069  53.064  1.00  0.00    -0.081 SA
HETATM    6  C4  UNL     1      21.749  -0.431  54.481  1.00  0.00     0.169 C 
HETATM    7  N3  UNL     1      22.369  -1.265  55.474  1.00  0.00    -0.247 NA
HETATM    8  C5  UNL     1      23.631  -1.474  55.605  1.00  0.00     0.232 C 
HETATM    9  N4  UNL     1      24.844  -1.103  55.003  1.00  0.00    -0.257 NA
HETATM   10  C6  UNL     1      25.004  -0.429  53.947  1.00  0.00     0.107 C 
HETATM   11  C7  UNL     1      24.259   0.250  52.897  1.00  0.00     0.103 C 
HETATM   12  C8  UNL     1      24.738   1.721  52.944  1.00  0.00     0.056 C 
HETATM   13  C9  UNL     1      24.308   2.328  51.762  1.00  0.00    -0.067 C 
HETATM   14  C10 UNL     1      24.879   3.516  50.996  1.00  0.00    -0.007 C 
HETATM   15  C11 UNL     1      23.724   3.730  50.000  1.00  0.00     0.016 A 
HETATM   16  C12 UNL     1      23.239   3.589  48.818  1.00  0.00    -0.014 A 
HETATM   17  C13 UNL     1      22.838   2.102  49.506  1.00  0.00    -0.014 A 
HETATM   18  C14 UNL     1      23.387   2.356  50.709  1.00  0.00     0.021 A 
HETATM   19  C15 UNL     1      22.662   3.732  51.104  1.00  0.00     0.027 A 
HETATM   20  H6  UNL     1      20.909   2.330  53.785  1.00  0.00     0.174 HD
HETATM   21  H7  UNL     1      20.394   0.493  51.990  1.00  0.00     0.160 HD
ENDROOT
BRANCH   1  22
HETATM   22  C1  UNL     1      20.680   4.900  50.152  1.00  0.00     0.091 C 
HETATM   23 BR1  UNL     1      21.554   6.495  50.866  1.00  0.00    -0.096 Br
ENDBRANCH   1  22
TORSDOF 1
ENDMDL
MODEL 7
REMARK VINA RESULT:      -7.3      2.838      3.949
REMARK  1 active torsions:
REMARK  status: ('A' for Active; 'I' for Inactive)
REMARK    1  A    between atoms: C1_2  and  C2_3 
ROOT
HETATM    1  C2  UNL     1      23.596   0.823  53.029  1.00  0.00     0.021 C 
HETATM    2  C3  UNL     1      22.355   1.202  52.227  1.00  0.00     0.140 C 
HETATM    3  N1  UNL     1      22.495   2.365  51.458  1.00  0.00    -0.347 N 
HETATM    4  N2  UNL     1      22.908   3.531  52.017  1.00  0.00    -0.188 NA
HETATM    5  S1  UNL     1      23.632   4.717  50.912  1.00  0.00    -0.081 SA
HETATM    6  C4  UNL     1      22.423   5.295  49.939  1.00  0.00     0.169 C 
HETATM    7  N3  UNL     1      22.577   6.277  48.900  1.00  0.00    -0.247 NA
HETATM    8  C5  UNL     1      23.681   6.608  48.330  1.00  0.00     0.232 C 
HETATM    9  N4  UNL     1      25.047   6.286  48.378  1.00  0.00    -0.257 NA
HETATM   10  C6  UNL     1      25.630   5.525  49.200  1.00  0.00     0.107 C 
HETATM   11  C7  UNL     1      25.376   4.680  50.358  1.00  0.00     0.103 C 
HETATM   12  C8  UNL     1      25.861   3.270  49.946  1.00  0.00     0.056 C 
HETATM   13  C9  UNL     1      25.945   2.510  51.115  1.00  0.00    -0.067 C 
HETATM   14  C10 UNL     1      26.817   1.305  51.452  1.00  0.00    -0.007 C 
HETATM   15  C11 UNL     1      26.145   0.890  52.773  1.00  0.00     0.016 A 
HETATM   16  C12 UNL     1      26.146   0.867  54.058  1.00  0.00    -0.014 A 
HETATM   17  C13 UNL     1      25.449   2.376  53.768  1.00  0.00    -0.014 A 
HETATM   18  C14 UNL     1      25.503   2.295  52.425  1.00  0.00     0.021 A 
HETATM   19  C15 UNL     1      24.740   0.907  52.160  1.00  0.00     0.027 A 
HETATM   20  H6  UNL     1      22.033   2.415  50.541  1.00  0.00     0.174 HD
HETATM   21  H7  UNL     1      22.171   4.007  52.616  1.00  0.00     0.160 HD
ENDROOT
BRANCH   1  22
HETATM   22  C1  UNL     1      23.329  -0.521  53.633  1.00  0.00     0.091 C 
HETATM   23 BR1  UNL     1      21.619  -0.536  54.578  1.00  0.00    -0.096 Br
ENDBRANCH   1  22
TORSDOF 1
ENDMDL
MODEL 8
REMARK VINA RESULT:      -7.1      2.491      3.776
REMARK  1 active torsions:
REMARK  status: ('A' for Active; 'I' for Inactive)
REMARK    1  A    between atoms: C1_2  and  C2_3 
ROOT
HETATM    1  C2  UNL     1      25.025   0.194  53.427  1.00  0.00     0.021 C 
HETATM    2  C3  UNL     1      23.690  -0.482  53.128  1.00  0.00     0.140 C 
HETATM    3  N1  UNL     1      22.766   0.332  52.460  1.00  0.00    -0.347 N 
HETATM    4  N2  UNL     1      22.427   1.553  52.946  1.00  0.00    -0.188 NA
HETATM    5  S1  UNL     1      21.777   2.712  51.767  1.00  0.00    -0.081 SA
HETATM    6  C4  UNL     1      20.278   2.174  51.314  1.00  0.00     0.169 C 
HETATM    7  N3  UNL     1      19.402   2.819  50.373  1.00  0.00    -0.247 NA
HETATM    8  C5  UNL     1      19.748   3.693  49.495  1.00  0.00     0.232 C 
HETATM    9  N4  UNL     1      20.897   4.364  49.050  1.00  0.00    -0.257 NA
HETATM   10  C6  UNL     1      22.053   4.330  49.558  1.00  0.00     0.107 C 
HETATM   11  C7  UNL     1      22.806   3.739  50.656  1.00  0.00     0.103 C 
HETATM   12  C8  UNL     1      23.958   2.955  49.985  1.00  0.00     0.056 C 
HETATM   13  C9  UNL     1      24.883   2.652  50.986  1.00  0.00    -0.067 C 
HETATM   14  C10 UNL     1      26.385   2.401  50.902  1.00  0.00    -0.007 C 
HETATM   15  C11 UNL     1      26.615   1.878  52.332  1.00  0.00     0.016 A 
HETATM   16  C12 UNL     1      27.023   2.080  53.534  1.00  0.00    -0.014 A 
HETATM   17  C13 UNL     1      25.448   2.677  53.628  1.00  0.00    -0.014 A 
HETATM   18  C14 UNL     1      25.130   2.425  52.344  1.00  0.00     0.021 A 
HETATM   19  C15 UNL     1      25.473   0.861  52.234  1.00  0.00     0.027 A 
HETATM   20  H6  UNL     1      22.142  -0.092  51.761  1.00  0.00     0.174 HD
HETATM   21  H7  UNL     1      21.793   1.519  53.797  1.00  0.00     0.160 HD
ENDROOT
BRANCH   1  22
HETATM   22  C1  UNL     1      25.936  -0.865  53.967  1.00  0.00     0.091 C 
HETATM   23 BR1  UNL     1      26.853  -1.804  52.519  1.00  0.00    -0.096 Br
ENDBRANCH   1  22
TORSDOF 1
ENDMDL
MODEL 9
REMARK VINA RESULT:      -7.1      3.841      6.782
REMARK  1 active torsions:
REMARK  status: ('A' for Active; 'I' for Inactive)
REMARK    1  A    between atoms: C1_2  and  C2_3 
ROOT
HETATM    1  C2  UNL     1      20.406   1.937  51.522  1.00  0.00     0.021 C 
HETATM    2  C3  UNL     1      20.469   0.854  52.595  1.00  0.00     0.140 C 
HETATM    3  N1  UNL     1      21.758   0.590  53.076  1.00  0.00    -0.347 N 
HETATM    4  N2  UNL     1      22.775   0.289  52.228  1.00  0.00    -0.188 NA
HETATM    5  S1  UNL     1      24.417   0.584  52.838  1.00  0.00    -0.081 SA
HETATM    6  C4  UNL     1      24.715  -0.528  54.028  1.00  0.00     0.169 C 
HETATM    7  N3  UNL     1      25.930  -0.642  54.787  1.00  0.00    -0.247 NA
HETATM    8  C5  UNL     1      26.827   0.271  54.920  1.00  0.00     0.232 C 
HETATM    9  N4  UNL     1      27.082   1.587  54.504  1.00  0.00    -0.257 NA
HETATM   10  C6  UNL     1      26.417   2.276  53.681  1.00  0.00     0.107 C 
HETATM   11  C7  UNL     1      25.245   2.216  52.819  1.00  0.00     0.103 C 
HETATM   12  C8  UNL     1      24.333   3.375  53.289  1.00  0.00     0.056 C 
HETATM   13  C9  UNL     1      23.368   3.563  52.297  1.00  0.00    -0.067 C 
HETATM   14  C10 UNL     1      22.575   4.807  51.913  1.00  0.00    -0.007 C 
HETATM   15  C11 UNL     1      21.562   4.152  50.956  1.00  0.00     0.016 A 
HETATM   16  C12 UNL     1      21.169   3.903  49.758  1.00  0.00    -0.014 A 
HETATM   17  C13 UNL     1      22.284   2.659  49.993  1.00  0.00    -0.014 A 
HETATM   18  C14 UNL     1      22.625   3.016  51.247  1.00  0.00     0.021 A 
HETATM   19  C15 UNL     1      21.190   3.060  51.964  1.00  0.00     0.027 A 
HETATM   20  H6  UNL     1      21.881   0.355  54.069  1.00  0.00     0.174 HD
HETATM   21  H7  UNL     1      22.719  -0.689  51.818  1.00  0.00     0.160 HD
ENDROOT
BRANCH   1  22
HETATM   22  C1  UNL     1      18.956   2.210  51.266  1.00  0.00     0.091 C 
HETATM   23 BR1  UNL     1      17.952   0.544  51.080  1.00  0.00    -0.096 Br
ENDBRANCH   1  22
TORSDOF 1
ENDMDL
