MODEL 1
REMARK VINA RESULT:      -8.7      0.000      0.000
REMARK  7 active torsions:
REMARK  status: ('A' for Active; 'I' for Inactive)
REMARK    1  A    between atoms: C2_2  and  O1_3 
REMARK    2  A    between atoms: O1_3  and  C3_4 
REMARK    3  A    between atoms: C3_4  and  O2_5 
REMARK    4  A    between atoms: O2_5  and  C4_6 
REMARK    5  A    between atoms: C4_6  and  C5_7 
REMARK    6  A    between atoms: C9_13  and  N3_14 
REMARK    7  A    between atoms: N3_14  and  C10_15 
ROOT
HETATM    1  C10 UNL     1      22.922   3.829  49.050  1.00  0.00     0.034 A 
HETATM    2  C11 UNL     1      22.656   2.637  48.446  1.00  0.00     0.032 A 
HETATM    3  C12 UNL     1      22.232   2.549  47.155  1.00  0.00     0.046 A 
HETATM    4  C13 UNL     1      22.045   3.682  46.384  1.00  0.00     0.137 A 
HETATM    5  F1  UNL     1      21.622   3.600  45.094  1.00  0.00    -0.204 F 
HETATM    6  C14 UNL     1      22.312   4.910  46.985  1.00  0.00     0.085 A 
HETATM    7  C15 UNL     1      22.114   6.080  46.169  1.00  0.00     0.102 C 
HETATM    8  N4  UNL     1      21.946   7.011  45.501  1.00  0.00    -0.191 NA
HETATM    9  C16 UNL     1      22.742   4.970  48.296  1.00  0.00     0.055 A 
ENDROOT
BRANCH   1  10
HETATM   10  N3  UNL     1      23.365   3.896  50.401  1.00  0.00    -0.352 N 
HETATM   11  H12 UNL     1      22.908   4.601  51.046  1.00  0.00     0.166 HD
BRANCH  10  12
HETATM   12  C9  UNL     1      24.390   3.026  50.830  1.00  0.00     0.094 A 
HETATM   13  C8  UNL     1      25.794   3.172  50.412  1.00  0.00     0.170 A 
HETATM   14  N1  UNL     1      26.829   2.285  50.850  1.00  0.00    -0.239 NA
HETATM   15  N2  UNL     1      26.084   4.150  49.612  1.00  0.00    -0.280 NA
HETATM   16  C7  UNL     1      26.493   1.330  51.643  1.00  0.00     0.131 A 
HETATM   17  C6  UNL     1      25.116   1.152  52.080  1.00  0.00     0.002 A 
HETATM   18  C5  UNL     1      24.960   0.127  52.885  1.00  0.00    -0.037 A 
HETATM   19  C17 UNL     1      24.050   2.041  51.645  1.00  0.00     0.042 A 
HETATM   20  C20 UNL     1      23.594  -0.168  53.408  1.00  0.00     0.104 A 
HETATM   21  C19 UNL     1      22.574   0.772  52.926  1.00  0.00     0.084 A 
HETATM   22  C18 UNL     1      22.706   1.807  52.118  1.00  0.00     0.111 A 
HETATM   23  O3  UNL     1      21.283   0.506  53.412  1.00  0.00    -0.350 OA
HETATM   24  O4  UNL     1      21.687   2.631  51.724  1.00  0.00    -0.345 OA
HETATM   25  C22 UNL     1      20.468   2.589  52.438  1.00  0.00     0.202 C 
HETATM   26  C21 UNL     1      20.159   1.167  52.841  1.00  0.00     0.202 C 
HETATM   27  H11 UNL     1      27.035   4.332  49.265  1.00  0.00     0.188 HD
BRANCH  18  28
HETATM   28  C4  UNL     1      25.854  -0.880  53.448  1.00  0.00     0.206 C 
BRANCH  28  29
HETATM   29  O2  UNL     1      25.927  -0.828  54.841  1.00  0.00    -0.363 OA
BRANCH  29  30
HETATM   30  C3  UNL     1      26.815   0.236  55.116  1.00  0.00     0.337 C 
BRANCH  30  31
HETATM   31  O1  UNL     1      28.108  -0.273  55.120  1.00  0.00    -0.367 OA
BRANCH  31  32
HETATM   32  C2  UNL     1      29.030   0.526  54.476  1.00  0.00     0.166 C 
HETATM   33  C1  UNL     1      29.894  -0.237  53.501  1.00  0.00     0.033 C 
ENDBRANCH  31  32
ENDBRANCH  30  31
ENDBRANCH  29  30
ENDBRANCH  28  29
ENDBRANCH  18  28
ENDBRANCH  10  12
ENDBRANCH   1  10
TORSDOF 7
ENDMDL
MODEL 2
REMARK VINA RESULT:      -8.5      3.293      7.341
REMARK  7 active torsions:
REMARK  status: ('A' for Active; 'I' for Inactive)
REMARK    1  A    between atoms: C2_2  and  O1_3 
REMARK    2  A    between atoms: O1_3  and  C3_4 
REMARK    3  A    between atoms: C3_4  and  O2_5 
REMARK    4  A    between atoms: O2_5  and  C4_6 
REMARK    5  A    between atoms: C4_6  and  C5_7 
REMARK    6  A    between atoms: C9_13  and  N3_14 
REMARK    7  A    between atoms: N3_14  and  C10_15 
ROOT
HETATM    1  C10 UNL     1      26.505   1.419  53.306  1.00  0.00     0.034 A 
HETATM    2  C11 UNL     1      27.619   2.147  53.594  1.00  0.00     0.032 A 
HETATM    3  C12 UNL     1      28.857   1.585  53.689  1.00  0.00     0.046 A 
HETATM    4  C13 UNL     1      29.044   0.229  53.497  1.00  0.00     0.137 A 
HETATM    5  F1  UNL     1      30.277  -0.338  53.589  1.00  0.00    -0.204 F 
HETATM    6  C14 UNL     1      27.915  -0.532  53.202  1.00  0.00     0.085 A 
HETATM    7  C15 UNL     1      28.126  -1.943  53.004  1.00  0.00     0.102 C 
HETATM    8  N4  UNL     1      28.312  -3.075  52.851  1.00  0.00    -0.191 NA
HETATM    9  C16 UNL     1      26.672   0.064  53.111  1.00  0.00     0.055 A 
ENDROOT
BRANCH   1  10
HETATM   10  N3  UNL     1      25.222   2.028  53.212  1.00  0.00    -0.352 N 
HETATM   11  H12 UNL     1      24.741   2.326  54.107  1.00  0.00     0.166 HD
BRANCH  10  12
HETATM   12  C9  UNL     1      24.643   2.212  51.939  1.00  0.00     0.094 A 
HETATM   13  C8  UNL     1      25.239   3.070  50.901  1.00  0.00     0.170 A 
HETATM   14  N1  UNL     1      24.646   3.252  49.611  1.00  0.00    -0.239 NA
HETATM   15  N2  UNL     1      26.348   3.676  51.189  1.00  0.00    -0.280 NA
HETATM   16  C7  UNL     1      23.546   2.629  49.373  1.00  0.00     0.131 A 
HETATM   17  C6  UNL     1      22.925   1.771  50.371  1.00  0.00     0.002 A 
HETATM   18  C5  UNL     1      21.810   1.218  49.953  1.00  0.00    -0.037 A 
HETATM   19  C17 UNL     1      23.511   1.573  51.688  1.00  0.00     0.042 A 
HETATM   20  C20 UNL     1      21.071   0.314  50.880  1.00  0.00     0.104 A 
HETATM   21  C19 UNL     1      21.724   0.164  52.187  1.00  0.00     0.084 A 
HETATM   22  C18 UNL     1      22.842   0.708  52.630  1.00  0.00     0.111 A 
HETATM   23  O3  UNL     1      21.038  -0.686  53.071  1.00  0.00    -0.350 OA
HETATM   24  O4  UNL     1      23.375   0.506  53.874  1.00  0.00    -0.345 OA
HETATM   25  C22 UNL     1      22.895  -0.575  54.649  1.00  0.00     0.202 C 
HETATM   26  C21 UNL     1      21.407  -0.731  54.445  1.00  0.00     0.202 C 
HETATM   27  H11 UNL     1      26.839   4.296  50.531  1.00  0.00     0.188 HD
BRANCH  18  28
HETATM   28  C4  UNL     1      21.047   1.264  48.710  1.00  0.00     0.206 C 
BRANCH  28  29
HETATM   29  O2  UNL     1      19.806   1.886  48.855  1.00  0.00    -0.363 OA
BRANCH  29  30
HETATM   30  C3  UNL     1      19.975   3.166  48.279  1.00  0.00     0.337 C 
BRANCH  30  31
HETATM   31  O1  UNL     1      19.528   4.113  49.192  1.00  0.00    -0.367 OA
BRANCH  31  32
HETATM   32  C2  UNL     1      20.537   4.748  49.885  1.00  0.00     0.166 C 
HETATM   33  C1  UNL     1      20.548   4.408  51.356  1.00  0.00     0.033 C 
ENDBRANCH  31  32
ENDBRANCH  30  31
ENDBRANCH  29  30
ENDBRANCH  28  29
ENDBRANCH  18  28
ENDBRANCH  10  12
ENDBRANCH   1  10
TORSDOF 7
ENDMDL
MODEL 3
REMARK VINA RESULT:      -7.8      2.157      2.512
REMARK  7 active torsions:
REMARK  status: ('A' for Active; 'I' for Inactive)
REMARK    1  A    between atoms: C2_2  and  O1_3 
REMARK    2  A    between atoms: O1_3  and  C3_4 
REMARK    3  A    between atoms: C3_4  and  O2_5 
REMARK    4  A    between atoms: O2_5  and  C4_6 
REMARK    5  A    between atoms: C4_6  and  C5_7 
REMARK    6  A    between atoms: C9_13  and  N3_14 
REMARK    7  A    between atoms: N3_14  and  C10_15 
ROOT
HETATM    1  C10 UNL     1      21.953   3.056  50.732  1.00  0.00     0.034 A 
HETATM    2  C11 UNL     1      22.302   2.363  49.613  1.00  0.00     0.032 A 
HETATM    3  C12 UNL     1      21.471   2.236  48.540  1.00  0.00     0.046 A 
HETATM    4  C13 UNL     1      20.214   2.813  48.537  1.00  0.00     0.137 A 
HETATM    5  F1  UNL     1      19.381   2.691  47.470  1.00  0.00    -0.204 F 
HETATM    6  C14 UNL     1      19.840   3.527  49.674  1.00  0.00     0.085 A 
HETATM    7  C15 UNL     1      18.529   4.121  49.655  1.00  0.00     0.102 C 
HETATM    8  N4  UNL     1      17.471   4.590  49.625  1.00  0.00    -0.191 NA
HETATM    9  C16 UNL     1      20.703   3.639  50.747  1.00  0.00     0.055 A 
ENDROOT
BRANCH   1  10
HETATM   10  N3  UNL     1      22.838   3.175  51.840  1.00  0.00    -0.352 N 
HETATM   11  H12 UNL     1      22.513   3.719  52.688  1.00  0.00     0.166 HD
BRANCH  10  12
HETATM   12  C9  UNL     1      24.109   2.566  51.769  1.00  0.00     0.094 A 
HETATM   13  C8  UNL     1      25.267   3.196  51.113  1.00  0.00     0.170 A 
HETATM   14  N1  UNL     1      26.554   2.572  51.045  1.00  0.00    -0.239 NA
HETATM   15  N2  UNL     1      25.092   4.364  50.581  1.00  0.00    -0.280 NA
HETATM   16  C7  UNL     1      26.678   1.413  51.587  1.00  0.00     0.131 A 
HETATM   17  C6  UNL     1      25.558   0.756  52.246  1.00  0.00     0.002 A 
HETATM   18  C5  UNL     1      25.870  -0.419  52.742  1.00  0.00    -0.037 A 
HETATM   19  C17 UNL     1      24.243   1.372  52.326  1.00  0.00     0.042 A 
HETATM   20  C20 UNL     1      24.812  -1.200  53.445  1.00  0.00     0.104 A 
HETATM   21  C19 UNL     1      23.515  -0.513  53.484  1.00  0.00     0.084 A 
HETATM   22  C18 UNL     1      23.177   0.665  52.995  1.00  0.00     0.111 A 
HETATM   23  O3  UNL     1      22.508  -1.238  54.145  1.00  0.00    -0.350 OA
HETATM   24  O4  UNL     1      21.932   1.225  53.083  1.00  0.00    -0.345 OA
HETATM   25  C22 UNL     1      21.009   0.681  54.005  1.00  0.00     0.202 C 
HETATM   26  C21 UNL     1      21.151  -0.822  54.046  1.00  0.00     0.202 C 
HETATM   27  H11 UNL     1      25.839   4.883  50.100  1.00  0.00     0.188 HD
BRANCH  18  28
HETATM   28  C4  UNL     1      27.087  -1.223  52.786  1.00  0.00     0.206 C 
BRANCH  28  29
HETATM   29  O2  UNL     1      27.880  -0.952  53.902  1.00  0.00    -0.363 OA
BRANCH  29  30
HETATM   30  C3  UNL     1      29.185  -0.787  53.386  1.00  0.00     0.337 C 
BRANCH  30  31
HETATM   31  O1  UNL     1      29.826   0.190  54.138  1.00  0.00    -0.367 OA
BRANCH  31  32
HETATM   32  C2  UNL     1      28.984   1.164  54.632  1.00  0.00     0.166 C 
HETATM   33  C1  UNL     1      28.984   2.424  53.800  1.00  0.00     0.033 C 
ENDBRANCH  31  32
ENDBRANCH  30  31
ENDBRANCH  29  30
ENDBRANCH  28  29
ENDBRANCH  18  28
ENDBRANCH  10  12
ENDBRANCH   1  10
TORSDOF 7
ENDMDL
MODEL 4
REMARK VINA RESULT:      -7.8      3.250      7.534
REMARK  7 active torsions:
REMARK  status: ('A' for Active; 'I' for Inactive)
REMARK    1  A    between atoms: C2_2  and  O1_3 
REMARK    2  A    between atoms: O1_3  and  C3_4 
REMARK    3  A    between atoms: C3_4  and  O2_5 
REMARK    4  A    between atoms: O2_5  and  C4_6 
REMARK    5  A    between atoms: C4_6  and  C5_7 
REMARK    6  A    between atoms: C9_13  and  N3_14 
REMARK    7  A    between atoms: N3_14  and  C10_15 
ROOT
HETATM    1  C10 UNL     1      25.754   1.028  52.360  1.00  0.00     0.034 A 
HETATM    2  C11 UNL     1      25.905   1.791  53.478  1.00  0.00     0.032 A 
HETATM    3  C12 UNL     1      26.777   1.467  54.474  1.00  0.00     0.046 A 
HETATM    4  C13 UNL     1      27.560   0.330  54.397  1.00  0.00     0.137 A 
HETATM    5  F1  UNL     1      28.432   0.001  55.387  1.00  0.00    -0.204 F 
HETATM    6  C14 UNL     1      27.418  -0.464  53.260  1.00  0.00     0.085 A 
HETATM    7  C15 UNL     1      28.240  -1.644  53.195  1.00  0.00     0.102 C 
HETATM    8  N4  UNL     1      28.905  -2.591  53.160  1.00  0.00    -0.191 NA
HETATM    9  C16 UNL     1      26.526  -0.110  52.266  1.00  0.00     0.055 A 
ENDROOT
BRANCH   1  10
HETATM   10  N3  UNL     1      24.836   1.388  51.333  1.00  0.00    -0.352 N 
HETATM   11  H12 UNL     1      24.317   0.615  50.830  1.00  0.00     0.166 HD
BRANCH  10  12
HETATM   12  C9  UNL     1      24.652   2.753  51.026  1.00  0.00     0.094 A 
HETATM   13  C8  UNL     1      25.705   3.591  50.429  1.00  0.00     0.170 A 
HETATM   14  N1  UNL     1      25.512   4.975  50.120  1.00  0.00    -0.239 NA
HETATM   15  N2  UNL     1      26.848   3.032  50.180  1.00  0.00    -0.280 NA
HETATM   16  C7  UNL     1      24.361   5.485  50.385  1.00  0.00     0.131 A 
HETATM   17  C6  UNL     1      23.293   4.690  50.975  1.00  0.00     0.002 A 
HETATM   18  C5  UNL     1      22.192   5.376  51.175  1.00  0.00    -0.037 A 
HETATM   19  C17 UNL     1      23.470   3.283  51.297  1.00  0.00     0.042 A 
HETATM   20  C20 UNL     1      21.018   4.679  51.775  1.00  0.00     0.104 A 
HETATM   21  C19 UNL     1      21.273   3.264  52.071  1.00  0.00     0.084 A 
HETATM   22  C18 UNL     1      22.369   2.554  51.880  1.00  0.00     0.111 A 
HETATM   23  O3  UNL     1      20.174   2.595  52.637  1.00  0.00    -0.350 OA
HETATM   24  O4  UNL     1      22.511   1.229  52.190  1.00  0.00    -0.345 OA
HETATM   25  C22 UNL     1      21.349   0.466  52.448  1.00  0.00     0.202 C 
HETATM   26  C21 UNL     1      20.345   1.301  53.205  1.00  0.00     0.202 C 
HETATM   27  H11 UNL     1      27.643   3.535  49.765  1.00  0.00     0.188 HD
BRANCH  18  28
HETATM   28  C4  UNL     1      21.787   6.758  50.939  1.00  0.00     0.206 C 
BRANCH  28  29
HETATM   29  O2  UNL     1      20.812   6.879  49.947  1.00  0.00    -0.363 OA
BRANCH  29  30
HETATM   30  C3  UNL     1      21.531   7.201  48.773  1.00  0.00     0.337 C 
BRANCH  30  31
HETATM   31  O1  UNL     1      21.121   6.335  47.766  1.00  0.00    -0.367 OA
BRANCH  31  32
HETATM   32  C2  UNL     1      22.152   5.642  47.166  1.00  0.00     0.166 C 
HETATM   33  C1  UNL     1      22.193   4.186  47.560  1.00  0.00     0.033 C 
ENDBRANCH  31  32
ENDBRANCH  30  31
ENDBRANCH  29  30
ENDBRANCH  28  29
ENDBRANCH  18  28
ENDBRANCH  10  12
ENDBRANCH   1  10
TORSDOF 7
ENDMDL
MODEL 5
REMARK VINA RESULT:      -7.8      3.083      7.431
REMARK  7 active torsions:
REMARK  status: ('A' for Active; 'I' for Inactive)
REMARK    1  A    between atoms: C2_2  and  O1_3 
REMARK    2  A    between atoms: O1_3  and  C3_4 
REMARK    3  A    between atoms: C3_4  and  O2_5 
REMARK    4  A    between atoms: O2_5  and  C4_6 
REMARK    5  A    between atoms: C4_6  and  C5_7 
REMARK    6  A    between atoms: C9_13  and  N3_14 
REMARK    7  A    between atoms: N3_14  and  C10_15 
ROOT
HETATM    1  C10 UNL     1      25.849   1.440  52.981  1.00  0.00     0.034 A 
HETATM    2  C11 UNL     1      26.044   0.202  52.448  1.00  0.00     0.032 A 
HETATM    3  C12 UNL     1      27.217  -0.478  52.586  1.00  0.00     0.046 A 
HETATM    4  C13 UNL     1      28.282   0.065  53.280  1.00  0.00     0.137 A 
HETATM    5  F1  UNL     1      29.454  -0.609  53.421  1.00  0.00    -0.204 F 
HETATM    6  C14 UNL     1      28.101   1.332  53.832  1.00  0.00     0.085 A 
HETATM    7  C15 UNL     1      29.219   1.883  54.552  1.00  0.00     0.102 C 
HETATM    8  N4  UNL     1      30.128   2.314  55.125  1.00  0.00    -0.191 NA
HETATM    9  C16 UNL     1      26.901   1.998  53.677  1.00  0.00     0.055 A 
ENDROOT
BRANCH   1  10
HETATM   10  N3  UNL     1      24.615   2.131  52.824  1.00  0.00    -0.352 N 
HETATM   11  H12 UNL     1      24.066   2.383  53.694  1.00  0.00     0.166 HD
BRANCH  10  12
HETATM   12  C9  UNL     1      24.171   2.454  51.524  1.00  0.00     0.094 A 
HETATM   13  C8  UNL     1      24.948   3.289  50.593  1.00  0.00     0.170 A 
HETATM   14  N1  UNL     1      24.491   3.612  49.276  1.00  0.00    -0.239 NA
HETATM   15  N2  UNL     1      26.091   3.740  51.004  1.00  0.00    -0.280 NA
HETATM   16  C7  UNL     1      23.350   3.141  48.913  1.00  0.00     0.131 A 
HETATM   17  C6  UNL     1      22.551   2.311  49.803  1.00  0.00     0.002 A 
HETATM   18  C5  UNL     1      21.419   1.921  49.266  1.00  0.00    -0.037 A 
HETATM   19  C17 UNL     1      22.997   1.972  51.146  1.00  0.00     0.042 A 
HETATM   20  C20 UNL     1      20.504   1.064  50.073  1.00  0.00     0.104 A 
HETATM   21  C19 UNL     1      21.023   0.765  51.413  1.00  0.00     0.084 A 
HETATM   22  C18 UNL     1      22.155   1.144  51.976  1.00  0.00     0.111 A 
HETATM   23  O3  UNL     1      20.170  -0.044  52.185  1.00  0.00    -0.350 OA
HETATM   24  O4  UNL     1      22.554   0.811  53.242  1.00  0.00    -0.345 OA
HETATM   25  C22 UNL     1      21.888  -0.245  53.905  1.00  0.00     0.202 C 
HETATM   26  C21 UNL     1      20.415  -0.208  53.577  1.00  0.00     0.202 C 
HETATM   27  H11 UNL     1      26.705   4.331  50.427  1.00  0.00     0.188 HD
BRANCH  18  28
HETATM   28  C4  UNL     1      20.774   2.128  47.973  1.00  0.00     0.206 C 
BRANCH  28  29
HETATM   29  O2  UNL     1      19.879   3.199  47.975  1.00  0.00    -0.363 OA
BRANCH  29  30
HETATM   30  C3  UNL     1      19.878   3.670  46.642  1.00  0.00     0.337 C 
BRANCH  30  31
HETATM   31  O1  UNL     1      21.103   4.281  46.400  1.00  0.00    -0.367 OA
BRANCH  31  32
HETATM   32  C2  UNL     1      21.133   5.625  46.707  1.00  0.00     0.166 C 
HETATM   33  C1  UNL     1      22.531   6.154  46.913  1.00  0.00     0.033 C 
ENDBRANCH  31  32
ENDBRANCH  30  31
ENDBRANCH  29  30
ENDBRANCH  28  29
ENDBRANCH  18  28
ENDBRANCH  10  12
ENDBRANCH   1  10
TORSDOF 7
ENDMDL
MODEL 6
REMARK VINA RESULT:      -7.8      1.876      2.291
REMARK  7 active torsions:
REMARK  status: ('A' for Active; 'I' for Inactive)
REMARK    1  A    between atoms: C2_2  and  O1_3 
REMARK    2  A    between atoms: O1_3  and  C3_4 
REMARK    3  A    between atoms: C3_4  and  O2_5 
REMARK    4  A    between atoms: O2_5  and  C4_6 
REMARK    5  A    between atoms: C4_6  and  C5_7 
REMARK    6  A    between atoms: C9_13  and  N3_14 
REMARK    7  A    between atoms: N3_14  and  C10_15 
ROOT
HETATM    1  C10 UNL     1      22.814   4.596  49.731  1.00  0.00     0.034 A 
HETATM    2  C11 UNL     1      22.426   5.082  50.943  1.00  0.00     0.032 A 
HETATM    3  C12 UNL     1      22.004   6.366  51.117  1.00  0.00     0.046 A 
HETATM    4  C13 UNL     1      21.951   7.251  50.056  1.00  0.00     0.137 A 
HETATM    5  F1  UNL     1      21.531   8.533  50.223  1.00  0.00    -0.204 F 
HETATM    6  C14 UNL     1      22.344   6.771  48.808  1.00  0.00     0.085 A 
HETATM    7  C15 UNL     1      22.283   7.705  47.714  1.00  0.00     0.102 C 
HETATM    8  N4  UNL     1      22.231   8.469  46.845  1.00  0.00    -0.191 NA
HETATM    9  C16 UNL     1      22.767   5.464  48.661  1.00  0.00     0.055 A 
ENDROOT
BRANCH   1  10
HETATM   10  N3  UNL     1      23.250   3.250  49.574  1.00  0.00    -0.352 N 
HETATM   11  H12 UNL     1      22.761   2.643  48.858  1.00  0.00     0.166 HD
BRANCH  10  12
HETATM   12  C9  UNL     1      24.313   2.777  50.374  1.00  0.00     0.094 A 
HETATM   13  C8  UNL     1      25.702   3.239  50.219  1.00  0.00     0.170 A 
HETATM   14  N1  UNL     1      26.775   2.755  51.033  1.00  0.00    -0.239 NA
HETATM   15  N2  UNL     1      25.942   4.120  49.299  1.00  0.00    -0.280 NA
HETATM   16  C7  UNL     1      26.487   1.880  51.932  1.00  0.00     0.131 A 
HETATM   17  C6  UNL     1      25.126   1.399  52.118  1.00  0.00     0.002 A 
HETATM   18  C5  UNL     1      25.021   0.511  53.079  1.00  0.00    -0.037 A 
HETATM   19  C17 UNL     1      24.022   1.877  51.300  1.00  0.00     0.042 A 
HETATM   20  C20 UNL     1      23.677  -0.065  53.374  1.00  0.00     0.104 A 
HETATM   21  C19 UNL     1      22.616   0.467  52.509  1.00  0.00     0.084 A 
HETATM   22  C18 UNL     1      22.697   1.358  51.539  1.00  0.00     0.111 A 
HETATM   23  O3  UNL     1      21.344  -0.067  52.777  1.00  0.00    -0.350 OA
HETATM   24  O4  UNL     1      21.643   1.793  50.783  1.00  0.00    -0.345 OA
HETATM   25  C22 UNL     1      20.330   1.528  51.235  1.00  0.00     0.202 C 
HETATM   26  C21 UNL     1      20.273   0.158  51.868  1.00  0.00     0.202 C 
HETATM   27  H11 UNL     1      26.879   4.502  49.115  1.00  0.00     0.188 HD
BRANCH  18  28
HETATM   28  C4  UNL     1      25.959  -0.107  54.010  1.00  0.00     0.206 C 
BRANCH  28  29
HETATM   29  O2  UNL     1      26.370  -1.379  53.608  1.00  0.00    -0.363 OA
BRANCH  29  30
HETATM   30  C3  UNL     1      27.689  -1.199  53.134  1.00  0.00     0.337 C 
BRANCH  30  31
HETATM   31  O1  UNL     1      28.472  -0.760  54.195  1.00  0.00    -0.367 OA
BRANCH  31  32
HETATM   32  C2  UNL     1      29.513   0.065  53.824  1.00  0.00     0.166 C 
HETATM   33  C1  UNL     1      29.284   1.510  54.195  1.00  0.00     0.033 C 
ENDBRANCH  31  32
ENDBRANCH  30  31
ENDBRANCH  29  30
ENDBRANCH  28  29
ENDBRANCH  18  28
ENDBRANCH  10  12
ENDBRANCH   1  10
TORSDOF 7
ENDMDL
MODEL 7
REMARK VINA RESULT:      -7.7      3.126      5.271
REMARK  7 active torsions:
REMARK  status: ('A' for Active; 'I' for Inactive)
REMARK    1  A    between atoms: C2_2  and  O1_3 
REMARK    2  A    between atoms: O1_3  and  C3_4 
REMARK    3  A    between atoms: C3_4  and  O2_5 
REMARK    4  A    between atoms: O2_5  and  C4_6 
REMARK    5  A    between atoms: C4_6  and  C5_7 
REMARK    6  A    between atoms: C9_13  and  N3_14 
REMARK    7  A    between atoms: N3_14  and  C10_15 
ROOT
HETATM    1  C10 UNL     1      25.474   5.142  49.591  1.00  0.00     0.034 A 
HETATM    2  C11 UNL     1      24.676   5.802  50.476  1.00  0.00     0.032 A 
HETATM    3  C12 UNL     1      24.814   7.132  50.737  1.00  0.00     0.046 A 
HETATM    4  C13 UNL     1      25.786   7.888  50.108  1.00  0.00     0.137 A 
HETATM    5  F1  UNL     1      25.929   9.215  50.363  1.00  0.00    -0.204 F 
HETATM    6  C14 UNL     1      26.613   7.229  49.199  1.00  0.00     0.085 A 
HETATM    7  C15 UNL     1      27.620   8.029  48.552  1.00  0.00     0.102 C 
HETATM    8  N4  UNL     1      28.427   8.686  48.044  1.00  0.00    -0.191 NA
HETATM    9  C16 UNL     1      26.450   5.880  48.954  1.00  0.00     0.055 A 
ENDROOT
BRANCH   1  10
HETATM   10  N3  UNL     1      25.311   3.752  49.335  1.00  0.00    -0.352 N 
HETATM   11  H12 UNL     1      25.336   3.419  48.331  1.00  0.00     0.166 HD
BRANCH  10  12
HETATM   12  C9  UNL     1      25.124   2.873  50.423  1.00  0.00     0.094 A 
HETATM   13  C8  UNL     1      26.175   2.584  51.413  1.00  0.00     0.170 A 
HETATM   14  N1  UNL     1      25.978   1.691  52.515  1.00  0.00    -0.239 NA
HETATM   15  N2  UNL     1      27.319   3.174  51.263  1.00  0.00    -0.280 NA
HETATM   16  C7  UNL     1      24.826   1.129  52.622  1.00  0.00     0.131 A 
HETATM   17  C6  UNL     1      23.760   1.388  51.664  1.00  0.00     0.002 A 
HETATM   18  C5  UNL     1      22.657   0.729  51.932  1.00  0.00    -0.037 A 
HETATM   19  C17 UNL     1      23.940   2.291  50.539  1.00  0.00     0.042 A 
HETATM   20  C20 UNL     1      21.484   0.905  51.027  1.00  0.00     0.104 A 
HETATM   21  C19 UNL     1      21.743   1.830  49.916  1.00  0.00     0.084 A 
HETATM   22  C18 UNL     1      22.841   2.503  49.627  1.00  0.00     0.111 A 
HETATM   23  O3  UNL     1      20.646   2.005  49.056  1.00  0.00    -0.350 OA
HETATM   24  O4  UNL     1      22.986   3.349  48.561  1.00  0.00    -0.345 OA
HETATM   25  C22 UNL     1      21.826   3.790  47.884  1.00  0.00     0.202 C 
HETATM   26  C21 UNL     1      20.820   2.667  47.808  1.00  0.00     0.202 C 
HETATM   27  H11 UNL     1      28.113   3.036  51.902  1.00  0.00     0.188 HD
BRANCH  18  28
HETATM   28  C4  UNL     1      22.249  -0.207  52.974  1.00  0.00     0.206 C 
BRANCH  28  29
HETATM   29  O2  UNL     1      21.511   0.398  53.993  1.00  0.00    -0.363 OA
BRANCH  29  30
HETATM   30  C3  UNL     1      20.720  -0.642  54.531  1.00  0.00     0.337 C 
BRANCH  30  31
HETATM   31  O1  UNL     1      20.029  -1.243  53.487  1.00  0.00    -0.367 OA
BRANCH  31  32
HETATM   32  C2  UNL     1      18.693  -0.908  53.427  1.00  0.00     0.166 C 
HETATM   33  C1  UNL     1      18.226  -0.586  52.029  1.00  0.00     0.033 C 
ENDBRANCH  31  32
ENDBRANCH  30  31
ENDBRANCH  29  30
ENDBRANCH  28  29
ENDBRANCH  18  28
ENDBRANCH  10  12
ENDBRANCH   1  10
TORSDOF 7
ENDMDL
MODEL 8
REMARK VINA RESULT:      -7.6      4.126      8.239
REMARK  7 active torsions:
REMARK  status: ('A' for Active; 'I' for Inactive)
REMARK    1  A    between atoms: C2_2  and  O1_3 
REMARK    2  A    between atoms: O1_3  and  C3_4 
REMARK    3  A    between atoms: C3_4  and  O2_5 
REMARK    4  A    between atoms: O2_5  and  C4_6 
REMARK    5  A    between atoms: C4_6  and  C5_7 
REMARK    6  A    between atoms: C9_13  and  N3_14 
REMARK    7  A    between atoms: N3_14  and  C10_15 
ROOT
HETATM    1  C10 UNL     1      24.962   0.588  53.443  1.00  0.00     0.034 A 
HETATM    2  C11 UNL     1      25.170  -0.544  52.714  1.00  0.00     0.032 A 
HETATM    3  C12 UNL     1      26.412  -1.066  52.511  1.00  0.00     0.046 A 
HETATM    4  C13 UNL     1      27.538  -0.463  53.041  1.00  0.00     0.137 A 
HETATM    5  F1  UNL     1      28.780  -0.980  52.843  1.00  0.00    -0.204 F 
HETATM    6  C14 UNL     1      27.344   0.696  53.790  1.00  0.00     0.085 A 
HETATM    7  C15 UNL     1      28.525   1.312  54.335  1.00  0.00     0.102 C 
HETATM    8  N4  UNL     1      29.486   1.797  54.764  1.00  0.00    -0.191 NA
HETATM    9  C16 UNL     1      26.073   1.203  53.980  1.00  0.00     0.055 A 
ENDROOT
BRANCH   1  10
HETATM   10  N3  UNL     1      23.655   1.115  53.642  1.00  0.00    -0.352 N 
HETATM   11  H12 UNL     1      23.533   2.166  53.649  1.00  0.00     0.166 HD
BRANCH  10  12
HETATM   12  C9  UNL     1      22.577   0.222  53.820  1.00  0.00     0.094 A 
HETATM   13  C8  UNL     1      22.608  -0.894  54.780  1.00  0.00     0.170 A 
HETATM   14  N1  UNL     1      21.510  -1.796  54.955  1.00  0.00    -0.239 NA
HETATM   15  N2  UNL     1      23.684  -1.049  55.485  1.00  0.00    -0.280 NA
HETATM   16  C7  UNL     1      20.464  -1.602  54.232  1.00  0.00     0.131 A 
HETATM   17  C6  UNL     1      20.393  -0.509  53.272  1.00  0.00     0.002 A 
HETATM   18  C5  UNL     1      19.251  -0.465  52.626  1.00  0.00    -0.037 A 
HETATM   19  C17 UNL     1      21.497   0.417  53.079  1.00  0.00     0.042 A 
HETATM   20  C20 UNL     1      19.048   0.608  51.611  1.00  0.00     0.104 A 
HETATM   21  C19 UNL     1      20.204   1.502  51.473  1.00  0.00     0.084 A 
HETATM   22  C18 UNL     1      21.360   1.478  52.110  1.00  0.00     0.111 A 
HETATM   23  O3  UNL     1      20.025   2.519  50.520  1.00  0.00    -0.350 OA
HETATM   24  O4  UNL     1      22.385   2.363  51.911  1.00  0.00    -0.345 OA
HETATM   25  C22 UNL     1      22.117   3.564  51.215  1.00  0.00     0.202 C 
HETATM   26  C21 UNL     1      21.137   3.300  50.097  1.00  0.00     0.202 C 
HETATM   27  H11 UNL     1      23.800  -1.798  56.180  1.00  0.00     0.188 HD
BRANCH  18  28
HETATM   28  C4  UNL     1      18.029  -1.262  52.649  1.00  0.00     0.206 C 
BRANCH  28  29
HETATM   29  O2  UNL     1      16.939  -0.574  53.183  1.00  0.00    -0.363 OA
BRANCH  29  30
HETATM   30  C3  UNL     1      15.815  -1.099  52.506  1.00  0.00     0.337 C 
BRANCH  30  31
HETATM   31  O1  UNL     1      15.068  -0.034  52.018  1.00  0.00    -0.367 OA
BRANCH  31  32
HETATM   32  C2  UNL     1      14.598   0.819  52.994  1.00  0.00     0.166 C 
HETATM   33  C1  UNL     1      14.748   2.276  52.628  1.00  0.00     0.033 C 
ENDBRANCH  31  32
ENDBRANCH  30  31
ENDBRANCH  29  30
ENDBRANCH  28  29
ENDBRANCH  18  28
ENDBRANCH  10  12
ENDBRANCH   1  10
TORSDOF 7
ENDMDL
MODEL 9
REMARK VINA RESULT:      -7.5      3.638      7.213
REMARK  7 active torsions:
REMARK  status: ('A' for Active; 'I' for Inactive)
REMARK    1  A    between atoms: C2_2  and  O1_3 
REMARK    2  A    between atoms: O1_3  and  C3_4 
REMARK    3  A    between atoms: C3_4  and  O2_5 
REMARK    4  A    between atoms: O2_5  and  C4_6 
REMARK    5  A    between atoms: C4_6  and  C5_7 
REMARK    6  A    between atoms: C9_13  and  N3_14 
REMARK    7  A    between atoms: N3_14  and  C10_15 
ROOT
HETATM    1  C10 UNL     1      22.956   2.634  51.050  1.00  0.00     0.034 A 
HETATM    2  C11 UNL     1      22.399   3.445  51.992  1.00  0.00     0.032 A 
HETATM    3  C12 UNL     1      22.822   4.724  52.201  1.00  0.00     0.046 A 
HETATM    4  C13 UNL     1      23.853   5.267  51.458  1.00  0.00     0.137 A 
HETATM    5  F1  UNL     1      24.279   6.542  51.661  1.00  0.00    -0.204 F 
HETATM    6  C14 UNL     1      24.436   4.451  50.490  1.00  0.00     0.085 A 
HETATM    7  C15 UNL     1      25.509   5.031  49.724  1.00  0.00     0.102 C 
HETATM    8  N4  UNL     1      26.372   5.511  49.120  1.00  0.00    -0.191 NA
HETATM    9  C16 UNL     1      23.987   3.159  50.299  1.00  0.00     0.055 A 
ENDROOT
BRANCH   1  10
HETATM   10  N3  UNL     1      22.498   1.302  50.850  1.00  0.00    -0.352 N 
HETATM   11  H12 UNL     1      23.214   0.524  50.814  1.00  0.00     0.166 HD
BRANCH  10  12
HETATM   12  C9  UNL     1      21.113   1.068  50.709  1.00  0.00     0.094 A 
HETATM   13  C8  UNL     1      20.320   1.593  49.585  1.00  0.00     0.170 A 
HETATM   14  N1  UNL     1      18.915   1.352  49.449  1.00  0.00    -0.239 NA
HETATM   15  N2  UNL     1      20.939   2.301  48.694  1.00  0.00    -0.280 NA
HETATM   16  C7  UNL     1      18.346   0.645  50.359  1.00  0.00     0.131 A 
HETATM   17  C6  UNL     1      19.094   0.107  51.486  1.00  0.00     0.002 A 
HETATM   18  C5  UNL     1      18.350  -0.590  52.313  1.00  0.00    -0.037 A 
HETATM   19  C17 UNL     1      20.521   0.340  51.643  1.00  0.00     0.042 A 
HETATM   20  C20 UNL     1      18.994  -1.198  53.512  1.00  0.00     0.104 A 
HETATM   21  C19 UNL     1      20.433  -0.919  53.601  1.00  0.00     0.084 A 
HETATM   22  C18 UNL     1      21.202  -0.223  52.784  1.00  0.00     0.111 A 
HETATM   23  O3  UNL     1      21.053  -1.487  54.727  1.00  0.00    -0.350 OA
HETATM   24  O4  UNL     1      22.544  -0.018  52.954  1.00  0.00    -0.345 OA
HETATM   25  C22 UNL     1      23.243  -0.831  53.875  1.00  0.00     0.202 C 
HETATM   26  C21 UNL     1      22.375  -1.099  55.082  1.00  0.00     0.202 C 
HETATM   27  H11 UNL     1      20.471   2.711  47.874  1.00  0.00     0.188 HD
BRANCH  18  28
HETATM   28  C4  UNL     1      16.937  -0.952  52.363  1.00  0.00     0.206 C 
BRANCH  28  29
HETATM   29  O2  UNL     1      16.199  -0.152  53.236  1.00  0.00    -0.363 OA
BRANCH  29  30
HETATM   30  C3  UNL     1      15.270   0.520  52.411  1.00  0.00     0.337 C 
BRANCH  30  31
HETATM   31  O1  UNL     1      14.524   1.378  53.210  1.00  0.00    -0.367 OA
BRANCH  31  32
HETATM   32  C2  UNL     1      14.115   2.531  52.573  1.00  0.00     0.166 C 
HETATM   33  C1  UNL     1      14.894   3.751  53.001  1.00  0.00     0.033 C 
ENDBRANCH  31  32
ENDBRANCH  30  31
ENDBRANCH  29  30
ENDBRANCH  28  29
ENDBRANCH  18  28
ENDBRANCH  10  12
ENDBRANCH   1  10
TORSDOF 7
ENDMDL
