MODEL 1
REMARK VINA RESULT:      -7.9      0.000      0.000
REMARK  3 active torsions:
REMARK  status: ('A' for Active; 'I' for Inactive)
REMARK    1  A    between atoms: C6_7  and  N2_8 
REMARK    2  A    between atoms: N2_8  and  C7_9 
REMARK    3  A    between atoms: C10_13  and  C11_14 
ROOT
HETATM    1  C7  UNL     1      25.092  -0.783  53.520  1.00  0.00     0.727 A 
HETATM    2  N3  UNL     1      25.246  -1.139  54.809  1.00  0.00    -0.075 NA
HETATM    3  C8  UNL     1      24.193  -1.307  55.663  1.00  0.00     0.139 A 
HETATM    4  C9  UNL     1      22.963  -1.078  55.081  1.00  0.00     0.053 A 
HETATM    5  C10 UNL     1      22.753  -0.714  53.773  1.00  0.00     0.089 A 
HETATM    6  N5  UNL     1      23.875  -0.573  53.007  1.00  0.00    -0.062 NA
ENDROOT
BRANCH   1   7
HETATM    7  N2  UNL     1      26.396  -0.696  52.972  1.00  0.00    -0.186 N 
HETATM    8  H7  UNL     1      26.520  -1.421  52.218  1.00  0.00     0.184 HD
BRANCH   7   9
HETATM    9  C6  UNL     1      27.397   0.229  53.376  1.00  0.00     0.072 A 
HETATM   10  C2  UNL     1      28.719  -0.093  53.576  1.00  0.00    -0.032 A 
HETATM   11  C1  UNL     1      29.098  -1.518  53.363  1.00  0.00     0.050 C 
HETATM   12  C3  UNL     1      29.657   0.848  53.955  1.00  0.00     0.028 A 
HETATM   13  C4  UNL     1      29.202   2.137  54.127  1.00  0.00     0.117 A 
HETATM   14  N1  UNL     1      27.897   2.451  53.930  1.00  0.00    -0.271 NA
HETATM   15  C5  UNL     1      26.995   1.532  53.562  1.00  0.00     0.146 A 
ENDBRANCH   7   9
ENDBRANCH   1   7
BRANCH   5  16
HETATM   16  C11 UNL     1      21.458  -0.464  53.165  1.00  0.00     0.011 A 
HETATM   17  C12 UNL     1      21.444   0.152  51.937  1.00  0.00     0.017 A 
HETATM   18  C13 UNL     1      20.226   0.396  51.343  1.00  0.00     0.020 A 
HETATM   19  C14 UNL     1      19.086   0.013  52.006  1.00  0.00     0.116 A 
HETATM   20  N4  UNL     1      19.091  -0.589  53.208  1.00  0.00    -0.272 NA
HETATM   21  C15 UNL     1      20.295  -0.833  53.799  1.00  0.00     0.130 A 
ENDBRANCH   5  16
TORSDOF 3
ENDMDL
MODEL 2
REMARK VINA RESULT:      -7.8      3.585      5.808
REMARK  3 active torsions:
REMARK  status: ('A' for Active; 'I' for Inactive)
REMARK    1  A    between atoms: C6_7  and  N2_8 
REMARK    2  A    between atoms: N2_8  and  C7_9 
REMARK    3  A    between atoms: C10_13  and  C11_14 
ROOT
HETATM    1  C7  UNL     1      25.635   1.463  52.546  1.00  0.00     0.727 A 
HETATM    2  N3  UNL     1      24.388   0.989  52.370  1.00  0.00    -0.075 NA
HETATM    3  C8  UNL     1      23.524   1.500  51.443  1.00  0.00     0.139 A 
HETATM    4  C9  UNL     1      24.050   2.542  50.707  1.00  0.00     0.053 A 
HETATM    5  C10 UNL     1      25.314   3.061  50.848  1.00  0.00     0.089 A 
HETATM    6  N5  UNL     1      26.095   2.476  51.804  1.00  0.00    -0.062 NA
ENDROOT
BRANCH   1   7
HETATM    7  N2  UNL     1      26.208   0.699  53.592  1.00  0.00    -0.186 N 
HETATM    8  H7  UNL     1      25.793   0.984  54.517  1.00  0.00     0.184 HD
BRANCH   7   9
HETATM    9  C6  UNL     1      27.201  -0.306  53.427  1.00  0.00     0.072 A 
HETATM   10  C2  UNL     1      28.540  -0.126  53.683  1.00  0.00    -0.032 A 
HETATM   11  C1  UNL     1      28.955   1.226  54.149  1.00  0.00     0.050 C 
HETATM   12  C3  UNL     1      29.464  -1.142  53.521  1.00  0.00     0.028 A 
HETATM   13  C4  UNL     1      28.976  -2.354  53.085  1.00  0.00     0.117 A 
HETATM   14  N1  UNL     1      27.654  -2.528  52.832  1.00  0.00    -0.271 NA
HETATM   15  C5  UNL     1      26.767  -1.537  52.993  1.00  0.00     0.146 A 
ENDBRANCH   7   9
ENDBRANCH   1   7
BRANCH   5  16
HETATM   16  C11 UNL     1      25.863   4.165  50.079  1.00  0.00     0.011 A 
HETATM   17  C12 UNL     1      26.991   3.918  49.335  1.00  0.00     0.017 A 
HETATM   18  C13 UNL     1      27.526   4.951  48.598  1.00  0.00     0.020 A 
HETATM   19  C14 UNL     1      26.907   6.176  48.644  1.00  0.00     0.116 A 
HETATM   20  N4  UNL     1      25.803   6.426  49.370  1.00  0.00    -0.272 NA
HETATM   21  C15 UNL     1      25.271   5.405  50.100  1.00  0.00     0.130 A 
ENDBRANCH   5  16
TORSDOF 3
ENDMDL
MODEL 3
REMARK VINA RESULT:      -7.8      1.137      2.240
REMARK  3 active torsions:
REMARK  status: ('A' for Active; 'I' for Inactive)
REMARK    1  A    between atoms: C6_7  and  N2_8 
REMARK    2  A    between atoms: N2_8  and  C7_9 
REMARK    3  A    between atoms: C10_13  and  C11_14 
ROOT
HETATM    1  C7  UNL     1      24.854  -0.209  53.854  1.00  0.00     0.727 A 
HETATM    2  N3  UNL     1      24.950  -0.856  55.031  1.00  0.00    -0.075 NA
HETATM    3  C8  UNL     1      23.872  -1.400  55.668  1.00  0.00     0.139 A 
HETATM    4  C9  UNL     1      22.680  -1.224  54.995  1.00  0.00     0.053 A 
HETATM    5  C10 UNL     1      22.530  -0.573  53.794  1.00  0.00     0.089 A 
HETATM    6  N5  UNL     1      23.673  -0.067  53.244  1.00  0.00    -0.062 NA
ENDROOT
BRANCH   1   7
HETATM    7  N2  UNL     1      26.164   0.219  53.526  1.00  0.00    -0.186 N 
HETATM    8  H7  UNL     1      26.175   1.260  53.366  1.00  0.00     0.184 HD
BRANCH   7   9
HETATM    9  C6  UNL     1      27.303  -0.627  53.423  1.00  0.00     0.072 A 
HETATM   10  C2  UNL     1      28.571  -0.278  53.824  1.00  0.00    -0.032 A 
HETATM   11  C1  UNL     1      28.739   1.091  54.387  1.00  0.00     0.050 C 
HETATM   12  C3  UNL     1      29.642  -1.144  53.715  1.00  0.00     0.028 A 
HETATM   13  C4  UNL     1      29.379  -2.385  53.180  1.00  0.00     0.117 A 
HETATM   14  N1  UNL     1      28.127  -2.727  52.784  1.00  0.00    -0.271 NA
HETATM   15  C5  UNL     1      27.094  -1.880  52.895  1.00  0.00     0.146 A 
ENDBRANCH   7   9
ENDBRANCH   1   7
BRANCH   5  16
HETATM   16  C11 UNL     1      21.273  -0.380  53.091  1.00  0.00     0.011 A 
HETATM   17  C12 UNL     1      20.124  -0.785  53.727  1.00  0.00     0.017 A 
HETATM   18  C13 UNL     1      18.922  -0.609  53.078  1.00  0.00     0.020 A 
HETATM   19  C14 UNL     1      18.931  -0.041  51.829  1.00  0.00     0.116 A 
HETATM   20  N4  UNL     1      20.050   0.357  51.199  1.00  0.00    -0.272 NA
HETATM   21  C15 UNL     1      21.242   0.185  51.839  1.00  0.00     0.130 A 
ENDBRANCH   5  16
TORSDOF 3
ENDMDL
MODEL 4
REMARK VINA RESULT:      -7.6      1.824      2.756
REMARK  3 active torsions:
REMARK  status: ('A' for Active; 'I' for Inactive)
REMARK    1  A    between atoms: C6_7  and  N2_8 
REMARK    2  A    between atoms: N2_8  and  C7_9 
REMARK    3  A    between atoms: C10_13  and  C11_14 
ROOT
HETATM    1  C7  UNL     1      25.103   1.553  51.919  1.00  0.00     0.727 A 
HETATM    2  N3  UNL     1      24.795   2.782  51.465  1.00  0.00    -0.075 NA
HETATM    3  C8  UNL     1      23.525   3.284  51.486  1.00  0.00     0.139 A 
HETATM    4  C9  UNL     1      22.592   2.416  52.015  1.00  0.00     0.053 A 
HETATM    5  C10 UNL     1      22.855   1.154  52.491  1.00  0.00     0.089 A 
HETATM    6  N5  UNL     1      24.158   0.751  52.422  1.00  0.00    -0.062 NA
ENDROOT
BRANCH   1   7
HETATM    7  N2  UNL     1      26.495   1.390  51.718  1.00  0.00    -0.186 N 
HETATM    8  H7  UNL     1      26.713   1.380  50.687  1.00  0.00     0.184 HD
BRANCH   7   9
HETATM    9  C6  UNL     1      27.465   1.256  52.750  1.00  0.00     0.072 A 
HETATM   10  C2  UNL     1      27.889   0.055  53.268  1.00  0.00    -0.032 A 
HETATM   11  C1  UNL     1      27.263  -1.173  52.704  1.00  0.00     0.050 C 
HETATM   12  C3  UNL     1      28.846  -0.021  54.262  1.00  0.00     0.028 A 
HETATM   13  C4  UNL     1      29.360   1.173  54.715  1.00  0.00     0.117 A 
HETATM   14  N1  UNL     1      28.939   2.357  54.203  1.00  0.00    -0.271 NA
HETATM   15  C5  UNL     1      28.011   2.420  53.239  1.00  0.00     0.146 A 
ENDBRANCH   7   9
ENDBRANCH   1   7
BRANCH   5  16
HETATM   16  C11 UNL     1      21.869   0.237  53.038  1.00  0.00     0.011 A 
HETATM   17  C12 UNL     1      22.330  -0.792  53.824  1.00  0.00     0.017 A 
HETATM   18  C13 UNL     1      21.412  -1.671  54.354  1.00  0.00     0.020 A 
HETATM   19  C14 UNL     1      20.083  -1.477  54.070  1.00  0.00     0.116 A 
HETATM   20  N4  UNL     1      19.624  -0.474  53.302  1.00  0.00    -0.272 NA
HETATM   21  C15 UNL     1      20.530   0.398  52.777  1.00  0.00     0.130 A 
ENDBRANCH   5  16
TORSDOF 3
ENDMDL
MODEL 5
REMARK VINA RESULT:      -7.5      4.267      7.072
REMARK  3 active torsions:
REMARK  status: ('A' for Active; 'I' for Inactive)
REMARK    1  A    between atoms: C6_7  and  N2_8 
REMARK    2  A    between atoms: N2_8  and  C7_9 
REMARK    3  A    between atoms: C10_13  and  C11_14 
ROOT
HETATM    1  C7  UNL     1      25.579   2.677  51.022  1.00  0.00     0.727 A 
HETATM    2  N3  UNL     1      24.703   3.159  51.923  1.00  0.00    -0.075 NA
HETATM    3  C8  UNL     1      24.705   2.780  53.236  1.00  0.00     0.139 A 
HETATM    4  C9  UNL     1      25.686   1.861  53.548  1.00  0.00     0.053 A 
HETATM    5  C10 UNL     1      26.602   1.340  52.666  1.00  0.00     0.089 A 
HETATM    6  N5  UNL     1      26.510   1.786  51.379  1.00  0.00    -0.062 NA
ENDROOT
BRANCH   1   7
HETATM    7  N2  UNL     1      25.254   3.286  49.785  1.00  0.00    -0.186 N 
HETATM    8  H7  UNL     1      24.478   2.752  49.312  1.00  0.00     0.184 HD
BRANCH   7   9
HETATM    9  C6  UNL     1      25.880   4.445  49.250  1.00  0.00     0.072 A 
HETATM   10  C2  UNL     1      25.228   5.624  48.975  1.00  0.00    -0.032 A 
HETATM   11  C1  UNL     1      23.765   5.658  49.250  1.00  0.00     0.050 C 
HETATM   12  C3  UNL     1      25.887   6.729  48.468  1.00  0.00     0.028 A 
HETATM   13  C4  UNL     1      27.240   6.592  48.249  1.00  0.00     0.117 A 
HETATM   14  N1  UNL     1      27.880   5.426  48.521  1.00  0.00    -0.271 NA
HETATM   15  C5  UNL     1      27.232   4.362  49.012  1.00  0.00     0.146 A 
ENDBRANCH   7   9
ENDBRANCH   1   7
BRANCH   5  16
HETATM   16  C11 UNL     1      27.628   0.365  52.995  1.00  0.00     0.011 A 
HETATM   17  C12 UNL     1      28.864   0.845  53.356  1.00  0.00     0.017 A 
HETATM   18  C13 UNL     1      29.850  -0.063  53.673  1.00  0.00     0.020 A 
HETATM   19  C14 UNL     1      29.550  -1.401  53.611  1.00  0.00     0.116 A 
HETATM   20  N4  UNL     1      28.345  -1.879  53.257  1.00  0.00    -0.272 NA
HETATM   21  C15 UNL     1      27.366  -0.983  52.944  1.00  0.00     0.130 A 
ENDBRANCH   5  16
TORSDOF 3
ENDMDL
MODEL 6
REMARK VINA RESULT:      -7.5      2.887      3.871
REMARK  3 active torsions:
REMARK  status: ('A' for Active; 'I' for Inactive)
REMARK    1  A    between atoms: C6_7  and  N2_8 
REMARK    2  A    between atoms: N2_8  and  C7_9 
REMARK    3  A    between atoms: C10_13  and  C11_14 
ROOT
HETATM    1  C7  UNL     1      24.163  -0.069  53.054  1.00  0.00     0.727 A 
HETATM    2  N3  UNL     1      22.963  -0.637  53.277  1.00  0.00    -0.075 NA
HETATM    3  C8  UNL     1      21.818  -0.216  52.663  1.00  0.00     0.139 A 
HETATM    4  C9  UNL     1      22.007   0.841  51.796  1.00  0.00     0.053 A 
HETATM    5  C10 UNL     1      23.209   1.454  51.535  1.00  0.00     0.089 A 
HETATM    6  N5  UNL     1      24.290   0.954  52.203  1.00  0.00    -0.062 NA
ENDROOT
BRANCH   1   7
HETATM    7  N2  UNL     1      25.089  -0.761  53.873  1.00  0.00    -0.186 N 
HETATM    8  H7  UNL     1      24.595  -1.511  54.423  1.00  0.00     0.184 HD
BRANCH   7   9
HETATM    9  C6  UNL     1      26.482  -0.487  53.950  1.00  0.00     0.072 A 
HETATM   10  C2  UNL     1      27.447  -1.147  53.225  1.00  0.00    -0.032 A 
HETATM   11  C1  UNL     1      26.975  -2.229  52.316  1.00  0.00     0.050 C 
HETATM   12  C3  UNL     1      28.789  -0.832  53.326  1.00  0.00     0.028 A 
HETATM   13  C4  UNL     1      29.119   0.184  54.195  1.00  0.00     0.117 A 
HETATM   14  N1  UNL     1      28.165   0.833  54.910  1.00  0.00    -0.271 NA
HETATM   15  C5  UNL     1      26.867   0.520  54.805  1.00  0.00     0.146 A 
ENDBRANCH   7   9
ENDBRANCH   1   7
BRANCH   5  16
HETATM   16  C11 UNL     1      23.405   2.573  50.629  1.00  0.00     0.011 A 
HETATM   17  C12 UNL     1      22.831   2.487  49.384  1.00  0.00     0.017 A 
HETATM   18  C13 UNL     1      23.004   3.538  48.511  1.00  0.00     0.020 A 
HETATM   19  C14 UNL     1      23.741   4.619  48.928  1.00  0.00     0.116 A 
HETATM   20  N4  UNL     1      24.307   4.711  50.144  1.00  0.00    -0.272 NA
HETATM   21  C15 UNL     1      24.137   3.672  51.010  1.00  0.00     0.130 A 
ENDBRANCH   5  16
TORSDOF 3
ENDMDL
MODEL 7
REMARK VINA RESULT:      -7.4      1.648      2.954
REMARK  3 active torsions:
REMARK  status: ('A' for Active; 'I' for Inactive)
REMARK    1  A    between atoms: C6_7  and  N2_8 
REMARK    2  A    between atoms: N2_8  and  C7_9 
REMARK    3  A    between atoms: C10_13  and  C11_14 
ROOT
HETATM    1  C7  UNL     1      25.376   1.136  53.330  1.00  0.00     0.727 A 
HETATM    2  N3  UNL     1      25.769   2.014  52.388  1.00  0.00    -0.075 NA
HETATM    3  C8  UNL     1      24.926   2.502  51.431  1.00  0.00     0.139 A 
HETATM    4  C9  UNL     1      23.639   2.013  51.521  1.00  0.00     0.053 A 
HETATM    5  C10 UNL     1      23.189   1.118  52.462  1.00  0.00     0.089 A 
HETATM    6  N5  UNL     1      24.115   0.694  53.372  1.00  0.00    -0.062 NA
ENDROOT
BRANCH   1   7
HETATM    7  N2  UNL     1      26.520   0.859  54.119  1.00  0.00    -0.186 N 
HETATM    8  H7  UNL     1      26.532   1.482  54.969  1.00  0.00     0.184 HD
BRANCH   7   9
HETATM    9  C6  UNL     1      27.513  -0.112  53.814  1.00  0.00     0.072 A 
HETATM   10  C2  UNL     1      28.866   0.091  53.945  1.00  0.00    -0.032 A 
HETATM   11  C1  UNL     1      29.296   1.434  54.425  1.00  0.00     0.050 C 
HETATM   12  C3  UNL     1      29.791  -0.893  53.649  1.00  0.00     0.028 A 
HETATM   13  C4  UNL     1      29.288  -2.099  53.211  1.00  0.00     0.117 A 
HETATM   14  N1  UNL     1      27.952  -2.295  53.082  1.00  0.00    -0.271 NA
HETATM   15  C5  UNL     1      27.064  -1.335  53.372  1.00  0.00     0.146 A 
ENDBRANCH   7   9
ENDBRANCH   1   7
BRANCH   5  16
HETATM   16  C11 UNL     1      21.835   0.597  52.551  1.00  0.00     0.011 A 
HETATM   17  C12 UNL     1      21.468  -0.013  53.726  1.00  0.00     0.017 A 
HETATM   18  C13 UNL     1      20.189  -0.512  53.830  1.00  0.00     0.020 A 
HETATM   19  C14 UNL     1      19.345  -0.377  52.755  1.00  0.00     0.116 A 
HETATM   20  N4  UNL     1      19.697   0.217  51.602  1.00  0.00    -0.272 NA
HETATM   21  C15 UNL     1      20.962   0.713  51.496  1.00  0.00     0.130 A 
ENDBRANCH   5  16
TORSDOF 3
ENDMDL
MODEL 8
REMARK VINA RESULT:      -7.4      3.482      6.308
REMARK  3 active torsions:
REMARK  status: ('A' for Active; 'I' for Inactive)
REMARK    1  A    between atoms: C6_7  and  N2_8 
REMARK    2  A    between atoms: N2_8  and  C7_9 
REMARK    3  A    between atoms: C10_13  and  C11_14 
ROOT
HETATM    1  C7  UNL     1      24.374   1.426  51.637  1.00  0.00     0.727 A 
HETATM    2  N3  UNL     1      23.304   1.068  52.373  1.00  0.00    -0.075 NA
HETATM    3  C8  UNL     1      23.374   0.156  53.387  1.00  0.00     0.139 A 
HETATM    4  C9  UNL     1      24.638  -0.360  53.587  1.00  0.00     0.053 A 
HETATM    5  C10 UNL     1      25.759  -0.027  52.866  1.00  0.00     0.089 A 
HETATM    6  N5  UNL     1      25.577   0.894  51.874  1.00  0.00    -0.062 NA
ENDROOT
BRANCH   1   7
HETATM    7  N2  UNL     1      23.907   2.367  50.687  1.00  0.00    -0.186 N 
HETATM    8  H7  UNL     1      23.337   1.880  49.946  1.00  0.00     0.184 HD
BRANCH   7   9
HETATM    9  C6  UNL     1      24.166   3.765  50.718  1.00  0.00     0.072 A 
HETATM   10  C2  UNL     1      25.260   4.366  50.141  1.00  0.00    -0.032 A 
HETATM   11  C1  UNL     1      26.232   3.468  49.458  1.00  0.00     0.050 C 
HETATM   12  C3  UNL     1      25.458   5.733  50.187  1.00  0.00     0.028 A 
HETATM   13  C4  UNL     1      24.501   6.473  50.845  1.00  0.00     0.117 A 
HETATM   14  N1  UNL     1      23.423   5.876  51.414  1.00  0.00    -0.271 NA
HETATM   15  C5  UNL     1      23.239   4.550  51.363  1.00  0.00     0.146 A 
ENDBRANCH   7   9
ENDBRANCH   1   7
BRANCH   5  16
HETATM   16  C11 UNL     1      27.088  -0.578  53.071  1.00  0.00     0.011 A 
HETATM   17  C12 UNL     1      28.094   0.301  53.393  1.00  0.00     0.017 A 
HETATM   18  C13 UNL     1      29.361  -0.202  53.593  1.00  0.00     0.020 A 
HETATM   19  C14 UNL     1      29.556  -1.554  53.460  1.00  0.00     0.116 A 
HETATM   20  N4  UNL     1      28.577  -2.420  53.143  1.00  0.00    -0.272 NA
HETATM   21  C15 UNL     1      27.322  -1.926  52.945  1.00  0.00     0.130 A 
ENDBRANCH   5  16
TORSDOF 3
ENDMDL
MODEL 9
REMARK VINA RESULT:      -7.4      2.071      2.364
REMARK  3 active torsions:
REMARK  status: ('A' for Active; 'I' for Inactive)
REMARK    1  A    between atoms: C6_7  and  N2_8 
REMARK    2  A    between atoms: N2_8  and  C7_9 
REMARK    3  A    between atoms: C10_13  and  C11_14 
ROOT
HETATM    1  C7  UNL     1      24.835   0.639  52.417  1.00  0.00     0.727 A 
HETATM    2  N3  UNL     1      24.603  -0.353  53.297  1.00  0.00    -0.075 NA
HETATM    3  C8  UNL     1      23.385  -0.558  53.879  1.00  0.00     0.139 A 
HETATM    4  C9  UNL     1      22.419   0.343  53.481  1.00  0.00     0.053 A 
HETATM    5  C10 UNL     1      22.605   1.370  52.588  1.00  0.00     0.089 A 
HETATM    6  N5  UNL     1      23.862   1.485  52.066  1.00  0.00    -0.062 NA
ENDROOT
BRANCH   1   7
HETATM    7  N2  UNL     1      26.200   0.538  52.053  1.00  0.00    -0.186 N 
HETATM    8  H7  UNL     1      26.285   0.191  51.062  1.00  0.00     0.184 HD
BRANCH   7   9
HETATM    9  C6  UNL     1      27.301   0.855  52.896  1.00  0.00     0.072 A 
HETATM   10  C2  UNL     1      28.205  -0.065  53.374  1.00  0.00    -0.032 A 
HETATM   11  C1  UNL     1      27.984  -1.484  52.981  1.00  0.00     0.050 C 
HETATM   12  C3  UNL     1      29.268   0.298  54.179  1.00  0.00     0.028 A 
HETATM   13  C4  UNL     1      29.381   1.635  54.485  1.00  0.00     0.117 A 
HETATM   14  N1  UNL     1      28.487   2.541  54.013  1.00  0.00    -0.271 NA
HETATM   15  C5  UNL     1      27.460   2.179  53.232  1.00  0.00     0.146 A 
ENDBRANCH   7   9
ENDBRANCH   1   7
BRANCH   5  16
HETATM   16  C11 UNL     1      21.589   2.324  52.177  1.00  0.00     0.011 A 
HETATM   17  C12 UNL     1      21.977   3.339  51.335  1.00  0.00     0.017 A 
HETATM   18  C13 UNL     1      21.028   4.252  50.933  1.00  0.00     0.020 A 
HETATM   19  C14 UNL     1      19.743   4.105  51.393  1.00  0.00     0.116 A 
HETATM   20  N4  UNL     1      19.355   3.117  52.217  1.00  0.00    -0.272 NA
HETATM   21  C15 UNL     1      20.291   2.210  52.616  1.00  0.00     0.130 A 
ENDBRANCH   5  16
TORSDOF 3
ENDMDL
