MODEL 1
REMARK VINA RESULT:      -7.4      0.000      0.000
REMARK  9 active torsions:
REMARK  status: ('A' for Active; 'I' for Inactive)
REMARK    1  A    between atoms: C2_2  and  C3_3 
REMARK    2  A    between atoms: C4_4  and  C5_5 
REMARK    3  A    between atoms: C7_7  and  N1_8 
REMARK    4  A    between atoms: N2_11  and  C10_12 
REMARK    5  A    between atoms: C10_12  and  N3_13 
REMARK    6  A    between atoms: N3_13  and  C11_14 
REMARK    7  A    between atoms: C11_14  and  C12_15 
REMARK    8  A    between atoms: C12_15  and  C13_16 
REMARK    9  A    between atoms: C16_21  and  S1_22 
ROOT
HETATM    1  N1  UNL     1      24.642   2.876  51.324  1.00  0.00    -0.362 N 
HETATM    2  C8  UNL     1      23.975   4.002  51.965  1.00  0.00     0.154 C 
HETATM    3  C9  UNL     1      23.852   5.081  50.884  1.00  0.00     0.294 C 
HETATM    4  N2  UNL     1      25.216   5.405  50.505  1.00  0.00     0.119 N 
HETATM    5  C17 UNL     1      25.843   4.360  49.756  1.00  0.00     0.294 C 
HETATM    6  C18 UNL     1      25.143   3.038  49.991  1.00  0.00     0.154 C 
ENDROOT
BRANCH   4   7
HETATM    7  C10 UNL     1      25.315   6.718  49.896  1.00  0.00     0.539 C 
BRANCH   7   8
HETATM    8  N3  UNL     1      26.660   7.191  49.813  1.00  0.00     0.111 N 
HETATM    9  H15 UNL     1      26.791   8.068  50.385  1.00  0.00     0.318 HD
BRANCH   8  10
HETATM   10  C11 UNL     1      26.990   7.568  48.453  1.00  0.00     0.275 C 
BRANCH  10  11
HETATM   11  C12 UNL     1      28.055   6.689  47.831  1.00  0.00     0.060 C 
BRANCH  11  12
HETATM   12  C13 UNL     1      29.369   6.863  48.458  1.00  0.00     0.011 C 
HETATM   13  C14 UNL     1      30.370   6.003  48.406  1.00  0.00     0.084 C 
HETATM   14  O1  UNL     1      30.436   4.771  47.772  1.00  0.00    -0.327 OA
HETATM   15  C16 UNL     1      31.701   6.181  49.043  1.00  0.00     0.239 C 
HETATM   16  C15 UNL     1      31.827   4.469  47.605  1.00  0.00     0.346 C 
HETATM   17  O2  UNL     1      32.529   5.579  48.067  1.00  0.00    -0.345 OA
BRANCH  15  18
HETATM   18  S1  UNL     1      32.135   7.917  49.290  1.00  0.00    -0.144 SA
HETATM   19  H24 UNL     1      32.069   8.321  50.617  1.00  0.00     0.104 HD
ENDBRANCH  15  18
ENDBRANCH  11  12
ENDBRANCH  10  11
ENDBRANCH   8  10
ENDBRANCH   7   8
ENDBRANCH   4   7
BRANCH   1  20
HETATM   20  C7  UNL     1      24.776   1.649  52.036  1.00  0.00     0.129 A 
HETATM   21  C6  UNL     1      25.965   0.966  52.038  1.00  0.00     0.082 A 
HETATM   22  C5  UNL     1      26.078  -0.239  52.742  1.00  0.00     0.061 A 
HETATM   23  N5  UNL     1      24.985  -0.666  53.393  1.00  0.00    -0.242 NA
HETATM   24  C19 UNL     1      23.817  -0.005  53.396  1.00  0.00     0.235 A 
HETATM   25  N4  UNL     1      23.715   1.169  52.707  1.00  0.00    -0.225 NA
BRANCH  22  26
HETATM   26  C4  UNL     1      27.342  -0.961  52.743  1.00  0.00     0.027 C 
HETATM   27  C3  UNL     1      28.353  -0.718  53.557  1.00  0.00    -0.025 C 
BRANCH  27  28
HETATM   28  C2  UNL     1      28.625   0.235  54.657  1.00  0.00     0.022 C 
HETATM   29  C1  UNL     1      29.078   1.587  54.102  1.00  0.00     0.009 C 
ENDBRANCH  27  28
ENDBRANCH  22  26
ENDBRANCH   1  20
TORSDOF 9
ENDMDL
MODEL 2
REMARK VINA RESULT:      -7.2      1.224      1.458
REMARK  9 active torsions:
REMARK  status: ('A' for Active; 'I' for Inactive)
REMARK    1  A    between atoms: C2_2  and  C3_3 
REMARK    2  A    between atoms: C4_4  and  C5_5 
REMARK    3  A    between atoms: C7_7  and  N1_8 
REMARK    4  A    between atoms: N2_11  and  C10_12 
REMARK    5  A    between atoms: C10_12  and  N3_13 
REMARK    6  A    between atoms: N3_13  and  C11_14 
REMARK    7  A    between atoms: C11_14  and  C12_15 
REMARK    8  A    between atoms: C12_15  and  C13_16 
REMARK    9  A    between atoms: C16_21  and  S1_22 
ROOT
HETATM    1  N1  UNL     1      25.376   3.425  50.533  1.00  0.00    -0.362 N 
HETATM    2  C8  UNL     1      24.681   4.696  50.691  1.00  0.00     0.154 C 
HETATM    3  C9  UNL     1      25.009   5.508  49.435  1.00  0.00     0.294 C 
HETATM    4  N2  UNL     1      26.451   5.675  49.448  1.00  0.00     0.119 N 
HETATM    5  C17 UNL     1      27.150   4.461  49.160  1.00  0.00     0.294 C 
HETATM    6  C18 UNL     1      26.266   3.259  49.421  1.00  0.00     0.154 C 
ENDROOT
BRANCH   4   7
HETATM    7  C10 UNL     1      26.876   6.811  48.652  1.00  0.00     0.539 C 
BRANCH   7   8
HETATM    8  N3  UNL     1      27.694   7.726  49.383  1.00  0.00     0.111 N 
HETATM    9  H15 UNL     1      27.191   8.639  49.545  1.00  0.00     0.318 HD
BRANCH   8  10
HETATM   10  C11 UNL     1      28.882   8.072  48.629  1.00  0.00     0.275 C 
BRANCH  10  11
HETATM   11  C12 UNL     1      29.634   6.863  48.112  1.00  0.00     0.060 C 
BRANCH  11  12
HETATM   12  C13 UNL     1      31.066   6.912  48.425  1.00  0.00     0.011 C 
HETATM   13  C14 UNL     1      31.894   5.883  48.417  1.00  0.00     0.084 C 
HETATM   14  O1  UNL     1      31.636   4.552  48.123  1.00  0.00    -0.327 OA
HETATM   15  C16 UNL     1      33.344   5.935  48.734  1.00  0.00     0.239 C 
HETATM   16  C15 UNL     1      32.897   3.954  47.792  1.00  0.00     0.346 C 
HETATM   17  O2  UNL     1      33.837   4.980  47.815  1.00  0.00    -0.345 OA
BRANCH  15  18
HETATM   18  S1  UNL     1      34.070   7.563  48.440  1.00  0.00    -0.144 SA
HETATM   19  H24 UNL     1      35.451   7.587  48.580  1.00  0.00     0.104 HD
ENDBRANCH  15  18
ENDBRANCH  11  12
ENDBRANCH  10  11
ENDBRANCH   8  10
ENDBRANCH   7   8
ENDBRANCH   4   7
BRANCH   1  20
HETATM   20  C7  UNL     1      25.151   2.385  51.481  1.00  0.00     0.129 A 
HETATM   21  C6  UNL     1      25.952   1.272  51.503  1.00  0.00     0.082 A 
HETATM   22  C5  UNL     1      25.716   0.260  52.441  1.00  0.00     0.061 A 
HETATM   23  N5  UNL     1      24.690   0.443  53.287  1.00  0.00    -0.242 NA
HETATM   24  C19 UNL     1      23.900   1.529  53.271  1.00  0.00     0.235 A 
HETATM   25  N4  UNL     1      24.137   2.512  52.353  1.00  0.00    -0.225 NA
BRANCH  22  26
HETATM   26  C4  UNL     1      26.569  -0.919  52.464  1.00  0.00     0.027 C 
HETATM   27  C3  UNL     1      27.700  -1.023  53.138  1.00  0.00    -0.025 C 
BRANCH  27  28
HETATM   28  C2  UNL     1      28.490  -0.144  54.029  1.00  0.00     0.022 C 
HETATM   29  C1  UNL     1      29.949  -0.085  53.577  1.00  0.00     0.009 C 
ENDBRANCH  27  28
ENDBRANCH  22  26
ENDBRANCH   1  20
TORSDOF 9
ENDMDL
MODEL 3
REMARK VINA RESULT:      -7.1      1.419      1.693
REMARK  9 active torsions:
REMARK  status: ('A' for Active; 'I' for Inactive)
REMARK    1  A    between atoms: C2_2  and  C3_3 
REMARK    2  A    between atoms: C4_4  and  C5_5 
REMARK    3  A    between atoms: C7_7  and  N1_8 
REMARK    4  A    between atoms: N2_11  and  C10_12 
REMARK    5  A    between atoms: C10_12  and  N3_13 
REMARK    6  A    between atoms: N3_13  and  C11_14 
REMARK    7  A    between atoms: C11_14  and  C12_15 
REMARK    8  A    between atoms: C12_15  and  C13_16 
REMARK    9  A    between atoms: C16_21  and  S1_22 
ROOT
HETATM    1  N1  UNL     1      24.404   2.901  51.557  1.00  0.00    -0.362 N 
HETATM    2  C8  UNL     1      23.807   3.999  52.308  1.00  0.00     0.154 C 
HETATM    3  C9  UNL     1      23.618   5.137  51.301  1.00  0.00     0.294 C 
HETATM    4  N2  UNL     1      24.954   5.465  50.835  1.00  0.00     0.119 N 
HETATM    5  C17 UNL     1      25.505   4.456  49.984  1.00  0.00     0.294 C 
HETATM    6  C18 UNL     1      24.804   3.131  50.200  1.00  0.00     0.154 C 
ENDROOT
BRANCH   4   7
HETATM    7  C10 UNL     1      25.027   6.809  50.292  1.00  0.00     0.539 C 
BRANCH   7   8
HETATM    8  N3  UNL     1      26.253   7.470  50.612  1.00  0.00     0.111 N 
HETATM    9  H15 UNL     1      26.105   8.207  51.352  1.00  0.00     0.318 HD
BRANCH   8  10
HETATM   10  C11 UNL     1      26.769   8.183  49.460  1.00  0.00     0.275 C 
BRANCH  10  11
HETATM   11  C12 UNL     1      27.185   7.267  48.328  1.00  0.00     0.060 C 
BRANCH  11  12
HETATM   12  C13 UNL     1      28.621   6.969  48.341  1.00  0.00     0.011 C 
HETATM   13  C14 UNL     1      29.591   7.829  48.093  1.00  0.00     0.084 C 
HETATM   14  O1  UNL     1      29.508   9.176  47.773  1.00  0.00    -0.327 OA
HETATM   15  C16 UNL     1      31.045   7.524  48.107  1.00  0.00     0.239 C 
HETATM   16  C15 UNL     1      30.789   9.747  48.071  1.00  0.00     0.346 C 
HETATM   17  O2  UNL     1      31.551   8.732  48.641  1.00  0.00    -0.345 OA
BRANCH  15  18
HETATM   18  S1  UNL     1      31.458   6.117  49.161  1.00  0.00    -0.144 SA
HETATM   19  H24 UNL     1      30.347   5.481  49.697  1.00  0.00     0.104 HD
ENDBRANCH  15  18
ENDBRANCH  11  12
ENDBRANCH  10  11
ENDBRANCH   8  10
ENDBRANCH   7   8
ENDBRANCH   4   7
BRANCH   1  20
HETATM   20  C7  UNL     1      24.573   1.635  52.189  1.00  0.00     0.129 A 
HETATM   21  C6  UNL     1      25.771   0.972  52.120  1.00  0.00     0.082 A 
HETATM   22  C5  UNL     1      25.919  -0.272  52.746  1.00  0.00     0.061 A 
HETATM   23  N5  UNL     1      24.848  -0.755  53.394  1.00  0.00    -0.242 NA
HETATM   24  C19 UNL     1      23.671  -0.114  53.467  1.00  0.00     0.235 A 
HETATM   25  N4  UNL     1      23.535   1.099  52.853  1.00  0.00    -0.225 NA
BRANCH  22  26
HETATM   26  C4  UNL     1      27.192  -0.973  52.672  1.00  0.00     0.027 C 
HETATM   27  C3  UNL     1      28.225  -0.752  53.464  1.00  0.00    -0.025 C 
BRANCH  27  28
HETATM   28  C2  UNL     1      28.519   0.153  54.598  1.00  0.00     0.022 C 
HETATM   29  C1  UNL     1      28.998   1.516  54.093  1.00  0.00     0.009 C 
ENDBRANCH  27  28
ENDBRANCH  22  26
ENDBRANCH   1  20
TORSDOF 9
ENDMDL
MODEL 4
REMARK VINA RESULT:      -7.1      3.058      3.503
REMARK  9 active torsions:
REMARK  status: ('A' for Active; 'I' for Inactive)
REMARK    1  A    between atoms: C2_2  and  C3_3 
REMARK    2  A    between atoms: C4_4  and  C5_5 
REMARK    3  A    between atoms: C7_7  and  N1_8 
REMARK    4  A    between atoms: N2_11  and  C10_12 
REMARK    5  A    between atoms: C10_12  and  N3_13 
REMARK    6  A    between atoms: N3_13  and  C11_14 
REMARK    7  A    between atoms: C11_14  and  C12_15 
REMARK    8  A    between atoms: C12_15  and  C13_16 
REMARK    9  A    between atoms: C16_21  and  S1_22 
ROOT
HETATM    1  N1  UNL     1      24.433   2.798  51.529  1.00  0.00    -0.362 N 
HETATM    2  C8  UNL     1      23.745   3.875  52.230  1.00  0.00     0.154 C 
HETATM    3  C9  UNL     1      23.567   4.994  51.200  1.00  0.00     0.294 C 
HETATM    4  N2  UNL     1      24.912   5.377  50.809  1.00  0.00     0.119 N 
HETATM    5  C17 UNL     1      25.555   4.385  50.004  1.00  0.00     0.294 C 
HETATM    6  C18 UNL     1      24.901   3.032  50.195  1.00  0.00     0.154 C 
ENDROOT
BRANCH   4   7
HETATM    7  C10 UNL     1      24.958   6.717  50.255  1.00  0.00     0.539 C 
BRANCH   7   8
HETATM    8  N3  UNL     1      26.023   7.503  50.793  1.00  0.00     0.111 N 
HETATM    9  H15 UNL     1      25.657   8.226  51.469  1.00  0.00     0.318 HD
BRANCH   8  10
HETATM   10  C11 UNL     1      26.686   8.256  49.748  1.00  0.00     0.275 C 
BRANCH  10  11
HETATM   11  C12 UNL     1      27.568   9.366  50.279  1.00  0.00     0.060 C 
BRANCH  11  12
HETATM   12  C13 UNL     1      28.476   9.904  49.260  1.00  0.00     0.011 C 
HETATM   13  C14 UNL     1      28.425  11.118  48.743  1.00  0.00     0.084 C 
HETATM   14  O1  UNL     1      27.542  12.152  49.017  1.00  0.00    -0.327 OA
HETATM   15  C16 UNL     1      29.346  11.659  47.710  1.00  0.00     0.239 C 
HETATM   16  C15 UNL     1      28.178  13.360  48.579  1.00  0.00     0.346 C 
HETATM   17  O2  UNL     1      29.451  13.001  48.146  1.00  0.00    -0.345 OA
BRANCH  15  18
HETATM   18  S1  UNL     1      30.958  10.844  47.708  1.00  0.00    -0.144 SA
HETATM   19  H24 UNL     1      30.907   9.516  48.110  1.00  0.00     0.104 HD
ENDBRANCH  15  18
ENDBRANCH  11  12
ENDBRANCH  10  11
ENDBRANCH   8  10
ENDBRANCH   7   8
ENDBRANCH   4   7
BRANCH   1  20
HETATM   20  C7  UNL     1      24.619   1.547  52.185  1.00  0.00     0.129 A 
HETATM   21  C6  UNL     1      25.824   0.896  52.124  1.00  0.00     0.082 A 
HETATM   22  C5  UNL     1      25.989  -0.333  52.774  1.00  0.00     0.061 A 
HETATM   23  N5  UNL     1      24.927  -0.816  53.437  1.00  0.00    -0.242 NA
HETATM   24  C19 UNL     1      23.743  -0.187  53.501  1.00  0.00     0.235 A 
HETATM   25  N4  UNL     1      23.590   1.012  52.865  1.00  0.00    -0.225 NA
BRANCH  22  26
HETATM   26  C4  UNL     1      27.270  -1.021  52.708  1.00  0.00     0.027 C 
HETATM   27  C3  UNL     1      28.305  -0.770  53.488  1.00  0.00    -0.025 C 
BRANCH  27  28
HETATM   28  C2  UNL     1      28.595   0.164  54.600  1.00  0.00     0.022 C 
HETATM   29  C1  UNL     1      29.030   1.528  54.062  1.00  0.00     0.009 C 
ENDBRANCH  27  28
ENDBRANCH  22  26
ENDBRANCH   1  20
TORSDOF 9
ENDMDL
MODEL 5
REMARK VINA RESULT:      -6.9      3.250      4.230
REMARK  9 active torsions:
REMARK  status: ('A' for Active; 'I' for Inactive)
REMARK    1  A    between atoms: C2_2  and  C3_3 
REMARK    2  A    between atoms: C4_4  and  C5_5 
REMARK    3  A    between atoms: C7_7  and  N1_8 
REMARK    4  A    between atoms: N2_11  and  C10_12 
REMARK    5  A    between atoms: C10_12  and  N3_13 
REMARK    6  A    between atoms: N3_13  and  C11_14 
REMARK    7  A    between atoms: C11_14  and  C12_15 
REMARK    8  A    between atoms: C12_15  and  C13_16 
REMARK    9  A    between atoms: C16_21  and  S1_22 
ROOT
HETATM    1  N1  UNL     1      23.074   1.031  52.485  1.00  0.00    -0.362 N 
HETATM    2  C8  UNL     1      23.192   2.483  52.465  1.00  0.00     0.154 C 
HETATM    3  C9  UNL     1      21.923   2.994  51.777  1.00  0.00     0.294 C 
HETATM    4  N2  UNL     1      21.956   2.430  50.439  1.00  0.00     0.119 N 
HETATM    5  C17 UNL     1      21.707   1.022  50.427  1.00  0.00     0.294 C 
HETATM    6  C18 UNL     1      21.982   0.417  51.788  1.00  0.00     0.154 C 
ENDROOT
BRANCH   4   7
HETATM    7  C10 UNL     1      21.140   3.189  49.508  1.00  0.00     0.539 C 
BRANCH   7   8
HETATM    8  N3  UNL     1      21.054   4.574  49.848  1.00  0.00     0.111 N 
HETATM    9  H15 UNL     1      20.075   4.831  50.144  1.00  0.00     0.318 HD
BRANCH   8  10
HETATM   10  C11 UNL     1      21.336   5.405  48.695  1.00  0.00     0.275 C 
BRANCH  10  11
HETATM   11  C12 UNL     1      22.545   4.945  47.908  1.00  0.00     0.060 C 
BRANCH  11  12
HETATM   12  C13 UNL     1      23.792   5.559  48.376  1.00  0.00     0.011 C 
HETATM   13  C14 UNL     1      24.770   4.938  49.009  1.00  0.00     0.084 C 
HETATM   14  O1  UNL     1      24.868   3.604  49.378  1.00  0.00    -0.327 OA
HETATM   15  C16 UNL     1      26.032   5.563  49.481  1.00  0.00     0.239 C 
HETATM   16  C15 UNL     1      26.261   3.339  49.589  1.00  0.00     0.346 C 
HETATM   17  O2  UNL     1      26.940   4.504  49.248  1.00  0.00    -0.345 OA
BRANCH  15  18
HETATM   18  S1  UNL     1      26.484   7.035  48.537  1.00  0.00    -0.144 SA
HETATM   19  H24 UNL     1      25.630   7.295  47.474  1.00  0.00     0.104 HD
ENDBRANCH  15  18
ENDBRANCH  11  12
ENDBRANCH  10  11
ENDBRANCH   8  10
ENDBRANCH   7   8
ENDBRANCH   4   7
BRANCH   1  20
HETATM   20  C7  UNL     1      24.042   0.263  53.194  1.00  0.00     0.129 A 
HETATM   21  C6  UNL     1      25.322   0.137  52.719  1.00  0.00     0.082 A 
HETATM   22  C5  UNL     1      26.260  -0.623  53.428  1.00  0.00     0.061 A 
HETATM   23  N5  UNL     1      25.839  -1.199  54.565  1.00  0.00    -0.242 NA
HETATM   24  C19 UNL     1      24.589  -1.082  55.038  1.00  0.00     0.235 A 
HETATM   25  N4  UNL     1      23.680  -0.339  54.340  1.00  0.00    -0.225 NA
BRANCH  22  26
HETATM   26  C4  UNL     1      27.618  -0.754  52.921  1.00  0.00     0.027 C 
HETATM   27  C3  UNL     1      28.648  -0.028  53.318  1.00  0.00    -0.025 C 
BRANCH  27  28
HETATM   28  C2  UNL     1      28.864   1.066  54.292  1.00  0.00     0.022 C 
HETATM   29  C1  UNL     1      28.607   2.427  53.643  1.00  0.00     0.009 C 
ENDBRANCH  27  28
ENDBRANCH  22  26
ENDBRANCH   1  20
TORSDOF 9
ENDMDL
MODEL 6
REMARK VINA RESULT:      -6.8      4.054      8.299
REMARK  9 active torsions:
REMARK  status: ('A' for Active; 'I' for Inactive)
REMARK    1  A    between atoms: C2_2  and  C3_3 
REMARK    2  A    between atoms: C4_4  and  C5_5 
REMARK    3  A    between atoms: C7_7  and  N1_8 
REMARK    4  A    between atoms: N2_11  and  C10_12 
REMARK    5  A    between atoms: C10_12  and  N3_13 
REMARK    6  A    between atoms: N3_13  and  C11_14 
REMARK    7  A    between atoms: C11_14  and  C12_15 
REMARK    8  A    between atoms: C12_15  and  C13_16 
REMARK    9  A    between atoms: C16_21  and  S1_22 
ROOT
HETATM    1  N1  UNL     1      27.133   5.938  48.546  1.00  0.00    -0.362 N 
HETATM    2  C8  UNL     1      26.953   4.545  48.936  1.00  0.00     0.154 C 
HETATM    3  C9  UNL     1      25.470   4.402  49.290  1.00  0.00     0.294 C 
HETATM    4  N2  UNL     1      25.250   5.308  50.404  1.00  0.00     0.119 N 
HETATM    5  C17 UNL     1      25.290   6.682  50.013  1.00  0.00     0.294 C 
HETATM    6  C18 UNL     1      26.036   6.847  48.705  1.00  0.00     0.154 C 
ENDROOT
BRANCH   4   7
HETATM    7  C10 UNL     1      24.080   4.941  51.182  1.00  0.00     0.539 C 
BRANCH   7   8
HETATM    8  N3  UNL     1      24.410   4.248  52.386  1.00  0.00     0.111 N 
HETATM    9  H15 UNL     1      25.381   3.839  52.335  1.00  0.00     0.318 HD
BRANCH   8  10
HETATM   10  C11 UNL     1      23.528   3.116  52.587  1.00  0.00     0.275 C 
BRANCH  10  11
HETATM   11  C12 UNL     1      24.040   1.839  51.955  1.00  0.00     0.060 C 
BRANCH  11  12
HETATM   12  C13 UNL     1      24.007   0.699  52.876  1.00  0.00     0.011 C 
HETATM   13  C14 UNL     1      25.027   0.245  53.582  1.00  0.00     0.084 C 
HETATM   14  O1  UNL     1      26.334   0.708  53.632  1.00  0.00    -0.327 OA
HETATM   15  C16 UNL     1      24.991  -0.911  54.514  1.00  0.00     0.239 C 
HETATM   16  C15 UNL     1      26.898   0.213  54.853  1.00  0.00     0.346 C 
HETATM   17  O2  UNL     1      25.872  -0.449  55.520  1.00  0.00    -0.345 OA
BRANCH  15  18
HETATM   18  S1  UNL     1      23.342  -1.225  55.180  1.00  0.00    -0.144 SA
HETATM   19  H24 UNL     1      22.653  -2.223  54.505  1.00  0.00     0.104 HD
ENDBRANCH  15  18
ENDBRANCH  11  12
ENDBRANCH  10  11
ENDBRANCH   8  10
ENDBRANCH   7   8
ENDBRANCH   4   7
BRANCH   1  20
HETATM   20  C7  UNL     1      28.388   6.356  48.018  1.00  0.00     0.129 A 
HETATM   21  C6  UNL     1      29.552   5.742  48.406  1.00  0.00     0.082 A 
HETATM   22  C5  UNL     1      30.777   6.167  47.877  1.00  0.00     0.061 A 
HETATM   23  N5  UNL     1      30.739   7.180  46.998  1.00  0.00    -0.242 NA
HETATM   24  C19 UNL     1      29.606   7.788  46.613  1.00  0.00     0.235 A 
HETATM   25  N4  UNL     1      28.415   7.367  47.133  1.00  0.00    -0.225 NA
BRANCH  22  26
HETATM   26  C4  UNL     1      32.009   5.513  48.290  1.00  0.00     0.027 C 
HETATM   27  C3  UNL     1      32.426   4.338  47.853  1.00  0.00    -0.025 C 
BRANCH  27  28
HETATM   28  C2  UNL     1      31.922   3.318  46.905  1.00  0.00     0.022 C 
HETATM   29  C1  UNL     1      32.949   2.201  46.716  1.00  0.00     0.009 C 
ENDBRANCH  27  28
ENDBRANCH  22  26
ENDBRANCH   1  20
TORSDOF 9
ENDMDL
MODEL 7
REMARK VINA RESULT:      -6.6      4.020      8.225
REMARK  9 active torsions:
REMARK  status: ('A' for Active; 'I' for Inactive)
REMARK    1  A    between atoms: C2_2  and  C3_3 
REMARK    2  A    between atoms: C4_4  and  C5_5 
REMARK    3  A    between atoms: C7_7  and  N1_8 
REMARK    4  A    between atoms: N2_11  and  C10_12 
REMARK    5  A    between atoms: C10_12  and  N3_13 
REMARK    6  A    between atoms: N3_13  and  C11_14 
REMARK    7  A    between atoms: C11_14  and  C12_15 
REMARK    8  A    between atoms: C12_15  and  C13_16 
REMARK    9  A    between atoms: C16_21  and  S1_22 
ROOT
HETATM    1  N1  UNL     1      27.655   6.265  48.681  1.00  0.00    -0.362 N 
HETATM    2  C8  UNL     1      27.061   4.953  48.907  1.00  0.00     0.154 C 
HETATM    3  C9  UNL     1      25.555   5.196  49.038  1.00  0.00     0.294 C 
HETATM    4  N2  UNL     1      25.402   6.065  50.191  1.00  0.00     0.119 N 
HETATM    5  C17 UNL     1      25.858   7.398  49.942  1.00  0.00     0.294 C 
HETATM    6  C18 UNL     1      26.820   7.426  48.772  1.00  0.00     0.154 C 
ENDROOT
BRANCH   4   7
HETATM    7  C10 UNL     1      24.070   5.986  50.760  1.00  0.00     0.539 C 
BRANCH   7   8
HETATM    8  N3  UNL     1      24.079   5.916  52.187  1.00  0.00     0.111 N 
HETATM    9  H15 UNL     1      25.051   5.723  52.551  1.00  0.00     0.318 HD
BRANCH   8  10
HETATM   10  C11 UNL     1      23.269   4.809  52.653  1.00  0.00     0.275 C 
BRANCH  10  11
HETATM   11  C12 UNL     1      23.495   3.532  51.872  1.00  0.00     0.060 C 
BRANCH  11  12
HETATM   12  C13 UNL     1      24.589   2.721  52.418  1.00  0.00     0.011 C 
HETATM   13  C14 UNL     1      24.458   1.558  53.028  1.00  0.00     0.084 C 
HETATM   14  O1  UNL     1      23.307   0.833  53.298  1.00  0.00    -0.327 OA
HETATM   15  C16 UNL     1      25.568   0.739  53.580  1.00  0.00     0.239 C 
HETATM   16  C15 UNL     1      23.719  -0.521  53.524  1.00  0.00     0.346 C 
HETATM   17  O2  UNL     1      25.090  -0.561  53.291  1.00  0.00    -0.345 OA
BRANCH  15  18
HETATM   18  S1  UNL     1      27.148   1.053  52.762  1.00  0.00    -0.144 SA
HETATM   19  H24 UNL     1      27.959   1.946  53.448  1.00  0.00     0.104 HD
ENDBRANCH  15  18
ENDBRANCH  11  12
ENDBRANCH  10  11
ENDBRANCH   8  10
ENDBRANCH   7   8
ENDBRANCH   4   7
BRANCH   1  20
HETATM   20  C7  UNL     1      29.044   6.357  48.375  1.00  0.00     0.129 A 
HETATM   21  C6  UNL     1      29.736   5.263  47.923  1.00  0.00     0.082 A 
HETATM   22  C5  UNL     1      31.100   5.372  47.627  1.00  0.00     0.061 A 
HETATM   23  N5  UNL     1      31.666   6.575  47.810  1.00  0.00    -0.242 NA
HETATM   24  C19 UNL     1      30.997   7.651  48.253  1.00  0.00     0.235 A 
HETATM   25  N4  UNL     1      29.667   7.537  48.538  1.00  0.00    -0.225 NA
BRANCH  22  26
HETATM   26  C4  UNL     1      31.832   4.209  47.147  1.00  0.00     0.027 C 
HETATM   27  C3  UNL     1      32.686   4.215  46.139  1.00  0.00    -0.025 C 
BRANCH  27  28
HETATM   28  C2  UNL     1      33.207   5.229  45.195  1.00  0.00     0.022 C 
HETATM   29  C1  UNL     1      33.276   4.663  43.776  1.00  0.00     0.009 C 
ENDBRANCH  27  28
ENDBRANCH  22  26
ENDBRANCH   1  20
TORSDOF 9
ENDMDL
MODEL 8
REMARK VINA RESULT:      -6.6      4.021      6.267
REMARK  9 active torsions:
REMARK  status: ('A' for Active; 'I' for Inactive)
REMARK    1  A    between atoms: C2_2  and  C3_3 
REMARK    2  A    between atoms: C4_4  and  C5_5 
REMARK    3  A    between atoms: C7_7  and  N1_8 
REMARK    4  A    between atoms: N2_11  and  C10_12 
REMARK    5  A    between atoms: C10_12  and  N3_13 
REMARK    6  A    between atoms: N3_13  and  C11_14 
REMARK    7  A    between atoms: C11_14  and  C12_15 
REMARK    8  A    between atoms: C12_15  and  C13_16 
REMARK    9  A    between atoms: C16_21  and  S1_22 
ROOT
HETATM    1  N1  UNL     1      25.102   0.886  53.141  1.00  0.00    -0.362 N 
HETATM    2  C8  UNL     1      26.167   0.354  52.301  1.00  0.00     0.154 C 
HETATM    3  C9  UNL     1      26.880   1.574  51.711  1.00  0.00     0.294 C 
HETATM    4  N2  UNL     1      25.873   2.271  50.931  1.00  0.00     0.119 N 
HETATM    5  C17 UNL     1      24.890   2.914  51.747  1.00  0.00     0.294 C 
HETATM    6  C18 UNL     1      24.854   2.298  53.130  1.00  0.00     0.154 C 
ENDROOT
BRANCH   4   7
HETATM    7  C10 UNL     1      26.463   3.127  49.919  1.00  0.00     0.539 C 
BRANCH   7   8
HETATM    8  N3  UNL     1      26.269   4.517  50.187  1.00  0.00     0.111 N 
HETATM    9  H15 UNL     1      25.271   4.713  50.470  1.00  0.00     0.318 HD
BRANCH   8  10
HETATM   10  C11 UNL     1      26.491   5.307  48.993  1.00  0.00     0.275 C 
BRANCH  10  11
HETATM   11  C12 UNL     1      25.548   6.486  48.872  1.00  0.00     0.060 C 
BRANCH  11  12
HETATM   12  C13 UNL     1      24.181   6.084  48.528  1.00  0.00     0.011 C 
HETATM   13  C14 UNL     1      23.222   5.789  49.388  1.00  0.00     0.084 C 
HETATM   14  O1  UNL     1      23.259   5.784  50.774  1.00  0.00    -0.327 OA
HETATM   15  C16 UNL     1      21.838   5.380  49.036  1.00  0.00     0.239 C 
HETATM   16  C15 UNL     1      21.899   5.869  51.220  1.00  0.00     0.346 C 
HETATM   17  O2  UNL     1      21.118   6.012  50.077  1.00  0.00    -0.345 OA
BRANCH  15  18
HETATM   18  S1  UNL     1      21.316   5.987  47.417  1.00  0.00    -0.144 SA
HETATM   19  H24 UNL     1      22.175   6.933  46.876  1.00  0.00     0.104 HD
ENDBRANCH  15  18
ENDBRANCH  11  12
ENDBRANCH  10  11
ENDBRANCH   8  10
ENDBRANCH   7   8
ENDBRANCH   4   7
BRANCH   1  20
HETATM   20  C7  UNL     1      24.341  -0.007  53.949  1.00  0.00     0.129 A 
HETATM   21  C6  UNL     1      23.022  -0.256  53.667  1.00  0.00     0.082 A 
HETATM   22  C5  UNL     1      22.288  -1.136  54.472  1.00  0.00     0.061 A 
HETATM   23  N5  UNL     1      22.938  -1.699  55.503  1.00  0.00    -0.242 NA
HETATM   24  C19 UNL     1      24.228  -1.461  55.787  1.00  0.00     0.235 A 
HETATM   25  N4  UNL     1      24.936  -0.602  54.997  1.00  0.00    -0.225 NA
BRANCH  22  26
HETATM   26  C4  UNL     1      20.890  -1.399  54.169  1.00  0.00     0.027 C 
HETATM   27  C3  UNL     1      20.100  -0.596  53.479  1.00  0.00    -0.025 C 
BRANCH  27  28
HETATM   28  C2  UNL     1      20.244   0.716  52.810  1.00  0.00     0.022 C 
HETATM   29  C1  UNL     1      20.213   0.555  51.289  1.00  0.00     0.009 C 
ENDBRANCH  27  28
ENDBRANCH  22  26
ENDBRANCH   1  20
TORSDOF 9
ENDMDL
MODEL 9
REMARK VINA RESULT:      -6.5      2.612      3.511
REMARK  9 active torsions:
REMARK  status: ('A' for Active; 'I' for Inactive)
REMARK    1  A    between atoms: C2_2  and  C3_3 
REMARK    2  A    between atoms: C4_4  and  C5_5 
REMARK    3  A    between atoms: C7_7  and  N1_8 
REMARK    4  A    between atoms: N2_11  and  C10_12 
REMARK    5  A    between atoms: C10_12  and  N3_13 
REMARK    6  A    between atoms: N3_13  and  C11_14 
REMARK    7  A    between atoms: C11_14  and  C12_15 
REMARK    8  A    between atoms: C12_15  and  C13_16 
REMARK    9  A    between atoms: C16_21  and  S1_22 
ROOT
HETATM    1  N1  UNL     1      24.934   2.513  52.304  1.00  0.00    -0.362 N 
HETATM    2  C8  UNL     1      25.505   2.653  50.971  1.00  0.00     0.154 C 
HETATM    3  C9  UNL     1      25.003   4.000  50.443  1.00  0.00     0.294 C 
HETATM    4  N2  UNL     1      23.556   3.883  50.401  1.00  0.00     0.119 N 
HETATM    5  C17 UNL     1      22.965   3.879  51.703  1.00  0.00     0.294 C 
HETATM    6  C18 UNL     1      23.983   3.488  52.753  1.00  0.00     0.154 C 
ENDROOT
BRANCH   4   7
HETATM    7  C10 UNL     1      22.959   4.829  49.476  1.00  0.00     0.539 C 
BRANCH   7   8
HETATM    8  N3  UNL     1      22.789   6.129  50.046  1.00  0.00     0.111 N 
HETATM    9  H15 UNL     1      21.835   6.227  50.486  1.00  0.00     0.318 HD
BRANCH   8  10
HETATM   10  C11 UNL     1      22.846   7.152  49.022  1.00  0.00     0.275 C 
BRANCH  10  11
HETATM   11  C12 UNL     1      23.488   6.674  47.736  1.00  0.00     0.060 C 
BRANCH  11  12
HETATM   12  C13 UNL     1      24.601   7.528  47.309  1.00  0.00     0.011 C 
HETATM   13  C14 UNL     1      25.847   7.445  47.738  1.00  0.00     0.084 C 
HETATM   14  O1  UNL     1      26.400   6.570  48.662  1.00  0.00    -0.327 OA
HETATM   15  C16 UNL     1      26.974   8.311  47.304  1.00  0.00     0.239 C 
HETATM   16  C15 UNL     1      27.814   6.566  48.426  1.00  0.00     0.346 C 
HETATM   17  O2  UNL     1      28.031   7.372  47.313  1.00  0.00    -0.345 OA
BRANCH  15  18
HETATM   18  S1  UNL     1      26.729   9.009  45.656  1.00  0.00    -0.144 SA
HETATM   19  H24 UNL     1      26.092   8.144  44.777  1.00  0.00     0.104 HD
ENDBRANCH  15  18
ENDBRANCH  11  12
ENDBRANCH  10  11
ENDBRANCH   8  10
ENDBRANCH   7   8
ENDBRANCH   4   7
BRANCH   1  20
HETATM   20  C7  UNL     1      25.334   1.417  53.122  1.00  0.00     0.129 A 
HETATM   21  C6  UNL     1      26.602   1.356  53.640  1.00  0.00     0.082 A 
HETATM   22  C5  UNL     1      26.978   0.271  54.441  1.00  0.00     0.061 A 
HETATM   23  N5  UNL     1      26.049  -0.672  54.660  1.00  0.00    -0.242 NA
HETATM   24  C19 UNL     1      24.806  -0.622  54.156  1.00  0.00     0.235 A 
HETATM   25  N4  UNL     1      24.447   0.440  53.376  1.00  0.00    -0.225 NA
BRANCH  22  26
HETATM   26  C4  UNL     1      28.324   0.209  54.991  1.00  0.00     0.027 C 
HETATM   27  C3  UNL     1      29.356  -0.369  54.404  1.00  0.00    -0.025 C 
BRANCH  27  28
HETATM   28  C2  UNL     1      29.586  -1.098  53.136  1.00  0.00     0.022 C 
HETATM   29  C1  UNL     1      29.060  -2.531  53.232  1.00  0.00     0.009 C 
ENDBRANCH  27  28
ENDBRANCH  22  26
ENDBRANCH   1  20
TORSDOF 9
ENDMDL
