MODEL 1
REMARK VINA RESULT:      -8.1      0.000      0.000
REMARK  5 active torsions:
REMARK  status: ('A' for Active; 'I' for Inactive)
REMARK    1  A    between atoms: C3_3  and  C4_4 
REMARK    2  A    between atoms: C5_5  and  C6_6 
REMARK    3  A    between atoms: C6_6  and  N1_7 
REMARK    4  A    between atoms: N1_7  and  C7_8 
REMARK    5  A    between atoms: C14_18  and  O1_19 
ROOT
HETATM    1  C7  UNL     1      26.834   0.174  54.761  1.00  0.00     0.156 A 
HETATM    2  N2  UNL     1      28.125  -0.171  54.896  1.00  0.00    -0.222 NA
HETATM    3  C8  UNL     1      29.104   0.313  54.135  1.00  0.00     0.238 A 
HETATM    4  N3  UNL     1      28.861   1.198  53.160  1.00  0.00    -0.215 NA
HETATM    5  C9  UNL     1      27.596   1.616  52.937  1.00  0.00     0.202 A 
HETATM    6  C10 UNL     1      26.608   1.073  53.767  1.00  0.00     0.128 A 
HETATM    7  N4  UNL     1      25.227   1.398  53.661  1.00  0.00    -0.379 N 
HETATM    8  C11 UNL     1      24.600   2.598  53.143  1.00  0.00     0.161 C 
HETATM    9  C12 UNL     1      25.030   2.913  51.769  1.00  0.00    -0.004 A 
HETATM   10  C13 UNL     1      23.962   3.276  50.979  1.00  0.00     0.048 A 
HETATM   11  C14 UNL     1      24.121   3.613  49.657  1.00  0.00     0.069 A 
HETATM   12  C16 UNL     1      25.412   3.579  49.121  1.00  0.00     0.039 A 
HETATM   13  C17 UNL     1      26.505   3.218  49.892  1.00  0.00     0.040 A 
HETATM   14  C18 UNL     1      26.315   2.879  51.235  1.00  0.00     0.086 A 
HETATM   15  O2  UNL     1      27.486   2.538  51.892  1.00  0.00    -0.289 OA
HETATM   16  H12 UNL     1      24.613   0.631  54.015  1.00  0.00     0.160 HD
ENDROOT
BRANCH   1  17
HETATM   17  N1  UNL     1      25.836  -0.368  55.608  1.00  0.00    -0.369 N 
HETATM   18  H10 UNL     1      25.580  -0.251  56.586  1.00  0.00     0.161 HD
BRANCH  17  19
HETATM   19  C6  UNL     1      24.938  -1.327  54.999  1.00  0.00     0.148 C 
BRANCH  19  20
HETATM   20  C5  UNL     1      23.546  -1.244  55.463  1.00  0.00    -0.007 C 
HETATM   21  C4  UNL     1      22.396  -1.075  54.833  1.00  0.00    -0.003 C 
BRANCH  21  22
HETATM   22  C3  UNL     1      22.353  -0.927  53.404  1.00  0.00    -0.005 C 
HETATM   23  C2  UNL     1      21.748   0.119  52.866  1.00  0.00    -0.031 C 
HETATM   24  C1  UNL     1      21.616   0.415  51.423  1.00  0.00     0.036 C 
ENDBRANCH  21  22
ENDBRANCH  19  20
ENDBRANCH  17  19
ENDBRANCH   1  17
BRANCH  11  25
HETATM   25  O1  UNL     1      23.203   4.001  48.702  1.00  0.00    -0.356 OA
HETATM   26  C15 UNL     1      22.399   3.018  48.086  1.00  0.00     0.210 C 
ENDBRANCH  11  25
TORSDOF 5
ENDMDL
MODEL 2
REMARK VINA RESULT:      -8.0      3.008      6.723
REMARK  5 active torsions:
REMARK  status: ('A' for Active; 'I' for Inactive)
REMARK    1  A    between atoms: C3_3  and  C4_4 
REMARK    2  A    between atoms: C5_5  and  C6_6 
REMARK    3  A    between atoms: C6_6  and  N1_7 
REMARK    4  A    between atoms: N1_7  and  C7_8 
REMARK    5  A    between atoms: C14_18  and  O1_19 
ROOT
HETATM    1  C7  UNL     1      26.075   2.403  51.921  1.00  0.00     0.156 A 
HETATM    2  N2  UNL     1      27.268   2.032  52.413  1.00  0.00    -0.222 NA
HETATM    3  C8  UNL     1      27.476   0.897  53.074  1.00  0.00     0.238 A 
HETATM    4  N3  UNL     1      26.484   0.025  53.298  1.00  0.00    -0.215 NA
HETATM    5  C9  UNL     1      25.241   0.297  52.846  1.00  0.00     0.202 A 
HETATM    6  C10 UNL     1      25.082   1.506  52.158  1.00  0.00     0.128 A 
HETATM    7  N4  UNL     1      23.839   1.949  51.625  1.00  0.00    -0.379 N 
HETATM    8  C11 UNL     1      22.690   1.175  51.200  1.00  0.00     0.161 C 
HETATM    9  C12 UNL     1      22.194   0.273  52.255  1.00  0.00    -0.004 A 
HETATM   10  C13 UNL     1      20.821   0.308  52.341  1.00  0.00     0.048 A 
HETATM   11  C14 UNL     1      20.133  -0.451  53.257  1.00  0.00     0.069 A 
HETATM   12  C16 UNL     1      20.870  -1.275  54.114  1.00  0.00     0.039 A 
HETATM   13  C17 UNL     1      22.253  -1.330  54.049  1.00  0.00     0.040 A 
HETATM   14  C18 UNL     1      22.928  -0.547  53.108  1.00  0.00     0.086 A 
HETATM   15  O2  UNL     1      24.305  -0.695  53.149  1.00  0.00    -0.289 OA
HETATM   16  H12 UNL     1      23.791   2.990  51.551  1.00  0.00     0.160 HD
ENDROOT
BRANCH   1  17
HETATM   17  N1  UNL     1      25.916   3.622  51.217  1.00  0.00    -0.369 N 
HETATM   18  H10 UNL     1      25.524   4.536  51.436  1.00  0.00     0.161 HD
BRANCH  17  19
HETATM   19  C6  UNL     1      26.400   3.635  49.851  1.00  0.00     0.148 C 
BRANCH  19  20
HETATM   20  C5  UNL     1      26.357   4.951  49.198  1.00  0.00    -0.007 C 
HETATM   21  C4  UNL     1      27.256   5.655  48.532  1.00  0.00    -0.003 C 
BRANCH  21  22
HETATM   22  C3  UNL     1      28.586   5.149  48.332  1.00  0.00    -0.005 C 
HETATM   23  C2  UNL     1      29.583   5.988  48.099  1.00  0.00    -0.031 C 
HETATM   24  C1  UNL     1      31.001   5.630  47.872  1.00  0.00     0.036 C 
ENDBRANCH  21  22
ENDBRANCH  19  20
ENDBRANCH  17  19
ENDBRANCH   1  17
BRANCH  11  25
HETATM   25  O1  UNL     1      18.780  -0.566  53.508  1.00  0.00    -0.356 OA
HETATM   26  C15 UNL     1      18.191  -1.849  53.513  1.00  0.00     0.210 C 
ENDBRANCH  11  25
TORSDOF 5
ENDMDL
MODEL 3
REMARK VINA RESULT:      -8.0      2.765      6.174
REMARK  5 active torsions:
REMARK  status: ('A' for Active; 'I' for Inactive)
REMARK    1  A    between atoms: C3_3  and  C4_4 
REMARK    2  A    between atoms: C5_5  and  C6_6 
REMARK    3  A    between atoms: C6_6  and  N1_7 
REMARK    4  A    between atoms: N1_7  and  C7_8 
REMARK    5  A    between atoms: C14_18  and  O1_19 
ROOT
HETATM    1  C7  UNL     1      26.449   2.474  51.770  1.00  0.00     0.156 A 
HETATM    2  N2  UNL     1      27.647   2.156  52.288  1.00  0.00    -0.222 NA
HETATM    3  C8  UNL     1      27.864   1.084  53.047  1.00  0.00     0.238 A 
HETATM    4  N3  UNL     1      26.879   0.231  53.353  1.00  0.00    -0.215 NA
HETATM    5  C9  UNL     1      25.631   0.454  52.883  1.00  0.00     0.202 A 
HETATM    6  C10 UNL     1      25.463   1.596  52.091  1.00  0.00     0.128 A 
HETATM    7  N4  UNL     1      24.215   1.982  51.526  1.00  0.00    -0.379 N 
HETATM    8  C11 UNL     1      23.069   1.167  51.177  1.00  0.00     0.161 C 
HETATM    9  C12 UNL     1      22.583   0.360  52.311  1.00  0.00    -0.004 A 
HETATM   10  C13 UNL     1      21.210   0.395  52.400  1.00  0.00     0.048 A 
HETATM   11  C14 UNL     1      20.530  -0.284  53.382  1.00  0.00     0.069 A 
HETATM   12  C16 UNL     1      21.275  -1.023  54.306  1.00  0.00     0.039 A 
HETATM   13  C17 UNL     1      22.658  -1.076  54.241  1.00  0.00     0.040 A 
HETATM   14  C18 UNL     1      23.325  -0.376  53.231  1.00  0.00     0.086 A 
HETATM   15  O2  UNL     1      24.703  -0.513  53.278  1.00  0.00    -0.289 OA
HETATM   16  H12 UNL     1      24.160   3.012  51.360  1.00  0.00     0.160 HD
ENDROOT
BRANCH   1  17
HETATM   17  N1  UNL     1      26.280   3.624  50.961  1.00  0.00    -0.369 N 
HETATM   18  H10 UNL     1      26.023   4.594  51.131  1.00  0.00     0.161 HD
BRANCH  17  19
HETATM   19  C6  UNL     1      26.505   3.441  49.541  1.00  0.00     0.148 C 
BRANCH  19  20
HETATM   20  C5  UNL     1      27.327   4.485  48.912  1.00  0.00    -0.007 C 
HETATM   21  C4  UNL     1      27.098   5.751  48.611  1.00  0.00    -0.003 C 
BRANCH  21  22
HETATM   22  C3  UNL     1      25.829   6.360  48.903  1.00  0.00    -0.005 C 
HETATM   23  C2  UNL     1      25.691   7.117  49.980  1.00  0.00    -0.031 C 
HETATM   24  C1  UNL     1      24.460   7.809  50.419  1.00  0.00     0.036 C 
ENDBRANCH  21  22
ENDBRANCH  19  20
ENDBRANCH  17  19
ENDBRANCH   1  17
BRANCH  11  25
HETATM   25  O1  UNL     1      19.179  -0.383  53.649  1.00  0.00    -0.356 OA
HETATM   26  C15 UNL     1      18.301  -0.756  52.609  1.00  0.00     0.210 C 
ENDBRANCH  11  25
TORSDOF 5
ENDMDL
MODEL 4
REMARK VINA RESULT:      -7.9      2.829      6.398
REMARK  5 active torsions:
REMARK  status: ('A' for Active; 'I' for Inactive)
REMARK    1  A    between atoms: C3_3  and  C4_4 
REMARK    2  A    between atoms: C5_5  and  C6_6 
REMARK    3  A    between atoms: C6_6  and  N1_7 
REMARK    4  A    between atoms: N1_7  and  C7_8 
REMARK    5  A    between atoms: C14_18  and  O1_19 
ROOT
HETATM    1  C7  UNL     1      23.212   4.213  52.492  1.00  0.00     0.156 A 
HETATM    2  N2  UNL     1      21.922   4.074  52.147  1.00  0.00    -0.222 NA
HETATM    3  C8  UNL     1      21.288   2.905  52.109  1.00  0.00     0.238 A 
HETATM    4  N3  UNL     1      21.909   1.760  52.420  1.00  0.00    -0.215 NA
HETATM    5  C9  UNL     1      23.210   1.783  52.783  1.00  0.00     0.202 A 
HETATM    6  C10 UNL     1      23.825   3.041  52.805  1.00  0.00     0.128 A 
HETATM    7  N4  UNL     1      25.189   3.242  53.155  1.00  0.00    -0.379 N 
HETATM    8  C11 UNL     1      26.052   2.438  53.997  1.00  0.00     0.161 C 
HETATM    9  C12 UNL     1      26.119   1.032  53.560  1.00  0.00    -0.004 A 
HETATM   10  C13 UNL     1      27.412   0.560  53.581  1.00  0.00     0.048 A 
HETATM   11  C14 UNL     1      27.719  -0.728  53.212  1.00  0.00     0.069 A 
HETATM   12  C16 UNL     1      26.672  -1.562  52.807  1.00  0.00     0.039 A 
HETATM   13  C17 UNL     1      25.361  -1.114  52.776  1.00  0.00     0.040 A 
HETATM   14  C18 UNL     1      25.077   0.201  53.157  1.00  0.00     0.086 A 
HETATM   15  O2  UNL     1      23.731   0.522  53.081  1.00  0.00    -0.289 OA
HETATM   16  H12 UNL     1      25.586   4.103  52.716  1.00  0.00     0.160 HD
ENDROOT
BRANCH   1  17
HETATM   17  N1  UNL     1      23.831   5.486  52.524  1.00  0.00    -0.369 N 
HETATM   18  H10 UNL     1      24.279   6.053  53.242  1.00  0.00     0.161 HD
BRANCH  17  19
HETATM   19  C6  UNL     1      23.863   6.210  51.269  1.00  0.00     0.148 C 
BRANCH  19  20
HETATM   20  C5  UNL     1      24.912   5.774  50.336  1.00  0.00    -0.007 C 
HETATM   21  C4  UNL     1      24.904   4.976  49.283  1.00  0.00    -0.003 C 
BRANCH  21  22
HETATM   22  C3  UNL     1      23.691   4.337  48.851  1.00  0.00    -0.005 C 
HETATM   23  C2  UNL     1      23.541   3.031  49.006  1.00  0.00    -0.031 C 
HETATM   24  C1  UNL     1      22.362   2.228  48.616  1.00  0.00     0.036 C 
ENDBRANCH  21  22
ENDBRANCH  19  20
ENDBRANCH  17  19
ENDBRANCH   1  17
BRANCH  11  25
HETATM   25  O1  UNL     1      28.926  -1.395  53.161  1.00  0.00    -0.356 OA
HETATM   26  C15 UNL     1      30.104  -0.708  53.528  1.00  0.00     0.210 C 
ENDBRANCH  11  25
TORSDOF 5
ENDMDL
MODEL 5
REMARK VINA RESULT:      -7.5      3.522      5.681
REMARK  5 active torsions:
REMARK  status: ('A' for Active; 'I' for Inactive)
REMARK    1  A    between atoms: C3_3  and  C4_4 
REMARK    2  A    between atoms: C5_5  and  C6_6 
REMARK    3  A    between atoms: C6_6  and  N1_7 
REMARK    4  A    between atoms: N1_7  and  C7_8 
REMARK    5  A    between atoms: C14_18  and  O1_19 
ROOT
HETATM    1  C7  UNL     1      23.747   4.522  51.943  1.00  0.00     0.156 A 
HETATM    2  N2  UNL     1      22.544   5.109  52.059  1.00  0.00    -0.222 NA
HETATM    3  C8  UNL     1      22.081   6.021  51.209  1.00  0.00     0.238 A 
HETATM    4  N3  UNL     1      22.799   6.425  50.155  1.00  0.00    -0.215 NA
HETATM    5  C9  UNL     1      24.025   5.900  49.940  1.00  0.00     0.202 A 
HETATM    6  C10 UNL     1      24.461   4.945  50.867  1.00  0.00     0.128 A 
HETATM    7  N4  UNL     1      25.727   4.300  50.794  1.00  0.00    -0.379 N 
HETATM    8  C11 UNL     1      26.568   4.048  49.641  1.00  0.00     0.161 C 
HETATM    9  C12 UNL     1      26.877   5.276  48.886  1.00  0.00    -0.004 A 
HETATM   10  C13 UNL     1      28.206   5.327  48.531  1.00  0.00     0.048 A 
HETATM   11  C14 UNL     1      28.726   6.382  47.822  1.00  0.00     0.069 A 
HETATM   12  C16 UNL     1      27.862   7.421  47.462  1.00  0.00     0.039 A 
HETATM   13  C17 UNL     1      26.521   7.397  47.806  1.00  0.00     0.040 A 
HETATM   14  C18 UNL     1      26.017   6.311  48.528  1.00  0.00     0.086 A 
HETATM   15  O2  UNL     1      24.664   6.410  48.807  1.00  0.00    -0.289 OA
HETATM   16  H12 UNL     1      26.063   3.984  51.732  1.00  0.00     0.160 HD
ENDROOT
BRANCH   1  17
HETATM   17  N1  UNL     1      24.183   3.549  52.875  1.00  0.00    -0.369 N 
HETATM   18  H10 UNL     1      24.782   3.557  53.699  1.00  0.00     0.161 HD
BRANCH  17  19
HETATM   19  C6  UNL     1      23.705   2.199  52.657  1.00  0.00     0.148 C 
BRANCH  19  20
HETATM   20  C5  UNL     1      24.659   1.143  53.025  1.00  0.00    -0.007 C 
HETATM   21  C4  UNL     1      24.518  -0.144  53.291  1.00  0.00    -0.003 C 
BRANCH  21  22
HETATM   22  C3  UNL     1      23.223  -0.767  53.248  1.00  0.00    -0.005 C 
HETATM   23  C2  UNL     1      22.508  -0.881  54.356  1.00  0.00    -0.031 C 
HETATM   24  C1  UNL     1      21.167  -1.494  54.480  1.00  0.00     0.036 C 
ENDBRANCH  21  22
ENDBRANCH  19  20
ENDBRANCH  17  19
ENDBRANCH   1  17
BRANCH  11  25
HETATM   25  O1  UNL     1      30.007   6.629  47.370  1.00  0.00    -0.356 OA
HETATM   26  C15 UNL     1      30.867   7.428  48.154  1.00  0.00     0.210 C 
ENDBRANCH  11  25
TORSDOF 5
ENDMDL
MODEL 6
REMARK VINA RESULT:      -7.4      2.834      6.525
REMARK  5 active torsions:
REMARK  status: ('A' for Active; 'I' for Inactive)
REMARK    1  A    between atoms: C3_3  and  C4_4 
REMARK    2  A    between atoms: C5_5  and  C6_6 
REMARK    3  A    between atoms: C6_6  and  N1_7 
REMARK    4  A    between atoms: N1_7  and  C7_8 
REMARK    5  A    between atoms: C14_18  and  O1_19 
ROOT
HETATM    1  C7  UNL     1      21.584   2.594  51.736  1.00  0.00     0.156 A 
HETATM    2  N2  UNL     1      20.548   1.774  51.495  1.00  0.00    -0.222 NA
HETATM    3  C8  UNL     1      20.567   0.466  51.738  1.00  0.00     0.238 A 
HETATM    4  N3  UNL     1      21.648  -0.136  52.249  1.00  0.00    -0.215 NA
HETATM    5  C9  UNL     1      22.749   0.595  52.532  1.00  0.00     0.202 A 
HETATM    6  C10 UNL     1      22.671   1.965  52.256  1.00  0.00     0.128 A 
HETATM    7  N4  UNL     1      23.741   2.874  52.485  1.00  0.00    -0.379 N 
HETATM    8  C11 UNL     1      24.836   2.790  53.430  1.00  0.00     0.161 C 
HETATM    9  C12 UNL     1      25.604   1.539  53.296  1.00  0.00    -0.004 A 
HETATM   10  C13 UNL     1      26.960   1.774  53.349  1.00  0.00     0.048 A 
HETATM   11  C14 UNL     1      27.876   0.756  53.243  1.00  0.00     0.069 A 
HETATM   12  C16 UNL     1      27.394  -0.547  53.078  1.00  0.00     0.039 A 
HETATM   13  C17 UNL     1      26.036  -0.812  53.022  1.00  0.00     0.040 A 
HETATM   14  C18 UNL     1      25.125   0.243  53.132  1.00  0.00     0.086 A 
HETATM   15  O2  UNL     1      23.801  -0.158  53.060  1.00  0.00    -0.289 OA
HETATM   16  H12 UNL     1      23.693   3.706  51.854  1.00  0.00     0.160 HD
ENDROOT
BRANCH   1  17
HETATM   17  N1  UNL     1      21.501   3.982  51.467  1.00  0.00    -0.369 N 
HETATM   18  H10 UNL     1      21.488   4.827  52.034  1.00  0.00     0.161 HD
BRANCH  17  19
HETATM   19  C6  UNL     1      21.404   4.354  50.070  1.00  0.00     0.148 C 
BRANCH  19  20
HETATM   20  C5  UNL     1      22.303   5.443  49.662  1.00  0.00    -0.007 C 
HETATM   21  C4  UNL     1      23.576   5.473  49.305  1.00  0.00    -0.003 C 
BRANCH  21  22
HETATM   22  C3  UNL     1      24.359   4.269  49.266  1.00  0.00    -0.005 C 
HETATM   23  C2  UNL     1      25.607   4.278  49.704  1.00  0.00    -0.031 C 
HETATM   24  C1  UNL     1      26.541   3.130  49.731  1.00  0.00     0.036 C 
ENDBRANCH  21  22
ENDBRANCH  19  20
ENDBRANCH  17  19
ENDBRANCH   1  17
BRANCH  11  25
HETATM   25  O1  UNL     1      29.256   0.769  53.271  1.00  0.00    -0.356 OA
HETATM   26  C15 UNL     1      29.946  -0.419  53.592  1.00  0.00     0.210 C 
ENDBRANCH  11  25
TORSDOF 5
ENDMDL
MODEL 7
REMARK VINA RESULT:      -7.3      3.112      5.622
REMARK  5 active torsions:
REMARK  status: ('A' for Active; 'I' for Inactive)
REMARK    1  A    between atoms: C3_3  and  C4_4 
REMARK    2  A    between atoms: C5_5  and  C6_6 
REMARK    3  A    between atoms: C6_6  and  N1_7 
REMARK    4  A    between atoms: N1_7  and  C7_8 
REMARK    5  A    between atoms: C14_18  and  O1_19 
ROOT
HETATM    1  C7  UNL     1      24.120   3.277  52.095  1.00  0.00     0.156 A 
HETATM    2  N2  UNL     1      22.855   3.625  52.381  1.00  0.00    -0.222 NA
HETATM    3  C8  UNL     1      22.170   4.543  51.706  1.00  0.00     0.238 A 
HETATM    4  N3  UNL     1      22.709   5.200  50.671  1.00  0.00    -0.215 NA
HETATM    5  C9  UNL     1      23.978   4.928  50.295  1.00  0.00     0.202 A 
HETATM    6  C10 UNL     1      24.650   3.952  51.042  1.00  0.00     0.128 A 
HETATM    7  N4  UNL     1      25.991   3.554  50.787  1.00  0.00    -0.379 N 
HETATM    8  C11 UNL     1      26.748   3.603  49.552  1.00  0.00     0.161 C 
HETATM    9  C12 UNL     1      26.779   4.952  48.960  1.00  0.00    -0.004 A 
HETATM   10  C13 UNL     1      28.042   5.279  48.521  1.00  0.00     0.048 A 
HETATM   11  C14 UNL     1      28.313   6.491  47.933  1.00  0.00     0.069 A 
HETATM   12  C16 UNL     1      27.261   7.402  47.789  1.00  0.00     0.039 A 
HETATM   13  C17 UNL     1      25.980   7.099  48.222  1.00  0.00     0.040 A 
HETATM   14  C18 UNL     1      25.732   5.858  48.816  1.00  0.00     0.086 A 
HETATM   15  O2  UNL     1      24.413   5.683  49.203  1.00  0.00    -0.289 OA
HETATM   16  H12 UNL     1      26.462   3.183  51.643  1.00  0.00     0.160 HD
ENDROOT
BRANCH   1  17
HETATM   17  N1  UNL     1      24.796   2.283  52.845  1.00  0.00    -0.369 N 
HETATM   18  H10 UNL     1      25.484   2.290  53.597  1.00  0.00     0.161 HD
BRANCH  17  19
HETATM   19  C6  UNL     1      24.486   0.909  52.506  1.00  0.00     0.148 C 
BRANCH  19  20
HETATM   20  C5  UNL     1      24.806  -0.068  53.556  1.00  0.00    -0.007 C 
HETATM   21  C4  UNL     1      25.945  -0.585  53.987  1.00  0.00    -0.003 C 
BRANCH  21  22
HETATM   22  C3  UNL     1      27.198  -0.202  53.397  1.00  0.00    -0.005 C 
HETATM   23  C2  UNL     1      28.335  -0.541  53.983  1.00  0.00    -0.031 C 
HETATM   24  C1  UNL     1      29.700  -0.225  53.508  1.00  0.00     0.036 C 
ENDBRANCH  21  22
ENDBRANCH  19  20
ENDBRANCH  17  19
ENDBRANCH   1  17
BRANCH  11  25
HETATM   25  O1  UNL     1      29.488   7.014  47.430  1.00  0.00    -0.356 OA
HETATM   26  C15 UNL     1      30.596   7.162  48.292  1.00  0.00     0.210 C 
ENDBRANCH  11  25
TORSDOF 5
ENDMDL
MODEL 8
REMARK VINA RESULT:      -7.3      3.890      7.929
REMARK  5 active torsions:
REMARK  status: ('A' for Active; 'I' for Inactive)
REMARK    1  A    between atoms: C3_3  and  C4_4 
REMARK    2  A    between atoms: C5_5  and  C6_6 
REMARK    3  A    between atoms: C6_6  and  N1_7 
REMARK    4  A    between atoms: N1_7  and  C7_8 
REMARK    5  A    between atoms: C14_18  and  O1_19 
ROOT
HETATM    1  C7  UNL     1      24.444   5.979  50.624  1.00  0.00     0.156 A 
HETATM    2  N2  UNL     1      23.672   7.020  50.271  1.00  0.00    -0.222 NA
HETATM    3  C8  UNL     1      22.373   7.104  50.548  1.00  0.00     0.238 A 
HETATM    4  N3  UNL     1      21.734   6.133  51.212  1.00  0.00    -0.215 NA
HETATM    5  C9  UNL     1      22.415   5.039  51.616  1.00  0.00     0.202 A 
HETATM    6  C10 UNL     1      23.778   5.005  51.297  1.00  0.00     0.128 A 
HETATM    7  N4  UNL     1      24.638   3.925  51.639  1.00  0.00    -0.379 N 
HETATM    8  C11 UNL     1      24.529   2.967  52.721  1.00  0.00     0.161 C 
HETATM    9  C12 UNL     1      23.236   2.258  52.722  1.00  0.00    -0.004 A 
HETATM   10  C13 UNL     1      23.403   0.910  52.944  1.00  0.00     0.048 A 
HETATM   11  C14 UNL     1      22.336   0.045  52.986  1.00  0.00     0.069 A 
HETATM   12  C16 UNL     1      21.055   0.573  52.793  1.00  0.00     0.039 A 
HETATM   13  C17 UNL     1      20.858   1.926  52.568  1.00  0.00     0.040 A 
HETATM   14  C18 UNL     1      21.962   2.783  52.530  1.00  0.00     0.086 A 
HETATM   15  O2  UNL     1      21.627   4.107  52.297  1.00  0.00    -0.289 OA
HETATM   16  H12 UNL     1      25.450   3.845  50.986  1.00  0.00     0.160 HD
ENDROOT
BRANCH   1  17
HETATM   17  N1  UNL     1      25.825   5.950  50.310  1.00  0.00    -0.369 N 
HETATM   18  H10 UNL     1      26.689   6.024  50.845  1.00  0.00     0.161 HD
BRANCH  17  19
HETATM   19  C6  UNL     1      26.156   5.783  48.909  1.00  0.00     0.148 C 
BRANCH  19  20
HETATM   20  C5  UNL     1      27.400   5.042  48.656  1.00  0.00    -0.007 C 
HETATM   21  C4  UNL     1      28.625   5.424  48.337  1.00  0.00    -0.003 C 
BRANCH  21  22
HETATM   22  C3  UNL     1      28.943   6.815  48.170  1.00  0.00    -0.005 C 
HETATM   23  C2  UNL     1      28.949   7.351  46.960  1.00  0.00    -0.031 C 
HETATM   24  C1  UNL     1      29.255   8.758  46.621  1.00  0.00     0.036 C 
ENDBRANCH  21  22
ENDBRANCH  19  20
ENDBRANCH  17  19
ENDBRANCH   1  17
BRANCH  11  25
HETATM   25  O1  UNL     1      22.279  -1.319  53.192  1.00  0.00    -0.356 OA
HETATM   26  C15 UNL     1      21.565  -1.813  54.305  1.00  0.00     0.210 C 
ENDBRANCH  11  25
TORSDOF 5
ENDMDL
MODEL 9
REMARK VINA RESULT:      -7.3      4.440      6.797
REMARK  5 active torsions:
REMARK  status: ('A' for Active; 'I' for Inactive)
REMARK    1  A    between atoms: C3_3  and  C4_4 
REMARK    2  A    between atoms: C5_5  and  C6_6 
REMARK    3  A    between atoms: C6_6  and  N1_7 
REMARK    4  A    between atoms: N1_7  and  C7_8 
REMARK    5  A    between atoms: C14_18  and  O1_19 
ROOT
HETATM    1  C7  UNL     1      19.593  -0.100  52.866  1.00  0.00     0.156 A 
HETATM    2  N2  UNL     1      18.842   0.633  52.028  1.00  0.00    -0.222 NA
HETATM    3  C8  UNL     1      19.340   1.521  51.172  1.00  0.00     0.238 A 
HETATM    4  N3  UNL     1      20.656   1.749  51.086  1.00  0.00    -0.215 NA
HETATM    5  C9  UNL     1      21.507   1.066  51.882  1.00  0.00     0.202 A 
HETATM    6  C10 UNL     1      20.926   0.145  52.763  1.00  0.00     0.128 A 
HETATM    7  N4  UNL     1      21.676  -0.649  53.675  1.00  0.00    -0.379 N 
HETATM    8  C11 UNL     1      23.052  -1.093  53.594  1.00  0.00     0.161 C 
HETATM    9  C12 UNL     1      23.997   0.023  53.411  1.00  0.00    -0.004 A 
HETATM   10  C13 UNL     1      25.100  -0.114  54.224  1.00  0.00     0.048 A 
HETATM   11  C14 UNL     1      26.117   0.810  54.227  1.00  0.00     0.069 A 
HETATM   12  C16 UNL     1      26.006   1.912  53.373  1.00  0.00     0.039 A 
HETATM   13  C17 UNL     1      24.907   2.075  52.544  1.00  0.00     0.040 A 
HETATM   14  C18 UNL     1      23.887   1.120  52.561  1.00  0.00     0.086 A 
HETATM   15  O2  UNL     1      22.849   1.402  51.688  1.00  0.00    -0.289 OA
HETATM   16  H12 UNL     1      21.113  -0.925  54.511  1.00  0.00     0.160 HD
ENDROOT
BRANCH   1  17
HETATM   17  N1  UNL     1      19.007  -1.038  53.750  1.00  0.00    -0.369 N 
HETATM   18  H10 UNL     1      19.200  -1.354  54.699  1.00  0.00     0.161 HD
BRANCH  17  19
HETATM   19  C6  UNL     1      17.858  -1.760  53.242  1.00  0.00     0.148 C 
BRANCH  19  20
HETATM   20  C5  UNL     1      17.756  -3.152  53.702  1.00  0.00    -0.007 C 
HETATM   21  C4  UNL     1      16.821  -4.077  53.568  1.00  0.00    -0.003 C 
BRANCH  21  22
HETATM   22  C3  UNL     1      15.606  -3.799  52.850  1.00  0.00    -0.005 C 
HETATM   23  C2  UNL     1      15.205  -4.616  51.890  1.00  0.00    -0.031 C 
HETATM   24  C1  UNL     1      13.987  -4.472  51.062  1.00  0.00     0.036 C 
ENDBRANCH  21  22
ENDBRANCH  19  20
ENDBRANCH  17  19
ENDBRANCH   1  17
BRANCH  11  25
HETATM   25  O1  UNL     1      27.292   0.866  54.949  1.00  0.00    -0.356 OA
HETATM   26  C15 UNL     1      28.366   0.030  54.574  1.00  0.00     0.210 C 
ENDBRANCH  11  25
TORSDOF 5
ENDMDL
