MODEL 1
REMARK VINA RESULT:      -7.3      0.000      0.000
REMARK  1 active torsions:
REMARK  status: ('A' for Active; 'I' for Inactive)
REMARK    1  A    between atoms: C2_2  and  N1_3 
ROOT
HETATM    1  C1  UNL     1      23.207   2.665  52.574  1.00  0.00     0.070 C 
HETATM    2  C2  UNL     1      23.821   3.093  51.236  1.00  0.00     0.140 C 
HETATM    3  C8  UNL     1      25.203   2.572  51.099  1.00  0.00     0.024 C 
HETATM    4  C9  UNL     1      26.391   2.759  50.564  1.00  0.00    -0.025 C 
HETATM    5  C10 UNL     1      26.729   3.916  49.671  1.00  0.00     0.009 C 
HETATM    6  C11 UNL     1      26.733   5.012  48.923  1.00  0.00     0.126 C 
HETATM    7  C12 UNL     1      25.770   6.018  48.506  1.00  0.00     0.224 C 
HETATM    8  O1  UNL     1      26.491   6.865  47.924  1.00  0.00    -0.273 OA
HETATM    9  N2  UNL     1      24.490   6.604  48.373  1.00  0.00    -0.343 N 
HETATM   10  C13 UNL     1      23.993   7.888  47.830  1.00  0.00     0.267 C 
HETATM   11  N3  UNL     1      24.442   8.817  48.916  1.00  0.00    -0.298 NA
HETATM   12  C14 UNL     1      24.428   8.345  50.132  1.00  0.00     0.174 C 
HETATM   13  C15 UNL     1      24.199   7.305  51.207  1.00  0.00     0.120 C 
HETATM   14  N4  UNL     1      23.821   6.114  51.440  1.00  0.00    -0.257 N 
HETATM   15  C16 UNL     1      23.635   5.231  52.407  1.00  0.00     0.229 A 
HETATM   16  N5  UNL     1      23.824   4.562  51.313  1.00  0.00    -0.246 N 
HETATM   17  H15 UNL     1      24.214   5.704  48.799  1.00  0.00     0.164 HD
ENDROOT
BRANCH   2  18
HETATM   18  N1  UNL     1      22.970   2.612  50.237  1.00  0.00    -0.379 N 
HETATM   19  C3  UNL     1      22.402   1.337  50.300  1.00  0.00     0.147 C 
HETATM   20  C4  UNL     1      21.141   1.212  49.473  1.00  0.00    -0.010 C 
HETATM   21  C5  UNL     1      21.054   1.776  48.250  1.00  0.00    -0.012 C 
HETATM   22  C6  UNL     1      22.327   2.499  47.873  1.00  0.00     0.098 C 
HETATM   23 BR1  UNL     1      21.895   3.625  46.362  1.00  0.00    -0.085 Br
HETATM   24  C7  UNL     1      22.812   3.341  49.032  1.00  0.00     0.139 C 
ENDBRANCH   2  18
TORSDOF 1
ENDMDL
MODEL 2
REMARK VINA RESULT:      -7.2      3.753      5.577
REMARK  1 active torsions:
REMARK  status: ('A' for Active; 'I' for Inactive)
REMARK    1  A    between atoms: C2_2  and  N1_3 
ROOT
HETATM    1  C1  UNL     1      21.539   5.011  51.554  1.00  0.00     0.070 C 
HETATM    2  C2  UNL     1      21.819   3.504  51.581  1.00  0.00     0.140 C 
HETATM    3  C8  UNL     1      20.754   2.783  52.321  1.00  0.00     0.024 C 
HETATM    4  C9  UNL     1      20.454   1.729  53.049  1.00  0.00    -0.025 C 
HETATM    5  C10 UNL     1      21.442   0.660  53.412  1.00  0.00     0.009 C 
HETATM    6  C11 UNL     1      22.506  -0.117  53.563  1.00  0.00     0.126 C 
HETATM    7  C12 UNL     1      23.885  -0.134  53.100  1.00  0.00     0.224 C 
HETATM    8  O1  UNL     1      24.384  -1.080  53.756  1.00  0.00    -0.273 OA
HETATM    9  N2  UNL     1      24.997   0.296  52.341  1.00  0.00    -0.343 N 
HETATM   10  C13 UNL     1      26.427  -0.085  52.297  1.00  0.00     0.267 C 
HETATM   11  N3  UNL     1      26.899   0.544  53.572  1.00  0.00    -0.298 NA
HETATM   12  C14 UNL     1      26.326   1.664  53.919  1.00  0.00     0.174 C 
HETATM   13  C15 UNL     1      25.368   2.826  53.778  1.00  0.00     0.120 C 
HETATM   14  N4  UNL     1      24.457   3.344  53.059  1.00  0.00    -0.257 N 
HETATM   15  C16 UNL     1      23.632   4.373  52.971  1.00  0.00     0.229 A 
HETATM   16  N5  UNL     1      23.103   3.405  52.291  1.00  0.00    -0.246 N 
HETATM   17  H15 UNL     1      24.270   0.900  51.922  1.00  0.00     0.164 HD
ENDROOT
BRANCH   2  18
HETATM   18  N1  UNL     1      21.912   3.093  50.249  1.00  0.00    -0.379 N 
HETATM   19  C3  UNL     1      22.301   1.797  49.900  1.00  0.00     0.147 C 
HETATM   20  C4  UNL     1      21.826   1.390  48.521  1.00  0.00    -0.010 C 
HETATM   21  C5  UNL     1      21.869   2.257  47.488  1.00  0.00    -0.012 C 
HETATM   22  C6  UNL     1      22.425   3.599  47.904  1.00  0.00     0.098 C 
HETATM   23 BR1  UNL     1      21.987   4.841  46.489  1.00  0.00    -0.085 Br
HETATM   24  C7  UNL     1      21.796   4.045  49.206  1.00  0.00     0.139 C 
ENDBRANCH   2  18
TORSDOF 1
ENDMDL
MODEL 3
REMARK VINA RESULT:      -7.1      2.985      5.860
REMARK  1 active torsions:
REMARK  status: ('A' for Active; 'I' for Inactive)
REMARK    1  A    between atoms: C2_2  and  N1_3 
ROOT
HETATM    1  C1  UNL     1      22.797   7.001  48.784  1.00  0.00     0.070 C 
HETATM    2  C2  UNL     1      22.975   5.478  48.771  1.00  0.00     0.140 C 
HETATM    3  C8  UNL     1      22.432   4.894  47.521  1.00  0.00     0.024 C 
HETATM    4  C9  UNL     1      21.895   3.834  46.956  1.00  0.00    -0.025 C 
HETATM    5  C10 UNL     1      21.624   2.550  47.684  1.00  0.00     0.009 C 
HETATM    6  C11 UNL     1      21.513   1.563  48.563  1.00  0.00     0.126 C 
HETATM    7  C12 UNL     1      21.870   1.332  49.953  1.00  0.00     0.224 C 
HETATM    8  O1  UNL     1      21.329   0.227  50.197  1.00  0.00    -0.273 OA
HETATM    9  N2  UNL     1      22.473   1.627  51.197  1.00  0.00    -0.343 N 
HETATM   10  C13 UNL     1      22.468   0.977  52.528  1.00  0.00     0.267 C 
HETATM   11  N3  UNL     1      21.081   1.324  52.977  1.00  0.00    -0.298 NA
HETATM   12  C14 UNL     1      20.614   2.480  52.592  1.00  0.00     0.174 C 
HETATM   13  C15 UNL     1      20.649   3.818  51.888  1.00  0.00     0.120 C 
HETATM   14  N4  UNL     1      21.348   4.599  51.169  1.00  0.00    -0.257 N 
HETATM   15  C16 UNL     1      21.341   5.775  50.565  1.00  0.00     0.229 A 
HETATM   16  N5  UNL     1      22.195   5.031  49.935  1.00  0.00    -0.246 N 
HETATM   17  H15 UNL     1      22.849   2.414  50.644  1.00  0.00     0.164 HD
ENDROOT
BRANCH   2  18
HETATM   18  N1  UNL     1      24.344   5.238  48.921  1.00  0.00    -0.379 N 
HETATM   19  C3  UNL     1      24.831   4.242  49.771  1.00  0.00     0.147 C 
HETATM   20  C4  UNL     1      26.222   3.776  49.398  1.00  0.00    -0.010 C 
HETATM   21  C5  UNL     1      27.168   4.657  49.009  1.00  0.00    -0.012 C 
HETATM   22  C6  UNL     1      26.647   6.075  49.007  1.00  0.00     0.098 C 
HETATM   23 BR1  UNL     1      27.918   7.128  48.000  1.00  0.00    -0.085 Br
HETATM   24  C7  UNL     1      25.284   6.132  48.352  1.00  0.00     0.139 C 
ENDBRANCH   2  18
TORSDOF 1
ENDMDL
MODEL 4
REMARK VINA RESULT:      -6.8      3.657      5.107
REMARK  1 active torsions:
REMARK  status: ('A' for Active; 'I' for Inactive)
REMARK    1  A    between atoms: C2_2  and  N1_3 
ROOT
HETATM    1  C1  UNL     1      23.958   3.923  53.062  1.00  0.00     0.070 C 
HETATM    2  C2  UNL     1      23.364   3.130  51.893  1.00  0.00     0.140 C 
HETATM    3  C8  UNL     1      24.297   3.111  50.740  1.00  0.00     0.024 C 
HETATM    4  C9  UNL     1      24.413   3.031  49.432  1.00  0.00    -0.025 C 
HETATM    5  C10 UNL     1      23.246   2.888  48.500  1.00  0.00     0.009 C 
HETATM    6  C11 UNL     1      22.052   2.757  47.936  1.00  0.00     0.126 C 
HETATM    7  C12 UNL     1      20.674   2.631  48.382  1.00  0.00     0.224 C 
HETATM    8  O1  UNL     1      20.029   2.701  47.308  1.00  0.00    -0.273 OA
HETATM    9  N2  UNL     1      19.631   2.475  49.323  1.00  0.00    -0.343 N 
HETATM   10  C13 UNL     1      18.152   2.484  49.237  1.00  0.00     0.267 C 
HETATM   11  N3  UNL     1      17.916   3.948  49.031  1.00  0.00    -0.298 NA
HETATM   12  C14 UNL     1      18.739   4.764  49.632  1.00  0.00     0.174 C 
HETATM   13  C15 UNL     1      19.912   5.144  50.508  1.00  0.00     0.120 C 
HETATM   14  N4  UNL     1      20.861   4.700  51.228  1.00  0.00    -0.257 N 
HETATM   15  C16 UNL     1      21.880   5.070  51.986  1.00  0.00     0.229 A 
HETATM   16  N5  UNL     1      22.140   3.875  51.558  1.00  0.00    -0.246 N 
HETATM   17  H15 UNL     1      20.439   2.355  49.955  1.00  0.00     0.164 HD
ENDROOT
BRANCH   2  18
HETATM   18  N1  UNL     1      23.093   1.848  52.379  1.00  0.00    -0.379 N 
HETATM   19  C3  UNL     1      24.072   0.853  52.427  1.00  0.00     0.147 C 
HETATM   20  C4  UNL     1      23.768  -0.226  53.444  1.00  0.00    -0.010 C 
HETATM   21  C5  UNL     1      22.514  -0.702  53.597  1.00  0.00    -0.012 C 
HETATM   22  C6  UNL     1      21.540  -0.030  52.657  1.00  0.00     0.098 C 
HETATM   23 BR1  UNL     1      19.768  -0.450  53.306  1.00  0.00    -0.085 Br
HETATM   24  C7  UNL     1      21.757   1.468  52.661  1.00  0.00     0.139 C 
ENDBRANCH   2  18
TORSDOF 1
ENDMDL
MODEL 5
REMARK VINA RESULT:      -6.6      2.640      4.506
REMARK  1 active torsions:
REMARK  status: ('A' for Active; 'I' for Inactive)
REMARK    1  A    between atoms: C2_2  and  N1_3 
ROOT
HETATM    1  C1  UNL     1      21.428   0.415  50.237  1.00  0.00     0.070 C 
HETATM    2  C2  UNL     1      22.003   1.632  50.973  1.00  0.00     0.140 C 
HETATM    3  C8  UNL     1      20.962   2.290  51.799  1.00  0.00     0.024 C 
HETATM    4  C9  UNL     1      20.545   3.417  52.333  1.00  0.00    -0.025 C 
HETATM    5  C10 UNL     1      21.267   4.725  52.187  1.00  0.00     0.009 C 
HETATM    6  C11 UNL     1      22.107   5.711  51.902  1.00  0.00     0.126 C 
HETATM    7  C12 UNL     1      23.374   5.859  51.205  1.00  0.00     0.224 C 
HETATM    8  O1  UNL     1      23.530   7.104  51.178  1.00  0.00    -0.273 OA
HETATM    9  N2  UNL     1      24.539   5.419  50.536  1.00  0.00    -0.343 N 
HETATM   10  C13 UNL     1      25.658   6.105  49.850  1.00  0.00     0.267 C 
HETATM   11  N3  UNL     1      24.959   6.548  48.601  1.00  0.00    -0.298 NA
HETATM   12  C14 UNL     1      24.033   5.756  48.137  1.00  0.00     0.174 C 
HETATM   13  C15 UNL     1      23.156   4.522  48.109  1.00  0.00     0.120 C 
HETATM   14  N4  UNL     1      22.874   3.433  48.699  1.00  0.00    -0.257 N 
HETATM   15  C16 UNL     1      22.090   2.369  48.644  1.00  0.00     0.229 A 
HETATM   16  N5  UNL     1      22.439   2.518  49.883  1.00  0.00    -0.246 N 
HETATM   17  H15 UNL     1      24.159   4.502  50.822  1.00  0.00     0.164 HD
ENDROOT
BRANCH   2  18
HETATM   18  N1  UNL     1      23.073   1.163  51.740  1.00  0.00    -0.379 N 
HETATM   19  C3  UNL     1      22.884   0.310  52.829  1.00  0.00     0.147 C 
HETATM   20  C4  UNL     1      24.118  -0.498  53.169  1.00  0.00    -0.010 C 
HETATM   21  C5  UNL     1      25.345   0.064  53.136  1.00  0.00    -0.012 C 
HETATM   22  C6  UNL     1      25.285   1.520  52.736  1.00  0.00     0.098 C 
HETATM   23 BR1  UNL     1      27.090   2.040  52.277  1.00  0.00    -0.085 Br
HETATM   24  C7  UNL     1      24.370   1.697  51.544  1.00  0.00     0.139 C 
ENDBRANCH   2  18
TORSDOF 1
ENDMDL
MODEL 6
REMARK VINA RESULT:      -6.5      5.855      8.495
REMARK  1 active torsions:
REMARK  status: ('A' for Active; 'I' for Inactive)
REMARK    1  A    between atoms: C2_2  and  N1_3 
ROOT
HETATM    1  C1  UNL     1      33.178   8.533  47.750  1.00  0.00     0.070 C 
HETATM    2  C2  UNL     1      31.853   7.975  47.216  1.00  0.00     0.140 C 
HETATM    3  C8  UNL     1      31.565   8.508  45.861  1.00  0.00     0.024 C 
HETATM    4  C9  UNL     1      30.631   8.826  44.991  1.00  0.00    -0.025 C 
HETATM    5  C10 UNL     1      29.162   8.664  45.249  1.00  0.00     0.009 C 
HETATM    6  C11 UNL     1      27.959   8.405  45.745  1.00  0.00     0.126 C 
HETATM    7  C12 UNL     1      27.412   7.825  46.961  1.00  0.00     0.224 C 
HETATM    8  O1  UNL     1      26.181   8.031  46.836  1.00  0.00    -0.273 OA
HETATM    9  N2  UNL     1      27.457   7.162  48.209  1.00  0.00    -0.343 N 
HETATM   10  C13 UNL     1      26.448   6.830  49.240  1.00  0.00     0.267 C 
HETATM   11  N3  UNL     1      26.227   8.189  49.830  1.00  0.00    -0.298 NA
HETATM   12  C14 UNL     1      27.262   8.982  49.877  1.00  0.00     0.174 C 
HETATM   13  C15 UNL     1      28.707   9.380  49.668  1.00  0.00     0.120 C 
HETATM   14  N4  UNL     1      29.838   9.002  49.230  1.00  0.00    -0.257 N 
HETATM   15  C16 UNL     1      31.093   9.386  49.062  1.00  0.00     0.229 A 
HETATM   16  N5  UNL     1      30.860   8.459  48.186  1.00  0.00    -0.246 N 
HETATM   17  H15 UNL     1      28.452   7.074  47.942  1.00  0.00     0.164 HD
ENDROOT
BRANCH   2  18
HETATM   18  N1  UNL     1      31.976   6.583  47.225  1.00  0.00    -0.379 N 
HETATM   19  C3  UNL     1      31.076   5.766  47.913  1.00  0.00     0.147 C 
HETATM   20  C4  UNL     1      31.034   4.351  47.378  1.00  0.00    -0.010 C 
HETATM   21  C5  UNL     1      32.167   3.713  47.016  1.00  0.00    -0.012 C 
HETATM   22  C6  UNL     1      33.388   4.579  47.219  1.00  0.00     0.098 C 
HETATM   23 BR1  UNL     1      34.828   3.740  46.239  1.00  0.00    -0.085 Br
HETATM   24  C7  UNL     1      33.136   5.973  46.688  1.00  0.00     0.139 C 
ENDBRANCH   2  18
TORSDOF 1
ENDMDL
MODEL 7
REMARK VINA RESULT:      -6.5      7.708     10.495
REMARK  1 active torsions:
REMARK  status: ('A' for Active; 'I' for Inactive)
REMARK    1  A    between atoms: C2_2  and  N1_3 
ROOT
HETATM    1  C1  UNL     1      31.534   9.823  45.158  1.00  0.00     0.070 C 
HETATM    2  C2  UNL     1      32.102   9.028  46.340  1.00  0.00     0.140 C 
HETATM    3  C8  UNL     1      33.353   9.648  46.839  1.00  0.00     0.024 C 
HETATM    4  C9  UNL     1      34.507   9.445  47.439  1.00  0.00    -0.025 C 
HETATM    5  C10 UNL     1      34.971   8.102  47.918  1.00  0.00     0.009 C 
HETATM    6  C11 UNL     1      35.109   6.821  48.237  1.00  0.00     0.126 C 
HETATM    7  C12 UNL     1      34.309   5.611  48.144  1.00  0.00     0.224 C 
HETATM    8  O1  UNL     1      35.119   4.718  48.495  1.00  0.00    -0.273 OA
HETATM    9  N2  UNL     1      33.148   4.847  47.886  1.00  0.00    -0.343 N 
HETATM   10  C13 UNL     1      32.844   3.398  47.880  1.00  0.00     0.267 C 
HETATM   11  N3  UNL     1      33.539   2.995  46.615  1.00  0.00    -0.298 NA
HETATM   12  C14 UNL     1      33.541   3.869  45.646  1.00  0.00     0.174 C 
HETATM   13  C15 UNL     1      33.220   5.186  44.973  1.00  0.00     0.120 C 
HETATM   14  N4  UNL     1      32.656   6.316  45.112  1.00  0.00    -0.257 N 
HETATM   15  C16 UNL     1      32.397   7.455  44.492  1.00  0.00     0.229 A 
HETATM   16  N5  UNL     1      32.372   7.702  45.764  1.00  0.00    -0.246 N 
HETATM   17  H15 UNL     1      32.752   5.793  47.761  1.00  0.00     0.164 HD
ENDROOT
BRANCH   2  18
HETATM   18  N1  UNL     1      31.100   8.994  47.313  1.00  0.00    -0.379 N 
HETATM   19  C3  UNL     1      31.199   9.719  48.503  1.00  0.00     0.147 C 
HETATM   20  C4  UNL     1      29.855   9.992  49.142  1.00  0.00    -0.010 C 
HETATM   21  C5  UNL     1      28.895   9.043  49.172  1.00  0.00    -0.012 C 
HETATM   22  C6  UNL     1      29.351   7.762  48.514  1.00  0.00     0.098 C 
HETATM   23 BR1  UNL     1      27.763   6.701  48.213  1.00  0.00    -0.085 Br
HETATM   24  C7  UNL     1      30.036   8.065  47.199  1.00  0.00     0.139 C 
ENDBRANCH   2  18
TORSDOF 1
ENDMDL
MODEL 8
REMARK VINA RESULT:      -6.5      4.373      6.293
REMARK  1 active torsions:
REMARK  status: ('A' for Active; 'I' for Inactive)
REMARK    1  A    between atoms: C2_2  and  N1_3 
ROOT
HETATM    1  C1  UNL     1      24.851   8.600  49.332  1.00  0.00     0.070 C 
HETATM    2  C2  UNL     1      25.911   7.875  48.494  1.00  0.00     0.140 C 
HETATM    3  C8  UNL     1      25.954   6.431  48.831  1.00  0.00     0.024 C 
HETATM    4  C9  UNL     1      26.695   5.346  48.888  1.00  0.00    -0.025 C 
HETATM    5  C10 UNL     1      28.141   5.304  48.488  1.00  0.00     0.009 C 
HETATM    6  C11 UNL     1      29.372   5.561  48.065  1.00  0.00     0.126 C 
HETATM    7  C12 UNL     1      30.091   6.699  47.516  1.00  0.00     0.224 C 
HETATM    8  O1  UNL     1      31.275   6.286  47.482  1.00  0.00    -0.273 OA
HETATM    9  N2  UNL     1      30.237   8.006  46.998  1.00  0.00    -0.343 N 
HETATM   10  C13 UNL     1      31.396   8.832  46.590  1.00  0.00     0.267 C 
HETATM   11  N3  UNL     1      31.957   9.171  47.937  1.00  0.00    -0.298 NA
HETATM   12  C14 UNL     1      31.096   9.330  48.905  1.00  0.00     0.174 C 
HETATM   13  C15 UNL     1      29.722   9.383  49.537  1.00  0.00     0.120 C 
HETATM   14  N4  UNL     1      28.475   9.253  49.329  1.00  0.00    -0.257 N 
HETATM   15  C16 UNL     1      27.291   9.306  49.916  1.00  0.00     0.229 A 
HETATM   16  N5  UNL     1      27.167   8.536  48.881  1.00  0.00    -0.246 N 
HETATM   17  H15 UNL     1      29.206   7.972  47.065  1.00  0.00     0.164 HD
ENDROOT
BRANCH   2  18
HETATM   18  N1  UNL     1      25.580   8.100  47.155  1.00  0.00    -0.379 N 
HETATM   19  C3  UNL     1      26.401   8.846  46.306  1.00  0.00     0.147 C 
HETATM   20  C4  UNL     1      26.182   8.527  44.843  1.00  0.00    -0.010 C 
HETATM   21  C5  UNL     1      24.939   8.334  44.352  1.00  0.00    -0.012 C 
HETATM   22  C6  UNL     1      23.885   8.479  45.425  1.00  0.00     0.098 C 
HETATM   23 BR1  UNL     1      22.257   7.725  44.703  1.00  0.00    -0.085 Br
HETATM   24  C7  UNL     1      24.300   7.731  46.673  1.00  0.00     0.139 C 
ENDBRANCH   2  18
TORSDOF 1
ENDMDL
MODEL 9
REMARK VINA RESULT:      -6.3      7.589     10.119
REMARK  1 active torsions:
REMARK  status: ('A' for Active; 'I' for Inactive)
REMARK    1  A    between atoms: C2_2  and  N1_3 
ROOT
HETATM    1  C1  UNL     1      34.117   3.561  46.326  1.00  0.00     0.070 C 
HETATM    2  C2  UNL     1      33.744   5.046  46.406  1.00  0.00     0.140 C 
HETATM    3  C8  UNL     1      34.635   5.764  47.350  1.00  0.00     0.024 C 
HETATM    4  C9  UNL     1      34.754   6.776  48.182  1.00  0.00    -0.025 C 
HETATM    5  C10 UNL     1      33.658   7.764  48.454  1.00  0.00     0.009 C 
HETATM    6  C11 UNL     1      32.536   8.472  48.485  1.00  0.00     0.126 C 
HETATM    7  C12 UNL     1      31.247   8.452  47.812  1.00  0.00     0.224 C 
HETATM    8  O1  UNL     1      30.595   9.320  48.441  1.00  0.00    -0.273 OA
HETATM    9  N2  UNL     1      30.294   8.023  46.861  1.00  0.00    -0.343 N 
HETATM   10  C13 UNL     1      28.866   8.332  46.617  1.00  0.00     0.267 C 
HETATM   11  N3  UNL     1      28.244   7.588  47.759  1.00  0.00    -0.298 NA
HETATM   12  C14 UNL     1      28.825   6.476  48.119  1.00  0.00     0.174 C 
HETATM   13  C15 UNL     1      29.864   5.378  48.056  1.00  0.00     0.120 C 
HETATM   14  N4  UNL     1      30.905   4.962  47.457  1.00  0.00    -0.257 N 
HETATM   15  C16 UNL     1      31.796   3.985  47.434  1.00  0.00     0.229 A 
HETATM   16  N5  UNL     1      32.362   5.027  46.910  1.00  0.00    -0.246 N 
HETATM   17  H15 UNL     1      31.112   7.489  46.524  1.00  0.00     0.164 HD
ENDROOT
BRANCH   2  18
HETATM   18  N1  UNL     1      33.831   5.548  45.105  1.00  0.00    -0.379 N 
HETATM   19  C3  UNL     1      33.760   6.917  44.834  1.00  0.00     0.147 C 
HETATM   20  C4  UNL     1      34.402   7.292  43.516  1.00  0.00    -0.010 C 
HETATM   21  C5  UNL     1      34.238   6.520  42.420  1.00  0.00    -0.012 C 
HETATM   22  C6  UNL     1      33.375   5.314  42.707  1.00  0.00     0.098 C 
HETATM   23 BR1  UNL     1      33.622   4.095  41.227  1.00  0.00    -0.085 Br
HETATM   24  C7  UNL     1      33.803   4.660  44.002  1.00  0.00     0.139 C 
ENDBRANCH   2  18
TORSDOF 1
ENDMDL
