MODEL 1
REMARK VINA RESULT:      -6.9      0.000      0.000
REMARK  5 active torsions:
REMARK  status: ('A' for Active; 'I' for Inactive)
REMARK    1  A    between atoms: C4_5  and  C5_6 
REMARK    2  A    between atoms: C5_6  and  N1_7 
REMARK    3  A    between atoms: N1_7  and  C6_8 
REMARK    4  A    between atoms: C10_14  and  O1_15 
REMARK    5  A    between atoms: C12_17  and  O2_18 
ROOT
HETATM    1  C1  UNL     1      22.541   2.152  49.560  1.00  0.00     0.012 C 
HETATM    2  C2  UNL     1      23.608   2.832  49.548  1.00  0.00     0.005 C 
HETATM    3  C3  UNL     1      24.858   3.535  49.372  1.00  0.00    -0.006 A 
HETATM    4 BR1  UNL     1      26.403   4.492  49.361  1.00  0.00    -0.120 Br
HETATM    5  C4  UNL     1      25.092   4.330  50.523  1.00  0.00     0.150 A 
ENDROOT
BRANCH   5   6
HETATM    6  C5  UNL     1      24.012   4.192  51.505  1.00  0.00     0.106 C 
BRANCH   6   7
HETATM    7  N1  UNL     1      24.342   3.632  52.837  1.00  0.00    -0.378 N 
HETATM    8  H7  UNL     1      24.758   4.414  53.309  1.00  0.00     0.160 HD
BRANCH   7   9
HETATM    9  C6  UNL     1      24.005   2.302  53.025  1.00  0.00     0.137 A 
HETATM   10  N2  UNL     1      23.051   1.504  53.113  1.00  0.00    -0.224 NA
HETATM   11  C7  UNL     1      22.476   0.402  53.247  1.00  0.00     0.235 A 
HETATM   12  N3  UNL     1      23.587  -0.282  53.337  1.00  0.00    -0.241 NA
HETATM   13  C8  UNL     1      24.879  -0.031  53.324  1.00  0.00     0.075 A 
HETATM   14  C9  UNL     1      26.040  -0.940  53.543  1.00  0.00     0.072 A 
HETATM   15  C15 UNL     1      25.069   1.360  53.156  1.00  0.00     0.041 A 
HETATM   16  C10 UNL     1      27.176  -0.213  53.555  1.00  0.00     0.103 A 
HETATM   17  C12 UNL     1      27.517   1.167  53.414  1.00  0.00     0.102 A 
HETATM   18  C14 UNL     1      26.383   1.900  53.205  1.00  0.00     0.057 A 
BRANCH  16  19
HETATM   19  O1  UNL     1      28.123  -1.139  53.773  1.00  0.00    -0.353 OA
HETATM   20  C11 UNL     1      28.605  -2.137  52.976  1.00  0.00     0.210 C 
ENDBRANCH  16  19
BRANCH  17  21
HETATM   21  O2  UNL     1      28.754   1.118  53.583  1.00  0.00    -0.353 OA
HETATM   22  C13 UNL     1      29.499   2.070  54.442  1.00  0.00     0.210 C 
ENDBRANCH  17  21
ENDBRANCH   7   9
ENDBRANCH   6   7
ENDBRANCH   5   6
TORSDOF 5
ENDMDL
MODEL 2
REMARK VINA RESULT:      -6.7      2.161      2.964
REMARK  5 active torsions:
REMARK  status: ('A' for Active; 'I' for Inactive)
REMARK    1  A    between atoms: C4_5  and  C5_6 
REMARK    2  A    between atoms: C5_6  and  N1_7 
REMARK    3  A    between atoms: N1_7  and  C6_8 
REMARK    4  A    between atoms: C10_14  and  O1_15 
REMARK    5  A    between atoms: C12_17  and  O2_18 
ROOT
HETATM    1  C1  UNL     1      24.632   6.417  48.693  1.00  0.00     0.012 C 
HETATM    2  C2  UNL     1      25.879   6.237  48.573  1.00  0.00     0.005 C 
HETATM    3  C3  UNL     1      27.309   6.202  48.376  1.00  0.00    -0.006 A 
HETATM    4 BR1  UNL     1      29.097   5.940  48.181  1.00  0.00    -0.120 Br
HETATM    5  C4  UNL     1      27.781   4.916  48.741  1.00  0.00     0.150 A 
ENDROOT
BRANCH   5   6
HETATM    6  C5  UNL     1      26.691   4.047  49.196  1.00  0.00     0.106 C 
BRANCH   6   7
HETATM    7  N1  UNL     1      26.705   3.580  50.601  1.00  0.00    -0.378 N 
HETATM    8  H7  UNL     1      27.661   3.719  50.872  1.00  0.00     0.160 HD
BRANCH   7   9
HETATM    9  C6  UNL     1      25.492   3.127  51.092  1.00  0.00     0.137 A 
HETATM   10  N2  UNL     1      24.256   3.282  51.033  1.00  0.00    -0.224 NA
HETATM   11  C7  UNL     1      23.052   3.068  51.290  1.00  0.00     0.235 A 
HETATM   12  N3  UNL     1      23.297   2.076  52.107  1.00  0.00    -0.241 NA
HETATM   13  C8  UNL     1      24.357   1.453  52.578  1.00  0.00     0.075 A 
HETATM   14  C9  UNL     1      24.465   0.377  53.604  1.00  0.00     0.072 A 
HETATM   15  C15 UNL     1      25.514   2.039  52.015  1.00  0.00     0.041 A 
HETATM   16  C10 UNL     1      25.769   0.132  53.852  1.00  0.00     0.103 A 
HETATM   17  C12 UNL     1      27.019   0.638  53.383  1.00  0.00     0.102 A 
HETATM   18  C14 UNL     1      26.798   1.603  52.441  1.00  0.00     0.057 A 
BRANCH  16  19
HETATM   19  O1  UNL     1      25.719  -0.828  54.789  1.00  0.00    -0.353 OA
HETATM   20  C11 UNL     1      24.691  -1.272  55.569  1.00  0.00     0.210 C 
ENDBRANCH  16  19
BRANCH  17  21
HETATM   21  O2  UNL     1      27.814  -0.020  54.088  1.00  0.00    -0.353 OA
HETATM   22  C13 UNL     1      29.238  -0.231  53.732  1.00  0.00     0.210 C 
ENDBRANCH  17  21
ENDBRANCH   7   9
ENDBRANCH   6   7
ENDBRANCH   5   6
TORSDOF 5
ENDMDL
MODEL 3
REMARK VINA RESULT:      -6.6      2.914      4.370
REMARK  5 active torsions:
REMARK  status: ('A' for Active; 'I' for Inactive)
REMARK    1  A    between atoms: C4_5  and  C5_6 
REMARK    2  A    between atoms: C5_6  and  N1_7 
REMARK    3  A    between atoms: N1_7  and  C6_8 
REMARK    4  A    between atoms: C10_14  and  O1_15 
REMARK    5  A    between atoms: C12_17  and  O2_18 
ROOT
HETATM    1  C1  UNL     1      23.675   4.779  49.271  1.00  0.00     0.012 C 
HETATM    2  C2  UNL     1      24.907   4.977  49.060  1.00  0.00     0.005 C 
HETATM    3  C3  UNL     1      26.262   5.356  48.738  1.00  0.00    -0.006 A 
HETATM    4 BR1  UNL     1      28.029   5.633  48.413  1.00  0.00    -0.120 Br
HETATM    5  C4  UNL     1      27.136   4.345  49.212  1.00  0.00     0.150 A 
ENDROOT
BRANCH   5   6
HETATM    6  C5  UNL     1      26.402   3.258  49.867  1.00  0.00     0.106 C 
BRANCH   6   7
HETATM    7  N1  UNL     1      26.374   3.223  51.347  1.00  0.00    -0.378 N 
HETATM    8  H7  UNL     1      26.382   4.195  51.593  1.00  0.00     0.160 HD
BRANCH   7   9
HETATM    9  C6  UNL     1      26.345   1.959  51.913  1.00  0.00     0.137 A 
HETATM   10  N2  UNL     1      27.040   0.969  52.216  1.00  0.00    -0.224 NA
HETATM   11  C7  UNL     1      27.300  -0.162  52.679  1.00  0.00     0.235 A 
HETATM   12  N3  UNL     1      26.075  -0.392  53.077  1.00  0.00    -0.241 NA
HETATM   13  C8  UNL     1      24.917   0.234  53.047  1.00  0.00     0.075 A 
HETATM   14  C9  UNL     1      23.563  -0.225  53.469  1.00  0.00     0.072 A 
HETATM   15  C15 UNL     1      25.095   1.488  52.419  1.00  0.00     0.041 A 
HETATM   16  C10 UNL     1      22.654   0.716  53.138  1.00  0.00     0.103 A 
HETATM   17  C12 UNL     1      22.680   1.997  52.506  1.00  0.00     0.102 A 
HETATM   18  C14 UNL     1      23.967   2.318  52.178  1.00  0.00     0.057 A 
BRANCH  16  19
HETATM   19  O1  UNL     1      21.498   0.175  53.554  1.00  0.00    -0.353 OA
HETATM   20  C11 UNL     1      21.238  -0.983  54.229  1.00  0.00     0.210 C 
ENDBRANCH  16  19
BRANCH  17  21
HETATM   21  O2  UNL     1      21.462   2.273  52.491  1.00  0.00    -0.353 OA
HETATM   22  C13 UNL     1      20.936   3.634  52.227  1.00  0.00     0.210 C 
ENDBRANCH  17  21
ENDBRANCH   7   9
ENDBRANCH   6   7
ENDBRANCH   5   6
TORSDOF 5
ENDMDL
MODEL 4
REMARK VINA RESULT:      -6.6      3.532      6.243
REMARK  5 active torsions:
REMARK  status: ('A' for Active; 'I' for Inactive)
REMARK    1  A    between atoms: C4_5  and  C5_6 
REMARK    2  A    between atoms: C5_6  and  N1_7 
REMARK    3  A    between atoms: N1_7  and  C6_8 
REMARK    4  A    between atoms: C10_14  and  O1_15 
REMARK    5  A    between atoms: C12_17  and  O2_18 
ROOT
HETATM    1  C1  UNL     1      28.982  -2.157  53.252  1.00  0.00     0.012 C 
HETATM    2  C2  UNL     1      28.827  -0.904  53.351  1.00  0.00     0.005 C 
HETATM    3  C3  UNL     1      28.831   0.537  53.447  1.00  0.00    -0.006 A 
HETATM    4 BR1  UNL     1      28.616   2.334  53.612  1.00  0.00    -0.120 Br
HETATM    5  C4  UNL     1      27.495   0.977  53.631  1.00  0.00     0.150 A 
ENDROOT
BRANCH   5   6
HETATM    6  C5  UNL     1      26.554  -0.146  53.664  1.00  0.00     0.106 C 
BRANCH   6   7
HETATM    7  N1  UNL     1      25.218   0.040  53.050  1.00  0.00    -0.378 N 
HETATM    8  H7  UNL     1      25.433   0.507  52.189  1.00  0.00     0.160 HD
BRANCH   7   9
HETATM    9  C6  UNL     1      24.151  -0.450  53.784  1.00  0.00     0.137 A 
HETATM   10  N2  UNL     1      23.835  -1.073  54.818  1.00  0.00    -0.224 NA
HETATM   11  C7  UNL     1      23.081  -1.597  55.665  1.00  0.00     0.235 A 
HETATM   12  N3  UNL     1      21.980  -1.243  55.053  1.00  0.00    -0.241 NA
HETATM   13  C8  UNL     1      21.651  -0.597  53.954  1.00  0.00     0.075 A 
HETATM   14  C9  UNL     1      20.315  -0.361  53.338  1.00  0.00     0.072 A 
HETATM   15  C15 UNL     1      22.835  -0.186  53.299  1.00  0.00     0.041 A 
HETATM   16  C10 UNL     1      20.478   0.250  52.146  1.00  0.00     0.103 A 
HETATM   17  C12 UNL     1      21.584   0.706  51.366  1.00  0.00     0.102 A 
HETATM   18  C14 UNL     1      22.750   0.452  52.031  1.00  0.00     0.057 A 
BRANCH  16  19
HETATM   19  O1  UNL     1      19.218   0.384  51.703  1.00  0.00    -0.353 OA
HETATM   20  C11 UNL     1      18.148  -0.463  51.762  1.00  0.00     0.210 C 
ENDBRANCH  16  19
BRANCH  17  21
HETATM   21  O2  UNL     1      20.992   1.130  50.350  1.00  0.00    -0.353 OA
HETATM   22  C13 UNL     1      21.331   2.408  49.681  1.00  0.00     0.210 C 
ENDBRANCH  17  21
ENDBRANCH   7   9
ENDBRANCH   6   7
ENDBRANCH   5   6
TORSDOF 5
ENDMDL
MODEL 5
REMARK VINA RESULT:      -6.5      2.466      3.701
REMARK  5 active torsions:
REMARK  status: ('A' for Active; 'I' for Inactive)
REMARK    1  A    between atoms: C4_5  and  C5_6 
REMARK    2  A    between atoms: C5_6  and  N1_7 
REMARK    3  A    between atoms: N1_7  and  C6_8 
REMARK    4  A    between atoms: C10_14  and  O1_15 
REMARK    5  A    between atoms: C12_17  and  O2_18 
ROOT
HETATM    1  C1  UNL     1      21.683   1.352  48.846  1.00  0.00     0.012 C 
HETATM    2  C2  UNL     1      21.423   0.979  50.027  1.00  0.00     0.005 C 
HETATM    3  C3  UNL     1      21.060   0.404  51.301  1.00  0.00    -0.006 A 
HETATM    4 BR1  UNL     1      20.665  -0.126  52.994  1.00  0.00    -0.120 Br
HETATM    5  C4  UNL     1      21.419   1.316  52.325  1.00  0.00     0.150 A 
ENDROOT
BRANCH   5   6
HETATM    6  C5  UNL     1      22.036   2.529  51.778  1.00  0.00     0.106 C 
BRANCH   6   7
HETATM    7  N1  UNL     1      23.171   3.132  52.515  1.00  0.00    -0.378 N 
HETATM    8  H7  UNL     1      22.733   3.490  53.343  1.00  0.00     0.160 HD
BRANCH   7   9
HETATM    9  C6  UNL     1      24.406   3.029  51.896  1.00  0.00     0.137 A 
HETATM   10  N2  UNL     1      25.145   3.528  51.024  1.00  0.00    -0.224 NA
HETATM   11  C7  UNL     1      26.170   3.672  50.323  1.00  0.00     0.235 A 
HETATM   12  N3  UNL     1      26.822   2.692  50.895  1.00  0.00    -0.241 NA
HETATM   13  C8  UNL     1      26.596   1.805  51.842  1.00  0.00     0.075 A 
HETATM   14  C9  UNL     1      27.434   0.666  52.314  1.00  0.00     0.072 A 
HETATM   15  C15 UNL     1      25.296   2.013  52.356  1.00  0.00     0.041 A 
HETATM   16  C10 UNL     1      26.740  -0.045  53.227  1.00  0.00     0.103 A 
HETATM   17  C12 UNL     1      25.445   0.033  53.825  1.00  0.00     0.102 A 
HETATM   18  C14 UNL     1      24.777   1.117  53.330  1.00  0.00     0.057 A 
BRANCH  16  19
HETATM   19  O1  UNL     1      27.591  -1.031  53.549  1.00  0.00    -0.353 OA
HETATM   20  C11 UNL     1      28.948  -1.124  53.426  1.00  0.00     0.210 C 
ENDBRANCH  16  19
BRANCH  17  21
HETATM   21  O2  UNL     1      25.463  -0.985  54.550  1.00  0.00    -0.353 OA
HETATM   22  C13 UNL     1      25.012  -0.990  55.962  1.00  0.00     0.210 C 
ENDBRANCH  17  21
ENDBRANCH   7   9
ENDBRANCH   6   7
ENDBRANCH   5   6
TORSDOF 5
ENDMDL
MODEL 6
REMARK VINA RESULT:      -6.5      2.687      4.727
REMARK  5 active torsions:
REMARK  status: ('A' for Active; 'I' for Inactive)
REMARK    1  A    between atoms: C4_5  and  C5_6 
REMARK    2  A    between atoms: C5_6  and  N1_7 
REMARK    3  A    between atoms: N1_7  and  C6_8 
REMARK    4  A    between atoms: C10_14  and  O1_15 
REMARK    5  A    between atoms: C12_17  and  O2_18 
ROOT
HETATM    1  C1  UNL     1      22.687  -1.291  55.170  1.00  0.00     0.012 C 
HETATM    2  C2  UNL     1      21.592  -1.119  54.560  1.00  0.00     0.005 C 
HETATM    3  C3  UNL     1      20.282  -1.068  53.953  1.00  0.00    -0.006 A 
HETATM    4 BR1  UNL     1      18.716  -0.839  53.061  1.00  0.00    -0.120 Br
HETATM    5  C4  UNL     1      20.248   0.024  53.049  1.00  0.00     0.150 A 
ENDROOT
BRANCH   5   6
HETATM    6  C5  UNL     1      21.526   0.743  53.020  1.00  0.00     0.106 C 
BRANCH   6   7
HETATM    7  N1  UNL     1      22.398   0.576  51.834  1.00  0.00    -0.378 N 
HETATM    8  H7  UNL     1      22.088  -0.298  51.451  1.00  0.00     0.160 HD
BRANCH   7   9
HETATM    9  C6  UNL     1      23.310   1.595  51.616  1.00  0.00     0.137 A 
HETATM   10  N2  UNL     1      23.451   2.745  51.155  1.00  0.00    -0.224 NA
HETATM   11  C7  UNL     1      24.042   3.804  50.855  1.00  0.00     0.235 A 
HETATM   12  N3  UNL     1      25.191   3.424  51.353  1.00  0.00    -0.241 NA
HETATM   13  C8  UNL     1      25.678   2.357  51.951  1.00  0.00     0.075 A 
HETATM   14  C9  UNL     1      27.071   2.043  52.377  1.00  0.00     0.072 A 
HETATM   15  C15 UNL     1      24.647   1.398  52.077  1.00  0.00     0.041 A 
HETATM   16  C10 UNL     1      27.118   0.777  52.842  1.00  0.00     0.103 A 
HETATM   17  C12 UNL     1      26.185  -0.291  53.016  1.00  0.00     0.102 A 
HETATM   18  C14 UNL     1      24.946   0.113  52.608  1.00  0.00     0.057 A 
BRANCH  16  19
HETATM   19  O1  UNL     1      28.411   0.625  53.169  1.00  0.00    -0.353 OA
HETATM   20  C11 UNL     1      29.187   1.268  54.089  1.00  0.00     0.210 C 
ENDBRANCH  16  19
BRANCH  17  21
HETATM   21  O2  UNL     1      26.939  -1.187  53.452  1.00  0.00    -0.353 OA
HETATM   22  C13 UNL     1      27.287  -2.406  52.684  1.00  0.00     0.210 C 
ENDBRANCH  17  21
ENDBRANCH   7   9
ENDBRANCH   6   7
ENDBRANCH   5   6
TORSDOF 5
ENDMDL
MODEL 7
REMARK VINA RESULT:      -6.4      2.935      5.371
REMARK  5 active torsions:
REMARK  status: ('A' for Active; 'I' for Inactive)
REMARK    1  A    between atoms: C4_5  and  C5_6 
REMARK    2  A    between atoms: C5_6  and  N1_7 
REMARK    3  A    between atoms: N1_7  and  C6_8 
REMARK    4  A    between atoms: C10_14  and  O1_15 
REMARK    5  A    between atoms: C12_17  and  O2_18 
ROOT
HETATM    1  C1  UNL     1      26.811  -2.343  52.310  1.00  0.00     0.012 C 
HETATM    2  C2  UNL     1      27.507  -1.441  52.861  1.00  0.00     0.005 C 
HETATM    3  C3  UNL     1      28.442  -0.477  53.393  1.00  0.00    -0.006 A 
HETATM    4 BR1  UNL     1      29.451   0.802  54.198  1.00  0.00    -0.120 Br
HETATM    5  C4  UNL     1      27.752   0.359  54.307  1.00  0.00     0.150 A 
ENDROOT
BRANCH   5   6
HETATM    6  C5  UNL     1      26.337  -0.010  54.418  1.00  0.00     0.106 C 
BRANCH   6   7
HETATM    7  N1  UNL     1      25.317   1.018  54.110  1.00  0.00    -0.378 N 
HETATM    8  H7  UNL     1      25.733   1.858  54.467  1.00  0.00     0.160 HD
BRANCH   7   9
HETATM    9  C6  UNL     1      24.181   0.557  53.467  1.00  0.00     0.137 A 
HETATM   10  N2  UNL     1      23.252  -0.274  53.524  1.00  0.00    -0.224 NA
HETATM   11  C7  UNL     1      22.209  -0.866  53.174  1.00  0.00     0.235 A 
HETATM   12  N3  UNL     1      22.022  -0.123  52.113  1.00  0.00    -0.241 NA
HETATM   13  C8  UNL     1      22.631   0.882  51.519  1.00  0.00     0.075 A 
HETATM   14  C9  UNL     1      22.328   1.565  50.230  1.00  0.00     0.072 A 
HETATM   15  C15 UNL     1      23.781   1.222  52.268  1.00  0.00     0.041 A 
HETATM   16  C10 UNL     1      23.298   2.465  49.967  1.00  0.00     0.103 A 
HETATM   17  C12 UNL     1      24.499   2.902  50.606  1.00  0.00     0.102 A 
HETATM   18  C14 UNL     1      24.666   2.221  51.779  1.00  0.00     0.057 A 
BRANCH  16  19
HETATM   19  O1  UNL     1      22.914   2.985  48.790  1.00  0.00    -0.353 OA
HETATM   20  C11 UNL     1      22.400   2.396  47.671  1.00  0.00     0.210 C 
ENDBRANCH  16  19
BRANCH  17  21
HETATM   21  O2  UNL     1      24.919   3.729  49.770  1.00  0.00    -0.353 OA
HETATM   22  C13 UNL     1      26.349   3.861  49.400  1.00  0.00     0.210 C 
ENDBRANCH  17  21
ENDBRANCH   7   9
ENDBRANCH   6   7
ENDBRANCH   5   6
TORSDOF 5
ENDMDL
MODEL 8
REMARK VINA RESULT:      -6.3      2.504      3.316
REMARK  5 active torsions:
REMARK  status: ('A' for Active; 'I' for Inactive)
REMARK    1  A    between atoms: C4_5  and  C5_6 
REMARK    2  A    between atoms: C5_6  and  N1_7 
REMARK    3  A    between atoms: N1_7  and  C6_8 
REMARK    4  A    between atoms: C10_14  and  O1_15 
REMARK    5  A    between atoms: C12_17  and  O2_18 
ROOT
HETATM    1  C1  UNL     1      23.389   4.732  52.709  1.00  0.00     0.012 C 
HETATM    2  C2  UNL     1      22.322   4.719  52.029  1.00  0.00     0.005 C 
HETATM    3  C3  UNL     1      21.159   4.862  51.184  1.00  0.00    -0.006 A 
HETATM    4 BR1  UNL     1      19.617   4.858  50.222  1.00  0.00    -0.120 Br
HETATM    5  C4  UNL     1      20.314   3.742  51.390  1.00  0.00     0.150 A 
ENDROOT
BRANCH   5   6
HETATM    6  C5  UNL     1      20.877   2.811  52.373  1.00  0.00     0.106 C 
BRANCH   6   7
HETATM    7  N1  UNL     1      21.322   1.478  51.904  1.00  0.00    -0.378 N 
HETATM    8  H7  UNL     1      21.160   1.526  50.915  1.00  0.00     0.160 HD
BRANCH   7   9
HETATM    9  C6  UNL     1      21.795   0.627  52.888  1.00  0.00     0.137 A 
HETATM   10  N2  UNL     1      21.458  -0.112  53.834  1.00  0.00    -0.224 NA
HETATM   11  C7  UNL     1      21.603  -0.915  54.781  1.00  0.00     0.235 A 
HETATM   12  N3  UNL     1      22.901  -0.999  54.645  1.00  0.00    -0.241 NA
HETATM   13  C8  UNL     1      23.826  -0.479  53.865  1.00  0.00     0.075 A 
HETATM   14  C9  UNL     1      25.310  -0.610  53.910  1.00  0.00     0.072 A 
HETATM   15  C15 UNL     1      23.201   0.386  52.936  1.00  0.00     0.041 A 
HETATM   16  C10 UNL     1      25.855   0.202  52.980  1.00  0.00     0.103 A 
HETATM   17  C12 UNL     1      25.366   1.121  52.001  1.00  0.00     0.102 A 
HETATM   18  C14 UNL     1      24.000   1.148  52.041  1.00  0.00     0.057 A 
BRANCH  16  19
HETATM   19  O1  UNL     1      27.172  -0.001  53.140  1.00  0.00    -0.353 OA
HETATM   20  C11 UNL     1      27.955   0.013  54.258  1.00  0.00     0.210 C 
ENDBRANCH  16  19
BRANCH  17  21
HETATM   21  O2  UNL     1      26.440   1.551  51.530  1.00  0.00    -0.353 OA
HETATM   22  C13 UNL     1      26.564   2.858  50.842  1.00  0.00     0.210 C 
ENDBRANCH  17  21
ENDBRANCH   7   9
ENDBRANCH   6   7
ENDBRANCH   5   6
TORSDOF 5
ENDMDL
MODEL 9
REMARK VINA RESULT:      -6.2      1.812      2.251
REMARK  5 active torsions:
REMARK  status: ('A' for Active; 'I' for Inactive)
REMARK    1  A    between atoms: C4_5  and  C5_6 
REMARK    2  A    between atoms: C5_6  and  N1_7 
REMARK    3  A    between atoms: N1_7  and  C6_8 
REMARK    4  A    between atoms: C10_14  and  O1_15 
REMARK    5  A    between atoms: C12_17  and  O2_18 
ROOT
HETATM    1  C1  UNL     1      22.129   7.091  49.112  1.00  0.00     0.012 C 
HETATM    2  C2  UNL     1      23.220   6.460  49.230  1.00  0.00     0.005 C 
HETATM    3  C3  UNL     1      24.475   5.747  49.185  1.00  0.00    -0.006 A 
HETATM    4 BR1  UNL     1      26.030   4.822  49.349  1.00  0.00    -0.120 Br
HETATM    5  C4  UNL     1      24.856   5.424  50.512  1.00  0.00     0.150 A 
ENDROOT
BRANCH   5   6
HETATM    6  C5  UNL     1      23.877   5.908  51.490  1.00  0.00     0.106 C 
BRANCH   6   7
HETATM    7  N1  UNL     1      23.693   5.136  52.740  1.00  0.00    -0.378 N 
HETATM    8  H7  UNL     1      24.073   5.748  53.438  1.00  0.00     0.160 HD
BRANCH   7   9
HETATM    9  C6  UNL     1      23.094   3.896  52.592  1.00  0.00     0.137 A 
HETATM   10  N2  UNL     1      22.035   3.314  52.285  1.00  0.00    -0.224 NA
HETATM   11  C7  UNL     1      21.266   2.353  52.065  1.00  0.00     0.235 A 
HETATM   12  N3  UNL     1      22.171   1.441  52.315  1.00  0.00    -0.241 NA
HETATM   13  C8  UNL     1      23.434   1.411  52.684  1.00  0.00     0.075 A 
HETATM   14  C9  UNL     1      24.309   0.254  53.028  1.00  0.00     0.072 A 
HETATM   15  C15 UNL     1      23.898   2.739  52.823  1.00  0.00     0.041 A 
HETATM   16  C10 UNL     1      25.500   0.715  53.466  1.00  0.00     0.103 A 
HETATM   17  C12 UNL     1      26.096   1.997  53.669  1.00  0.00     0.102 A 
HETATM   18  C14 UNL     1      25.213   2.975  53.308  1.00  0.00     0.057 A 
BRANCH  16  19
HETATM   19  O1  UNL     1      26.170  -0.412  53.752  1.00  0.00    -0.353 OA
HETATM   20  C11 UNL     1      26.748  -1.346  52.940  1.00  0.00     0.210 C 
ENDBRANCH  16  19
BRANCH  17  21
HETATM   21  O2  UNL     1      27.204   1.664  54.141  1.00  0.00    -0.353 OA
HETATM   22  C13 UNL     1      28.497   2.185  53.635  1.00  0.00     0.210 C 
ENDBRANCH  17  21
ENDBRANCH   7   9
ENDBRANCH   6   7
ENDBRANCH   5   6
TORSDOF 5
ENDMDL
