MODEL 1
REMARK VINA RESULT:      -7.0      0.000      0.000
REMARK  10 active torsions:
REMARK  status: ('A' for Active; 'I' for Inactive)
REMARK    1  A    between atoms: C2_2  and  C3_3 
REMARK    2  A    between atoms: C2_2  and  N3_19 
REMARK    3  A    between atoms: C3_3  and  C4_4 
REMARK    4  A    between atoms: C4_4  and  C5_5 
REMARK    5  A    between atoms: C6_6  and  C7_7 
REMARK    6  A    between atoms: C7_7  and  C8_8 
REMARK    7  A    between atoms: C8_8  and  C10_10 
REMARK    8  A    between atoms: C11_12  and  C12_13 
REMARK    9  A    between atoms: N3_19  and  O1_20 
REMARK   10  A    between atoms: O1_20  and  O2_21 
ROOT
HETATM    1  C5  UNL     1      23.734   0.134  53.073  1.00  0.00     0.060 A 
HETATM    2  C6  UNL     1      23.322   1.111  52.193  1.00  0.00     0.081 A 
HETATM    3  N1  UNL     1      22.024   1.346  52.544  1.00  0.00    -0.242 NA
HETATM    4  C13 UNL     1      21.717   0.552  53.557  1.00  0.00     0.210 A 
HETATM    5  N2  UNL     1      22.741  -0.212  53.915  1.00  0.00    -0.344 N 
HETATM    6  C14 UNL     1      22.682  -1.178  54.999  1.00  0.00     0.157 C 
ENDROOT
BRANCH   1   7
HETATM    7  C4  UNL     1      24.937  -0.387  53.138  1.00  0.00     0.007 C 
BRANCH   7   8
HETATM    8  C3  UNL     1      26.223  -0.802  52.620  1.00  0.00     0.051 C 
BRANCH   8   9
HETATM    9  C2  UNL     1      27.424  -0.312  53.424  1.00  0.00     0.085 C 
HETATM   10  C1  UNL     1      27.035   0.126  54.803  1.00  0.00     0.029 C 
BRANCH   9  11
HETATM   11  N3  UNL     1      28.359  -1.407  53.572  1.00  0.00    -0.169 NA
HETATM   12  H20 UNL     1      28.544  -1.519  54.589  1.00  0.00     0.157 HD
BRANCH  11  13
HETATM   13  O1  UNL     1      27.877  -2.589  53.124  1.00  0.00    -0.144 OA
BRANCH  13  14
HETATM   14  O2  UNL     1      28.763  -3.516  53.450  1.00  0.00    -0.232 OA
HETATM   15  H21 UNL     1      28.586  -3.969  54.294  1.00  0.00     0.255 HD
ENDBRANCH  13  14
ENDBRANCH  11  13
ENDBRANCH   9  11
ENDBRANCH   8   9
ENDBRANCH   7   8
ENDBRANCH   1   7
BRANCH   2  16
HETATM   16  C7  UNL     1      23.848   1.741  51.195  1.00  0.00     0.017 C 
BRANCH  16  17
HETATM   17  C8  UNL     1      23.721   2.934  50.375  1.00  0.00     0.046 C 
HETATM   18  C9  UNL     1      23.041   2.747  49.054  1.00  0.00     0.020 C 
BRANCH  17  19
HETATM   19  C10 UNL     1      25.048   3.596  50.052  1.00  0.00    -0.005 C 
HETATM   20 BR1  UNL     1      26.439   2.704  51.000  1.00  0.00    -0.055 Br
HETATM   21  C11 UNL     1      25.380   4.620  49.276  1.00  0.00     0.019 C 
BRANCH  21  22
HETATM   22  C12 UNL     1      26.757   5.167  49.056  1.00  0.00     0.250 C 
HETATM   23  F1  UNL     1      27.573   4.216  48.450  1.00  0.00    -0.251 F 
ENDBRANCH  21  22
ENDBRANCH  17  19
ENDBRANCH  16  17
ENDBRANCH   2  16
TORSDOF 10
ENDMDL
MODEL 2
REMARK VINA RESULT:      -6.9      3.673      5.617
REMARK  10 active torsions:
REMARK  status: ('A' for Active; 'I' for Inactive)
REMARK    1  A    between atoms: C2_2  and  C3_3 
REMARK    2  A    between atoms: C2_2  and  N3_19 
REMARK    3  A    between atoms: C3_3  and  C4_4 
REMARK    4  A    between atoms: C4_4  and  C5_5 
REMARK    5  A    between atoms: C6_6  and  C7_7 
REMARK    6  A    between atoms: C7_7  and  C8_8 
REMARK    7  A    between atoms: C8_8  and  C10_10 
REMARK    8  A    between atoms: C11_12  and  C12_13 
REMARK    9  A    between atoms: N3_19  and  O1_20 
REMARK   10  A    between atoms: O1_20  and  O2_21 
ROOT
HETATM    1  C5  UNL     1      24.628   1.272  51.895  1.00  0.00     0.060 A 
HETATM    2  C6  UNL     1      23.260   1.311  51.732  1.00  0.00     0.081 A 
HETATM    3  N1  UNL     1      23.053   2.402  50.938  1.00  0.00    -0.242 NA
HETATM    4  C13 UNL     1      24.227   2.948  50.668  1.00  0.00     0.210 A 
HETATM    5  N2  UNL     1      25.225   2.285  51.238  1.00  0.00    -0.344 N 
HETATM    6  C14 UNL     1      26.621   2.667  51.107  1.00  0.00     0.157 C 
ENDROOT
BRANCH   1   7
HETATM    7  C4  UNL     1      25.300   0.362  52.560  1.00  0.00     0.007 C 
BRANCH   7   8
HETATM    8  C3  UNL     1      26.263  -0.705  52.727  1.00  0.00     0.051 C 
BRANCH   8   9
HETATM    9  C2  UNL     1      27.584  -0.281  53.363  1.00  0.00     0.085 C 
HETATM   10  C1  UNL     1      27.394   0.235  54.756  1.00  0.00     0.029 C 
BRANCH   9  11
HETATM   11  N3  UNL     1      28.449  -1.438  53.449  1.00  0.00    -0.169 NA
HETATM   12  H20 UNL     1      28.717  -1.548  54.447  1.00  0.00     0.157 HD
BRANCH  11  13
HETATM   13  O1  UNL     1      27.844  -2.589  53.072  1.00  0.00    -0.144 OA
BRANCH  13  14
HETATM   14  O2  UNL     1      28.663  -3.578  53.392  1.00  0.00    -0.232 OA
HETATM   15  H21 UNL     1      28.708  -3.775  54.345  1.00  0.00     0.255 HD
ENDBRANCH  13  14
ENDBRANCH  11  13
ENDBRANCH   9  11
ENDBRANCH   8   9
ENDBRANCH   7   8
ENDBRANCH   1   7
BRANCH   2  16
HETATM   16  C7  UNL     1      22.255   0.625  52.166  1.00  0.00     0.017 C 
BRANCH  16  17
HETATM   17  C8  UNL     1      21.453   0.356  53.348  1.00  0.00     0.046 C 
HETATM   18  C9  UNL     1      22.064  -0.572  54.352  1.00  0.00     0.020 C 
BRANCH  17  19
HETATM   19  C10 UNL     1      20.088  -0.231  53.039  1.00  0.00    -0.005 C 
HETATM   20 BR1  UNL     1      19.442   0.516  51.410  1.00  0.00    -0.055 Br
HETATM   21  C11 UNL     1      19.322  -1.114  53.667  1.00  0.00     0.019 C 
BRANCH  21  22
HETATM   22  C12 UNL     1      17.975  -1.602  53.230  1.00  0.00     0.250 C 
HETATM   23  F1  UNL     1      17.865  -2.976  53.418  1.00  0.00    -0.251 F 
ENDBRANCH  21  22
ENDBRANCH  17  19
ENDBRANCH  16  17
ENDBRANCH   2  16
TORSDOF 10
ENDMDL
MODEL 3
REMARK VINA RESULT:      -6.9      1.464      1.679
REMARK  10 active torsions:
REMARK  status: ('A' for Active; 'I' for Inactive)
REMARK    1  A    between atoms: C2_2  and  C3_3 
REMARK    2  A    between atoms: C2_2  and  N3_19 
REMARK    3  A    between atoms: C3_3  and  C4_4 
REMARK    4  A    between atoms: C4_4  and  C5_5 
REMARK    5  A    between atoms: C6_6  and  C7_7 
REMARK    6  A    between atoms: C7_7  and  C8_8 
REMARK    7  A    between atoms: C8_8  and  C10_10 
REMARK    8  A    between atoms: C11_12  and  C12_13 
REMARK    9  A    between atoms: N3_19  and  O1_20 
REMARK   10  A    between atoms: O1_20  and  O2_21 
ROOT
HETATM    1  C5  UNL     1      23.907  -0.229  53.388  1.00  0.00     0.060 A 
HETATM    2  C6  UNL     1      22.747   0.163  52.756  1.00  0.00     0.081 A 
HETATM    3  N1  UNL     1      21.759  -0.191  53.630  1.00  0.00    -0.242 NA
HETATM    4  C13 UNL     1      22.322  -0.749  54.689  1.00  0.00     0.210 A 
HETATM    5  N2  UNL     1      23.644  -0.793  54.582  1.00  0.00    -0.344 N 
HETATM    6  C14 UNL     1      24.514  -1.356  55.601  1.00  0.00     0.157 C 
ENDROOT
BRANCH   1   7
HETATM    7  C4  UNL     1      25.127  -0.055  52.936  1.00  0.00     0.007 C 
BRANCH   7   8
HETATM    8  C3  UNL     1      26.345  -0.435  52.253  1.00  0.00     0.051 C 
BRANCH   8   9
HETATM    9  C2  UNL     1      27.626  -0.191  53.048  1.00  0.00     0.085 C 
HETATM   10  C1  UNL     1      27.423   0.811  54.143  1.00  0.00     0.029 C 
BRANCH   9  11
HETATM   11  N3  UNL     1      28.025  -1.434  53.674  1.00  0.00    -0.169 NA
HETATM   12  H20 UNL     1      27.528  -1.492  54.586  1.00  0.00     0.157 HD
BRANCH  11  13
HETATM   13  O1  UNL     1      27.675  -2.530  52.961  1.00  0.00    -0.144 OA
BRANCH  13  14
HETATM   14  O2  UNL     1      28.511  -3.496  53.306  1.00  0.00    -0.232 OA
HETATM   15  H21 UNL     1      29.310  -3.194  53.773  1.00  0.00     0.255 HD
ENDBRANCH  13  14
ENDBRANCH  11  13
ENDBRANCH   9  11
ENDBRANCH   8   9
ENDBRANCH   7   8
ENDBRANCH   1   7
BRANCH   2  16
HETATM   16  C7  UNL     1      22.445   0.697  51.619  1.00  0.00     0.017 C 
BRANCH  16  17
HETATM   17  C8  UNL     1      22.475   1.944  50.874  1.00  0.00     0.046 C 
HETATM   18  C9  UNL     1      22.219   1.831  49.403  1.00  0.00     0.020 C 
BRANCH  17  19
HETATM   19  C10 UNL     1      23.788   2.696  50.996  1.00  0.00    -0.005 C 
HETATM   20 BR1  UNL     1      23.681   3.907  52.462  1.00  0.00    -0.055 Br
HETATM   21  C11 UNL     1      24.919   2.654  50.303  1.00  0.00     0.019 C 
BRANCH  21  22
HETATM   22  C12 UNL     1      26.150   3.473  50.548  1.00  0.00     0.250 C 
HETATM   23  F1  UNL     1      27.089   2.743  51.271  1.00  0.00    -0.251 F 
ENDBRANCH  21  22
ENDBRANCH  17  19
ENDBRANCH  16  17
ENDBRANCH   2  16
TORSDOF 10
ENDMDL
MODEL 4
REMARK VINA RESULT:      -6.8      3.178      3.370
REMARK  10 active torsions:
REMARK  status: ('A' for Active; 'I' for Inactive)
REMARK    1  A    between atoms: C2_2  and  C3_3 
REMARK    2  A    between atoms: C2_2  and  N3_19 
REMARK    3  A    between atoms: C3_3  and  C4_4 
REMARK    4  A    between atoms: C4_4  and  C5_5 
REMARK    5  A    between atoms: C6_6  and  C7_7 
REMARK    6  A    between atoms: C7_7  and  C8_8 
REMARK    7  A    between atoms: C8_8  and  C10_10 
REMARK    8  A    between atoms: C11_12  and  C12_13 
REMARK    9  A    between atoms: N3_19  and  O1_20 
REMARK   10  A    between atoms: O1_20  and  O2_21 
ROOT
HETATM    1  C5  UNL     1      23.374  -0.391  53.386  1.00  0.00     0.060 A 
HETATM    2  C6  UNL     1      22.138  -0.250  52.794  1.00  0.00     0.081 A 
HETATM    3  N1  UNL     1      21.268  -0.742  53.723  1.00  0.00    -0.242 NA
HETATM    4  C13 UNL     1      21.965  -1.139  54.776  1.00  0.00     0.210 A 
HETATM    5  N2  UNL     1      23.267  -0.942  54.611  1.00  0.00    -0.344 N 
HETATM    6  C14 UNL     1      24.264  -1.287  55.610  1.00  0.00     0.157 C 
ENDROOT
BRANCH   1   7
HETATM    7  C4  UNL     1      24.522  -0.015  52.874  1.00  0.00     0.007 C 
BRANCH   7   8
HETATM    8  C3  UNL     1      25.696   0.822  52.744  1.00  0.00     0.051 C 
BRANCH   8   9
HETATM    9  C2  UNL     1      26.273   1.322  54.066  1.00  0.00     0.085 C 
HETATM   10  C1  UNL     1      27.310   0.390  54.613  1.00  0.00     0.029 C 
BRANCH   9  11
HETATM   11  N3  UNL     1      26.922   2.595  53.834  1.00  0.00    -0.169 NA
HETATM   12  H20 UNL     1      26.461   3.293  54.452  1.00  0.00     0.157 HD
BRANCH  11  13
HETATM   13  O1  UNL     1      28.237   2.592  54.153  1.00  0.00    -0.144 OA
BRANCH  13  14
HETATM   14  O2  UNL     1      28.896   2.996  53.078  1.00  0.00    -0.232 OA
HETATM   15  H21 UNL     1      29.394   3.825  53.195  1.00  0.00     0.255 HD
ENDBRANCH  13  14
ENDBRANCH  11  13
ENDBRANCH   9  11
ENDBRANCH   8   9
ENDBRANCH   7   8
ENDBRANCH   1   7
BRANCH   2  16
HETATM   16  C7  UNL     1      21.700   0.167  51.652  1.00  0.00     0.017 C 
BRANCH  16  17
HETATM   17  C8  UNL     1      21.432   1.365  50.876  1.00  0.00     0.046 C 
HETATM   18  C9  UNL     1      21.626   1.241  49.397  1.00  0.00     0.020 C 
BRANCH  17  19
HETATM   19  C10 UNL     1      22.269   2.561  51.291  1.00  0.00    -0.005 C 
HETATM   20 BR1  UNL     1      23.693   2.789  50.046  1.00  0.00    -0.055 Br
HETATM   21  C11 UNL     1      22.184   3.415  52.303  1.00  0.00     0.019 C 
BRANCH  21  22
HETATM   22  C12 UNL     1      23.102   4.565  52.584  1.00  0.00     0.250 C 
HETATM   23  F1  UNL     1      24.098   4.190  53.481  1.00  0.00    -0.251 F 
ENDBRANCH  21  22
ENDBRANCH  17  19
ENDBRANCH  16  17
ENDBRANCH   2  16
TORSDOF 10
ENDMDL
MODEL 5
REMARK VINA RESULT:      -6.6      2.080      2.384
REMARK  10 active torsions:
REMARK  status: ('A' for Active; 'I' for Inactive)
REMARK    1  A    between atoms: C2_2  and  C3_3 
REMARK    2  A    between atoms: C2_2  and  N3_19 
REMARK    3  A    between atoms: C3_3  and  C4_4 
REMARK    4  A    between atoms: C4_4  and  C5_5 
REMARK    5  A    between atoms: C6_6  and  C7_7 
REMARK    6  A    between atoms: C7_7  and  C8_8 
REMARK    7  A    between atoms: C8_8  and  C10_10 
REMARK    8  A    between atoms: C11_12  and  C12_13 
REMARK    9  A    between atoms: N3_19  and  O1_20 
REMARK   10  A    between atoms: O1_20  and  O2_21 
ROOT
HETATM    1  C5  UNL     1      22.676  -0.097  53.077  1.00  0.00     0.060 A 
HETATM    2  C6  UNL     1      22.469   1.043  52.333  1.00  0.00     0.081 A 
HETATM    3  N1  UNL     1      21.111   1.183  52.312  1.00  0.00    -0.242 NA
HETATM    4  C13 UNL     1      20.581   0.184  53.000  1.00  0.00     0.210 A 
HETATM    5  N2  UNL     1      21.509  -0.629  53.488  1.00  0.00    -0.344 N 
HETATM    6  C14 UNL     1      21.205  -1.808  54.282  1.00  0.00     0.157 C 
ENDROOT
BRANCH   1   7
HETATM    7  C4  UNL     1      23.842  -0.608  53.399  1.00  0.00     0.007 C 
BRANCH   7   8
HETATM    8  C3  UNL     1      25.216  -0.571  53.853  1.00  0.00     0.051 C 
BRANCH   8   9
HETATM    9  C2  UNL     1      26.249  -0.945  52.793  1.00  0.00     0.085 C 
HETATM   10  C1  UNL     1      26.868   0.266  52.164  1.00  0.00     0.029 C 
BRANCH   9  11
HETATM   11  N3  UNL     1      27.315  -1.689  53.430  1.00  0.00    -0.169 NA
HETATM   12  H20 UNL     1      27.003  -1.907  54.397  1.00  0.00     0.157 HD
BRANCH  11  13
HETATM   13  O1  UNL     1      27.582  -2.868  52.823  1.00  0.00    -0.144 OA
BRANCH  13  14
HETATM   14  O2  UNL     1      28.644  -3.380  53.425  1.00  0.00    -0.232 OA
HETATM   15  H21 UNL     1      28.450  -3.867  54.246  1.00  0.00     0.255 HD
ENDBRANCH  13  14
ENDBRANCH  11  13
ENDBRANCH   9  11
ENDBRANCH   8   9
ENDBRANCH   7   8
ENDBRANCH   1   7
BRANCH   2  16
HETATM   16  C7  UNL     1      23.216   1.881  51.693  1.00  0.00     0.017 C 
BRANCH  16  17
HETATM   17  C8  UNL     1      24.290   2.845  51.860  1.00  0.00     0.046 C 
HETATM   18  C9  UNL     1      24.670   3.159  53.274  1.00  0.00     0.020 C 
BRANCH  17  19
HETATM   19  C10 UNL     1      24.010   4.189  51.213  1.00  0.00    -0.005 C 
HETATM   20 BR1  UNL     1      24.836   4.242  49.498  1.00  0.00    -0.055 Br
HETATM   21  C11 UNL     1      23.334   5.259  51.612  1.00  0.00     0.019 C 
BRANCH  21  22
HETATM   22  C12 UNL     1      23.143   6.534  50.848  1.00  0.00     0.250 C 
HETATM   23  F1  UNL     1      23.909   7.557  51.400  1.00  0.00    -0.251 F 
ENDBRANCH  21  22
ENDBRANCH  17  19
ENDBRANCH  16  17
ENDBRANCH   2  16
TORSDOF 10
ENDMDL
MODEL 6
REMARK VINA RESULT:      -6.6      4.411      6.251
REMARK  10 active torsions:
REMARK  status: ('A' for Active; 'I' for Inactive)
REMARK    1  A    between atoms: C2_2  and  C3_3 
REMARK    2  A    between atoms: C2_2  and  N3_19 
REMARK    3  A    between atoms: C3_3  and  C4_4 
REMARK    4  A    between atoms: C4_4  and  C5_5 
REMARK    5  A    between atoms: C6_6  and  C7_7 
REMARK    6  A    between atoms: C7_7  and  C8_8 
REMARK    7  A    between atoms: C8_8  and  C10_10 
REMARK    8  A    between atoms: C11_12  and  C12_13 
REMARK    9  A    between atoms: N3_19  and  O1_20 
REMARK   10  A    between atoms: O1_20  and  O2_21 
ROOT
HETATM    1  C5  UNL     1      26.186   1.209  53.385  1.00  0.00     0.060 A 
HETATM    2  C6  UNL     1      25.505   0.108  53.855  1.00  0.00     0.081 A 
HETATM    3  N1  UNL     1      26.422  -0.543  54.628  1.00  0.00    -0.242 NA
HETATM    4  C13 UNL     1      27.553   0.144  54.599  1.00  0.00     0.210 A 
HETATM    5  N2  UNL     1      27.452   1.230  53.844  1.00  0.00    -0.344 N 
HETATM    6  C14 UNL     1      28.544   2.166  53.635  1.00  0.00     0.157 C 
ENDROOT
BRANCH   1   7
HETATM    7  C4  UNL     1      25.690   2.155  52.622  1.00  0.00     0.007 C 
BRANCH   7   8
HETATM    8  C3  UNL     1      25.427   2.839  51.374  1.00  0.00     0.051 C 
BRANCH   8   9
HETATM    9  C2  UNL     1      24.246   3.805  51.411  1.00  0.00     0.085 C 
HETATM   10  C1  UNL     1      23.616   3.867  52.768  1.00  0.00     0.029 C 
BRANCH   9  11
HETATM   11  N3  UNL     1      24.726   5.134  51.100  1.00  0.00    -0.169 NA
HETATM   12  H20 UNL     1      24.828   5.191  50.067  1.00  0.00     0.157 HD
BRANCH  11  13
HETATM   13  O1  UNL     1      23.868   6.114  51.468  1.00  0.00    -0.144 OA
BRANCH  13  14
HETATM   14  O2  UNL     1      24.582   7.037  52.093  1.00  0.00    -0.232 OA
HETATM   15  H21 UNL     1      24.679   7.874  51.605  1.00  0.00     0.255 HD
ENDBRANCH  13  14
ENDBRANCH  11  13
ENDBRANCH   9  11
ENDBRANCH   8   9
ENDBRANCH   7   8
ENDBRANCH   1   7
BRANCH   2  16
HETATM   16  C7  UNL     1      24.324  -0.391  53.692  1.00  0.00     0.017 C 
BRANCH  16  17
HETATM   17  C8  UNL     1      22.928  -0.218  54.054  1.00  0.00     0.046 C 
HETATM   18  C9  UNL     1      22.267  -1.403  54.687  1.00  0.00     0.020 C 
BRANCH  17  19
HETATM   19  C10 UNL     1      22.037   0.161  52.885  1.00  0.00    -0.005 C 
HETATM   20 BR1  UNL     1      20.229  -0.257  53.316  1.00  0.00    -0.055 Br
HETATM   21  C11 UNL     1      22.286   0.697  51.697  1.00  0.00     0.019 C 
BRANCH  21  22
HETATM   22  C12 UNL     1      21.283   1.018  50.632  1.00  0.00     0.250 C 
HETATM   23  F1  UNL     1      21.552   0.298  49.471  1.00  0.00    -0.251 F 
ENDBRANCH  21  22
ENDBRANCH  17  19
ENDBRANCH  16  17
ENDBRANCH   2  16
TORSDOF 10
ENDMDL
MODEL 7
REMARK VINA RESULT:      -6.5      3.925      5.536
REMARK  10 active torsions:
REMARK  status: ('A' for Active; 'I' for Inactive)
REMARK    1  A    between atoms: C2_2  and  C3_3 
REMARK    2  A    between atoms: C2_2  and  N3_19 
REMARK    3  A    between atoms: C3_3  and  C4_4 
REMARK    4  A    between atoms: C4_4  and  C5_5 
REMARK    5  A    between atoms: C6_6  and  C7_7 
REMARK    6  A    between atoms: C7_7  and  C8_8 
REMARK    7  A    between atoms: C8_8  and  C10_10 
REMARK    8  A    between atoms: C11_12  and  C12_13 
REMARK    9  A    between atoms: N3_19  and  O1_20 
REMARK   10  A    between atoms: O1_20  and  O2_21 
ROOT
HETATM    1  C5  UNL     1      24.280   2.197  51.152  1.00  0.00     0.060 A 
HETATM    2  C6  UNL     1      22.970   2.197  50.724  1.00  0.00     0.081 A 
HETATM    3  N1  UNL     1      22.988   2.979  49.606  1.00  0.00    -0.242 NA
HETATM    4  C13 UNL     1      24.227   3.399  49.412  1.00  0.00     0.210 A 
HETATM    5  N2  UNL     1      25.056   2.942  50.342  1.00  0.00    -0.344 N 
HETATM    6  C14 UNL     1      26.477   3.248  50.371  1.00  0.00     0.157 C 
ENDROOT
BRANCH   1   7
HETATM    7  C4  UNL     1      24.754   1.540  52.185  1.00  0.00     0.007 C 
BRANCH   7   8
HETATM    8  C3  UNL     1      25.072   1.332  53.581  1.00  0.00     0.051 C 
BRANCH   8   9
HETATM    9  C2  UNL     1      26.564   1.248  53.892  1.00  0.00     0.085 C 
HETATM   10  C1  UNL     1      27.290   0.373  52.917  1.00  0.00     0.029 C 
BRANCH   9  11
HETATM   11  N3  UNL     1      27.134   2.574  53.785  1.00  0.00    -0.169 NA
HETATM   12  H20 UNL     1      26.627   3.182  54.459  1.00  0.00     0.157 HD
BRANCH  11  13
HETATM   13  O1  UNL     1      28.445   2.622  54.115  1.00  0.00    -0.144 OA
BRANCH  13  14
HETATM   14  O2  UNL     1      29.091   3.091  53.059  1.00  0.00    -0.232 OA
HETATM   15  H21 UNL     1      29.692   3.834  53.248  1.00  0.00     0.255 HD
ENDBRANCH  13  14
ENDBRANCH  11  13
ENDBRANCH   9  11
ENDBRANCH   8   9
ENDBRANCH   7   8
ENDBRANCH   1   7
BRANCH   2  16
HETATM   16  C7  UNL     1      21.857   1.695  51.147  1.00  0.00     0.017 C 
BRANCH  16  17
HETATM   17  C8  UNL     1      21.034   0.499  51.116  1.00  0.00     0.046 C 
HETATM   18  C9  UNL     1      19.586   0.712  50.800  1.00  0.00     0.020 C 
BRANCH  17  19
HETATM   19  C10 UNL     1      21.048  -0.286  52.415  1.00  0.00    -0.005 C 
HETATM   20 BR1  UNL     1      19.259  -0.525  53.022  1.00  0.00    -0.055 Br
HETATM   21  C11 UNL     1      22.029  -0.799  53.148  1.00  0.00     0.019 C 
BRANCH  21  22
HETATM   22  C12 UNL     1      21.883  -1.562  54.430  1.00  0.00     0.250 C 
HETATM   23  F1  UNL     1      22.225  -0.764  55.518  1.00  0.00    -0.251 F 
ENDBRANCH  21  22
ENDBRANCH  17  19
ENDBRANCH  16  17
ENDBRANCH   2  16
TORSDOF 10
ENDMDL
MODEL 8
REMARK VINA RESULT:      -6.4      3.044      4.538
REMARK  10 active torsions:
REMARK  status: ('A' for Active; 'I' for Inactive)
REMARK    1  A    between atoms: C2_2  and  C3_3 
REMARK    2  A    between atoms: C2_2  and  N3_19 
REMARK    3  A    between atoms: C3_3  and  C4_4 
REMARK    4  A    between atoms: C4_4  and  C5_5 
REMARK    5  A    between atoms: C6_6  and  C7_7 
REMARK    6  A    between atoms: C7_7  and  C8_8 
REMARK    7  A    between atoms: C8_8  and  C10_10 
REMARK    8  A    between atoms: C11_12  and  C12_13 
REMARK    9  A    between atoms: N3_19  and  O1_20 
REMARK   10  A    between atoms: O1_20  and  O2_21 
ROOT
HETATM    1  C5  UNL     1      25.951   1.324  52.542  1.00  0.00     0.060 A 
HETATM    2  C6  UNL     1      26.602   2.069  51.584  1.00  0.00     0.081 A 
HETATM    3  N1  UNL     1      27.781   2.415  52.179  1.00  0.00    -0.242 NA
HETATM    4  C13 UNL     1      27.799   1.900  53.398  1.00  0.00     0.210 A 
HETATM    5  N2  UNL     1      26.690   1.220  53.663  1.00  0.00    -0.344 N 
HETATM    6  C14 UNL     1      26.444   0.550  54.929  1.00  0.00     0.157 C 
ENDROOT
BRANCH   1   7
HETATM    7  C4  UNL     1      24.783   0.741  52.404  1.00  0.00     0.007 C 
BRANCH   7   8
HETATM    8  C3  UNL     1      23.343   0.693  52.268  1.00  0.00     0.051 C 
BRANCH   8   9
HETATM    9  C2  UNL     1      22.586   0.444  53.570  1.00  0.00     0.085 C 
HETATM   10  C1  UNL     1      21.118   0.256  53.337  1.00  0.00     0.029 C 
BRANCH   9  11
HETATM   11  N3  UNL     1      23.083  -0.776  54.168  1.00  0.00    -0.169 NA
HETATM   12  H20 UNL     1      24.048  -0.583  54.505  1.00  0.00     0.157 HD
BRANCH  11  13
HETATM   13  O1  UNL     1      22.362  -1.181  55.239  1.00  0.00    -0.144 OA
BRANCH  13  14
HETATM   14  O2  UNL     1      23.167  -1.916  55.990  1.00  0.00    -0.232 OA
HETATM   15  H21 UNL     1      24.076  -1.573  56.067  1.00  0.00     0.255 HD
ENDBRANCH  13  14
ENDBRANCH  11  13
ENDBRANCH   9  11
ENDBRANCH   8   9
ENDBRANCH   7   8
ENDBRANCH   1   7
BRANCH   2  16
HETATM   16  C7  UNL     1      26.330   2.490  50.393  1.00  0.00     0.017 C 
BRANCH  16  17
HETATM   17  C8  UNL     1      25.589   3.501  49.657  1.00  0.00     0.046 C 
HETATM   18  C9  UNL     1      26.224   4.855  49.592  1.00  0.00     0.020 C 
BRANCH  17  19
HETATM   19  C10 UNL     1      24.188   3.740  50.190  1.00  0.00    -0.005 C 
HETATM   20 BR1  UNL     1      22.934   2.829  49.082  1.00  0.00    -0.055 Br
HETATM   21  C11 UNL     1      23.721   4.427  51.225  1.00  0.00     0.019 C 
BRANCH  21  22
HETATM   22  C12 UNL     1      22.286   4.572  51.629  1.00  0.00     0.250 C 
HETATM   23  F1  UNL     1      21.975   3.690  52.660  1.00  0.00    -0.251 F 
ENDBRANCH  21  22
ENDBRANCH  17  19
ENDBRANCH  16  17
ENDBRANCH   2  16
TORSDOF 10
ENDMDL
MODEL 9
REMARK VINA RESULT:      -6.4      4.891      7.055
REMARK  10 active torsions:
REMARK  status: ('A' for Active; 'I' for Inactive)
REMARK    1  A    between atoms: C2_2  and  C3_3 
REMARK    2  A    between atoms: C2_2  and  N3_19 
REMARK    3  A    between atoms: C3_3  and  C4_4 
REMARK    4  A    between atoms: C4_4  and  C5_5 
REMARK    5  A    between atoms: C6_6  and  C7_7 
REMARK    6  A    between atoms: C7_7  and  C8_8 
REMARK    7  A    between atoms: C8_8  and  C10_10 
REMARK    8  A    between atoms: C11_12  and  C12_13 
REMARK    9  A    between atoms: N3_19  and  O1_20 
REMARK   10  A    between atoms: O1_20  and  O2_21 
ROOT
HETATM    1  C5  UNL     1      26.014   6.315  49.331  1.00  0.00     0.060 A 
HETATM    2  C6  UNL     1      24.811   5.663  49.491  1.00  0.00     0.081 A 
HETATM    3  N1  UNL     1      24.047   6.548  50.197  1.00  0.00    -0.242 NA
HETATM    4  C13 UNL     1      24.770   7.632  50.423  1.00  0.00     0.210 A 
HETATM    5  N2  UNL     1      25.989   7.531  49.908  1.00  0.00    -0.344 N 
HETATM    6  C14 UNL     1      26.993   8.577  50.011  1.00  0.00     0.157 C 
ENDROOT
BRANCH   1   7
HETATM    7  C4  UNL     1      27.056   5.860  48.674  1.00  0.00     0.007 C 
BRANCH   7   8
HETATM    8  C3  UNL     1      28.209   5.013  48.457  1.00  0.00     0.051 C 
BRANCH   8   9
HETATM    9  C2  UNL     1      29.478   5.754  48.045  1.00  0.00     0.085 C 
HETATM   10  C1  UNL     1      29.171   7.033  47.327  1.00  0.00     0.029 C 
BRANCH   9  11
HETATM   11  N3  UNL     1      30.219   6.101  49.239  1.00  0.00    -0.169 NA
HETATM   12  H20 UNL     1      29.557   6.044  50.039  1.00  0.00     0.157 HD
BRANCH  11  13
HETATM   13  O1  UNL     1      31.237   5.250  49.504  1.00  0.00    -0.144 OA
BRANCH  13  14
HETATM   14  O2  UNL     1      31.423   5.268  50.815  1.00  0.00    -0.232 OA
HETATM   15  H21 UNL     1      30.783   5.813  51.308  1.00  0.00     0.255 HD
ENDBRANCH  13  14
ENDBRANCH  11  13
ENDBRANCH   9  11
ENDBRANCH   8   9
ENDBRANCH   7   8
ENDBRANCH   1   7
BRANCH   2  16
HETATM   16  C7  UNL     1      24.336   4.503  49.179  1.00  0.00     0.017 C 
BRANCH  16  17
HETATM   17  C8  UNL     1      23.890   3.239  49.740  1.00  0.00     0.046 C 
HETATM   18  C9  UNL     1      22.545   3.256  50.397  1.00  0.00     0.020 C 
BRANCH  17  19
HETATM   19  C10 UNL     1      24.837   2.664  50.778  1.00  0.00    -0.005 C 
HETATM   20 BR1  UNL     1      23.829   1.709  52.082  1.00  0.00    -0.055 Br
HETATM   21  C11 UNL     1      26.155   2.711  50.922  1.00  0.00     0.019 C 
BRANCH  21  22
HETATM   22  C12 UNL     1      26.959   2.084  52.019  1.00  0.00     0.250 C 
HETATM   23  F1  UNL     1      27.084   0.712  51.814  1.00  0.00    -0.251 F 
ENDBRANCH  21  22
ENDBRANCH  17  19
ENDBRANCH  16  17
ENDBRANCH   2  16
TORSDOF 10
ENDMDL
