MODEL 1
REMARK VINA RESULT:      -7.1      0.000      0.000
REMARK  5 active torsions:
REMARK  status: ('A' for Active; 'I' for Inactive)
REMARK    1  A    between atoms: O1_2  and  C2_3 
REMARK    2  A    between atoms: C2_3  and  C3_4 
REMARK    3  A    between atoms: C3_4  and  C4_5 
REMARK    4  A    between atoms: C6_7  and  N1_8 
REMARK       I    between atoms: N1_8  and  C7_9 
REMARK    5  A    between atoms: C7_9  and  C8_11 
ROOT
HETATM    1  N1  UNL     1      25.407   3.837  50.996  1.00  0.00    -0.322 N 
HETATM    2  C7  UNL     1      26.334   3.706  49.927  1.00  0.00     0.252 C 
HETATM    3  O2  UNL     1      26.845   2.602  49.613  1.00  0.00    -0.268 OA
HETATM    4  H8  UNL     1      25.011   4.777  51.217  1.00  0.00     0.169 HD
ENDROOT
BRANCH   1   5
HETATM    5  C6  UNL     1      24.997   2.724  51.779  1.00  0.00     0.046 C 
HETATM    6  C5  UNL     1      25.639   2.190  52.780  1.00  0.00     0.010 C 
HETATM    7  C4  UNL     1      25.395   0.896  52.925  1.00  0.00    -0.043 C 
HETATM    8  C16 UNL     1      24.041   0.800  52.376  1.00  0.00     0.010 C 
HETATM    9  C15 UNL     1      23.789   1.915  51.671  1.00  0.00     0.031 C 
BRANCH   7  10
HETATM   10  C3  UNL     1      26.230  -0.177  53.481  1.00  0.00     0.066 C 
BRANCH  10  11
HETATM   11  C2  UNL     1      26.739   0.258  54.840  1.00  0.00     0.171 C 
BRANCH  11  12
HETATM   12  O1  UNL     1      28.005  -0.255  55.018  1.00  0.00    -0.396 OA
HETATM   13  C1  UNL     1      28.981   0.569  54.461  1.00  0.00     0.201 C 
ENDBRANCH  11  12
ENDBRANCH  10  11
ENDBRANCH   7  10
ENDBRANCH   1   5
BRANCH   2  14
HETATM   14  C8  UNL     1      26.715   4.884  49.160  1.00  0.00     0.011 C 
HETATM   15  C9  UNL     1      25.951   5.955  48.884  1.00  0.00     0.021 C 
HETATM   16  C10 UNL     1      26.665   6.963  48.080  1.00  0.00    -0.036 C 
HETATM   17  C11 UNL     1      26.692   7.980  47.244  1.00  0.00     0.090 C 
HETATM   18  C13 UNL     1      28.113   6.661  48.387  1.00  0.00     0.042 C 
HETATM   19  N2  UNL     1      28.032   8.415  46.933  1.00  0.00    -0.398 N 
HETATM   20  C12 UNL     1      28.769   7.156  47.139  1.00  0.00     0.128 C 
HETATM   21  H11 UNL     1      28.060   9.430  46.673  1.00  0.00     0.158 HD
HETATM   22  C14 UNL     1      28.053   5.156  48.514  1.00  0.00     0.055 C 
ENDBRANCH   2  14
TORSDOF 5
ENDMDL
MODEL 2
REMARK VINA RESULT:      -7.0      2.577      7.580
REMARK  5 active torsions:
REMARK  status: ('A' for Active; 'I' for Inactive)
REMARK    1  A    between atoms: O1_2  and  C2_3 
REMARK    2  A    between atoms: C2_3  and  C3_4 
REMARK    3  A    between atoms: C3_4  and  C4_5 
REMARK    4  A    between atoms: C6_7  and  N1_8 
REMARK       I    between atoms: N1_8  and  C7_9 
REMARK    5  A    between atoms: C7_9  and  C8_11 
ROOT
HETATM    1  N1  UNL     1      26.410   3.871  50.353  1.00  0.00    -0.322 N 
HETATM    2  C7  UNL     1      25.200   3.132  50.264  1.00  0.00     0.252 C 
HETATM    3  O2  UNL     1      24.373   3.308  49.335  1.00  0.00    -0.268 OA
HETATM    4  H8  UNL     1      27.064   3.687  51.146  1.00  0.00     0.169 HD
ENDROOT
BRANCH   1   5
HETATM    5  C6  UNL     1      26.764   4.858  49.393  1.00  0.00     0.046 C 
HETATM    6  C5  UNL     1      27.797   4.844  48.598  1.00  0.00     0.010 C 
HETATM    7  C4  UNL     1      28.227   6.056  48.281  1.00  0.00    -0.043 C 
HETATM    8  C16 UNL     1      26.989   6.830  48.379  1.00  0.00     0.010 C 
HETATM    9  C15 UNL     1      26.087   6.105  49.060  1.00  0.00     0.031 C 
BRANCH   7  10
HETATM   10  C3  UNL     1      29.571   6.528  47.924  1.00  0.00     0.066 C 
BRANCH  10  11
HETATM   11  C2  UNL     1      30.515   5.344  47.909  1.00  0.00     0.171 C 
BRANCH  11  12
HETATM   12  O1  UNL     1      31.198   5.314  49.105  1.00  0.00    -0.396 OA
HETATM   13  C1  UNL     1      31.730   6.561  49.429  1.00  0.00     0.201 C 
ENDBRANCH  11  12
ENDBRANCH  10  11
ENDBRANCH   7  10
ENDBRANCH   1   5
BRANCH   2  14
HETATM   14  C8  UNL     1      24.893   2.133  51.278  1.00  0.00     0.011 C 
HETATM   15  C9  UNL     1      25.751   1.565  52.144  1.00  0.00     0.021 C 
HETATM   16  C10 UNL     1      25.092   0.591  53.032  1.00  0.00    -0.036 C 
HETATM   17  C11 UNL     1      25.111  -0.459  53.827  1.00  0.00     0.090 C 
HETATM   18  C13 UNL     1      23.653   1.048  53.008  1.00  0.00     0.042 C 
HETATM   19  N2  UNL     1      23.809  -0.783  54.359  1.00  0.00    -0.398 N 
HETATM   20  C12 UNL     1      22.949  -0.240  53.292  1.00  0.00     0.128 C 
HETATM   21  H11 UNL     1      23.879  -1.273  55.283  1.00  0.00     0.158 HD
HETATM   22  C14 UNL     1      23.544   1.523  51.578  1.00  0.00     0.055 C 
ENDBRANCH   2  14
TORSDOF 5
ENDMDL
MODEL 3
REMARK VINA RESULT:      -7.0      5.372      7.229
REMARK  5 active torsions:
REMARK  status: ('A' for Active; 'I' for Inactive)
REMARK    1  A    between atoms: O1_2  and  C2_3 
REMARK    2  A    between atoms: C2_3  and  C3_4 
REMARK    3  A    between atoms: C3_4  and  C4_5 
REMARK    4  A    between atoms: C6_7  and  N1_8 
REMARK       I    between atoms: N1_8  and  C7_9 
REMARK    5  A    between atoms: C7_9  and  C8_11 
ROOT
HETATM    1  N1  UNL     1      23.369  -0.602  53.153  1.00  0.00    -0.322 N 
HETATM    2  C7  UNL     1      24.097   0.616  53.212  1.00  0.00     0.252 C 
HETATM    3  O2  UNL     1      23.533   1.737  53.181  1.00  0.00    -0.268 OA
HETATM    4  H8  UNL     1      23.886  -1.509  53.183  1.00  0.00     0.169 HD
ENDROOT
BRANCH   1   5
HETATM    5  C6  UNL     1      21.951  -0.630  53.055  1.00  0.00     0.046 C 
HETATM    6  C5  UNL     1      21.229  -0.275  52.029  1.00  0.00     0.010 C 
HETATM    7  C4  UNL     1      20.031   0.177  52.367  1.00  0.00    -0.043 C 
HETATM    8  C16 UNL     1      19.795  -0.552  53.615  1.00  0.00     0.010 C 
HETATM    9  C15 UNL     1      20.966  -1.049  54.044  1.00  0.00     0.031 C 
BRANCH   7  10
HETATM   10  C3  UNL     1      19.151   1.144  51.697  1.00  0.00     0.066 C 
BRANCH  10  11
HETATM   11  C2  UNL     1      19.972   2.354  51.301  1.00  0.00     0.171 C 
BRANCH  11  12
HETATM   12  O1  UNL     1      20.045   3.206  52.380  1.00  0.00    -0.396 OA
HETATM   13  C1  UNL     1      21.146   4.056  52.296  1.00  0.00     0.201 C 
ENDBRANCH  11  12
ENDBRANCH  10  11
ENDBRANCH   7  10
ENDBRANCH   1   5
BRANCH   2  14
HETATM   14  C8  UNL     1      25.550   0.579  53.313  1.00  0.00     0.011 C 
HETATM   15  C9  UNL     1      26.354  -0.471  53.071  1.00  0.00     0.021 C 
HETATM   16  C10 UNL     1      27.778  -0.148  53.274  1.00  0.00    -0.036 C 
HETATM   17  C11 UNL     1      29.025  -0.489  53.524  1.00  0.00     0.090 C 
HETATM   18  C13 UNL     1      27.801   1.352  53.102  1.00  0.00     0.042 C 
HETATM   19  N2  UNL     1      29.922   0.643  53.547  1.00  0.00    -0.398 N 
HETATM   20  C12 UNL     1      28.984   1.709  53.942  1.00  0.00     0.128 C 
HETATM   21  H11 UNL     1      30.900   0.367  53.292  1.00  0.00     0.158 HD
HETATM   22  C14 UNL     1      26.465   1.714  53.708  1.00  0.00     0.055 C 
ENDBRANCH   2  14
TORSDOF 5
ENDMDL
MODEL 4
REMARK VINA RESULT:      -6.9      5.111      7.455
REMARK  5 active torsions:
REMARK  status: ('A' for Active; 'I' for Inactive)
REMARK    1  A    between atoms: O1_2  and  C2_3 
REMARK    2  A    between atoms: C2_3  and  C3_4 
REMARK    3  A    between atoms: C3_4  and  C4_5 
REMARK    4  A    between atoms: C6_7  and  N1_8 
REMARK       I    between atoms: N1_8  and  C7_9 
REMARK    5  A    between atoms: C7_9  and  C8_11 
ROOT
HETATM    1  N1  UNL     1      23.172   1.416  52.466  1.00  0.00    -0.322 N 
HETATM    2  C7  UNL     1      24.040   0.434  53.015  1.00  0.00     0.252 C 
HETATM    3  O2  UNL     1      23.665  -0.743  53.237  1.00  0.00    -0.268 OA
HETATM    4  H8  UNL     1      23.531   2.382  52.300  1.00  0.00     0.169 HD
ENDROOT
BRANCH   1   5
HETATM    5  C6  UNL     1      21.820   1.127  52.132  1.00  0.00     0.046 C 
HETATM    6  C5  UNL     1      20.827   0.959  52.960  1.00  0.00     0.010 C 
HETATM    7  C4  UNL     1      19.893   0.144  52.494  1.00  0.00    -0.043 C 
HETATM    8  C16 UNL     1      20.034   0.347  51.050  1.00  0.00     0.010 C 
HETATM    9  C15 UNL     1      21.213   0.948  50.819  1.00  0.00     0.031 C 
BRANCH   7  10
HETATM   10  C3  UNL     1      18.955  -0.737  53.202  1.00  0.00     0.066 C 
BRANCH  10  11
HETATM   11  C2  UNL     1      17.694  -0.871  52.372  1.00  0.00     0.171 C 
BRANCH  11  12
HETATM   12  O1  UNL     1      16.970  -1.942  52.847  1.00  0.00    -0.396 OA
HETATM   13  C1  UNL     1      17.744  -2.772  53.657  1.00  0.00     0.201 C 
ENDBRANCH  11  12
ENDBRANCH  10  11
ENDBRANCH   7  10
ENDBRANCH   1   5
BRANCH   2  14
HETATM   14  C8  UNL     1      25.414   0.792  53.335  1.00  0.00     0.011 C 
HETATM   15  C9  UNL     1      25.985   2.005  53.227  1.00  0.00     0.021 C 
HETATM   16  C10 UNL     1      27.399   2.001  53.641  1.00  0.00    -0.036 C 
HETATM   17  C11 UNL     1      28.618   2.499  53.626  1.00  0.00     0.090 C 
HETATM   18  C13 UNL     1      27.469   0.801  54.555  1.00  0.00     0.042 C 
HETATM   19  N2  UNL     1      29.540   1.749  54.447  1.00  0.00    -0.398 N 
HETATM   20  C12 UNL     1      28.906   0.419  54.402  1.00  0.00     0.128 C 
HETATM   21  H11 UNL     1      30.324   2.350  54.796  1.00  0.00     0.158 HD
HETATM   22  C14 UNL     1      26.494  -0.124  53.863  1.00  0.00     0.055 C 
ENDBRANCH   2  14
TORSDOF 5
ENDMDL
MODEL 5
REMARK VINA RESULT:      -6.6      3.000      8.500
REMARK  5 active torsions:
REMARK  status: ('A' for Active; 'I' for Inactive)
REMARK    1  A    between atoms: O1_2  and  C2_3 
REMARK    2  A    between atoms: C2_3  and  C3_4 
REMARK    3  A    between atoms: C3_4  and  C4_5 
REMARK    4  A    between atoms: C6_7  and  N1_8 
REMARK       I    between atoms: N1_8  and  C7_9 
REMARK    5  A    between atoms: C7_9  and  C8_11 
ROOT
HETATM    1  N1  UNL     1      24.360   2.611  50.956  1.00  0.00    -0.322 N 
HETATM    2  C7  UNL     1      24.597   1.888  52.156  1.00  0.00     0.252 C 
HETATM    3  O2  UNL     1      25.686   1.960  52.778  1.00  0.00    -0.268 OA
HETATM    4  H8  UNL     1      23.437   2.518  50.476  1.00  0.00     0.169 HD
ENDROOT
BRANCH   1   5
HETATM    5  C6  UNL     1      25.342   3.463  50.382  1.00  0.00     0.046 C 
HETATM    6  C5  UNL     1      25.308   4.765  50.313  1.00  0.00     0.010 C 
HETATM    7  C4  UNL     1      25.958   5.249  49.266  1.00  0.00    -0.043 C 
HETATM    8  C16 UNL     1      26.972   4.214  49.059  1.00  0.00     0.010 C 
HETATM    9  C15 UNL     1      26.603   3.115  49.738  1.00  0.00     0.031 C 
BRANCH   7  10
HETATM   10  C3  UNL     1      25.747   6.483  48.499  1.00  0.00     0.066 C 
BRANCH  10  11
HETATM   11  C2  UNL     1      27.096   7.093  48.178  1.00  0.00     0.171 C 
BRANCH  11  12
HETATM   12  O1  UNL     1      27.038   8.444  48.437  1.00  0.00    -0.396 OA
HETATM   13  C1  UNL     1      28.252   9.075  48.173  1.00  0.00     0.201 C 
ENDBRANCH  11  12
ENDBRANCH  10  11
ENDBRANCH   7  10
ENDBRANCH   1   5
BRANCH   2  14
HETATM   14  C8  UNL     1      23.550   1.032  52.696  1.00  0.00     0.011 C 
HETATM   15  C9  UNL     1      23.711  -0.080  53.435  1.00  0.00     0.021 C 
HETATM   16  C10 UNL     1      22.426  -0.697  53.809  1.00  0.00    -0.036 C 
HETATM   17  C11 UNL     1      21.693  -1.726  54.181  1.00  0.00     0.090 C 
HETATM   18  C13 UNL     1      21.465   0.465  53.716  1.00  0.00     0.042 C 
HETATM   19  N2  UNL     1      20.299  -1.389  54.351  1.00  0.00    -0.398 N 
HETATM   20  C12 UNL     1      20.190  -0.254  53.417  1.00  0.00     0.128 C 
HETATM   21  H11 UNL     1      19.830  -2.020  55.044  1.00  0.00     0.158 HD
HETATM   22  C14 UNL     1      22.058   1.211  52.543  1.00  0.00     0.055 C 
ENDBRANCH   2  14
TORSDOF 5
ENDMDL
MODEL 6
REMARK VINA RESULT:      -6.5      5.564      9.018
REMARK  5 active torsions:
REMARK  status: ('A' for Active; 'I' for Inactive)
REMARK    1  A    between atoms: O1_2  and  C2_3 
REMARK    2  A    between atoms: C2_3  and  C3_4 
REMARK    3  A    between atoms: C3_4  and  C4_5 
REMARK    4  A    between atoms: C6_7  and  N1_8 
REMARK       I    between atoms: N1_8  and  C7_9 
REMARK    5  A    between atoms: C7_9  and  C8_11 
ROOT
HETATM    1  N1  UNL     1      21.621   0.225  52.130  1.00  0.00    -0.322 N 
HETATM    2  C7  UNL     1      20.635  -0.047  53.116  1.00  0.00     0.252 C 
HETATM    3  O2  UNL     1      20.885  -0.002  54.346  1.00  0.00    -0.268 OA
HETATM    4  H8  UNL     1      21.363   0.175  51.120  1.00  0.00     0.169 HD
ENDROOT
BRANCH   1   5
HETATM    5  C6  UNL     1      22.958   0.565  52.474  1.00  0.00     0.046 C 
HETATM    6  C5  UNL     1      23.924  -0.258  52.776  1.00  0.00     0.010 C 
HETATM    7  C4  UNL     1      24.814   0.266  53.605  1.00  0.00    -0.043 C 
HETATM    8  C16 UNL     1      24.712   1.688  53.269  1.00  0.00     0.010 C 
HETATM    9  C15 UNL     1      23.578   1.880  52.576  1.00  0.00     0.031 C 
BRANCH   7  10
HETATM   10  C3  UNL     1      25.682  -0.373  54.602  1.00  0.00     0.066 C 
BRANCH  10  11
HETATM   11  C2  UNL     1      26.961   0.431  54.720  1.00  0.00     0.171 C 
BRANCH  11  12
HETATM   12  O1  UNL     1      28.015  -0.443  54.864  1.00  0.00    -0.396 OA
HETATM   13  C1  UNL     1      28.682  -0.653  53.659  1.00  0.00     0.201 C 
ENDBRANCH  11  12
ENDBRANCH  10  11
ENDBRANCH   7  10
ENDBRANCH   1   5
BRANCH   2  14
HETATM   14  C8  UNL     1      19.281  -0.389  52.700  1.00  0.00     0.011 C 
HETATM   15  C9  UNL     1      18.395  -1.150  53.366  1.00  0.00     0.021 C 
HETATM   16  C10 UNL     1      17.117  -1.286  52.645  1.00  0.00    -0.036 C 
HETATM   17  C11 UNL     1      15.990  -1.915  52.380  1.00  0.00     0.090 C 
HETATM   18  C13 UNL     1      17.110  -0.064  51.757  1.00  0.00     0.042 C 
HETATM   19  N2  UNL     1      15.195  -1.244  51.379  1.00  0.00    -0.398 N 
HETATM   20  C12 UNL     1      16.256  -0.546  50.630  1.00  0.00     0.128 C 
HETATM   21  H11 UNL     1      14.174  -1.451  51.493  1.00  0.00     0.158 HD
HETATM   22  C14 UNL     1      18.582   0.041  51.432  1.00  0.00     0.055 C 
ENDBRANCH   2  14
TORSDOF 5
ENDMDL
MODEL 7
REMARK VINA RESULT:      -6.5      1.812      2.980
REMARK  5 active torsions:
REMARK  status: ('A' for Active; 'I' for Inactive)
REMARK    1  A    between atoms: O1_2  and  C2_3 
REMARK    2  A    between atoms: C2_3  and  C3_4 
REMARK    3  A    between atoms: C3_4  and  C4_5 
REMARK    4  A    between atoms: C6_7  and  N1_8 
REMARK       I    between atoms: N1_8  and  C7_9 
REMARK    5  A    between atoms: C7_9  and  C8_11 
ROOT
HETATM    1  N1  UNL     1      25.710   3.661  51.094  1.00  0.00    -0.322 N 
HETATM    2  C7  UNL     1      26.511   3.650  49.921  1.00  0.00     0.252 C 
HETATM    3  O2  UNL     1      26.948   2.587  49.416  1.00  0.00    -0.268 OA
HETATM    4  H8  UNL     1      25.371   4.572  51.474  1.00  0.00     0.169 HD
ENDROOT
BRANCH   1   5
HETATM    5  C6  UNL     1      25.352   2.465  51.774  1.00  0.00     0.046 C 
HETATM    6  C5  UNL     1      24.320   1.705  51.533  1.00  0.00     0.010 C 
HETATM    7  C4  UNL     1      23.883   1.064  52.606  1.00  0.00    -0.043 C 
HETATM    8  C16 UNL     1      25.117   0.943  53.385  1.00  0.00     0.010 C 
HETATM    9  C15 UNL     1      26.022   1.798  52.883  1.00  0.00     0.031 C 
BRANCH   7  10
HETATM   10  C3  UNL     1      22.537   0.589  52.953  1.00  0.00     0.066 C 
BRANCH  10  11
HETATM   11  C2  UNL     1      22.584  -0.914  53.136  1.00  0.00     0.171 C 
BRANCH  11  12
HETATM   12  O1  UNL     1      21.920  -1.233  54.300  1.00  0.00    -0.396 OA
HETATM   13  C1  UNL     1      21.186  -0.155  54.791  1.00  0.00     0.201 C 
ENDBRANCH  11  12
ENDBRANCH  10  11
ENDBRANCH   7  10
ENDBRANCH   1   5
BRANCH   2  14
HETATM   14  C8  UNL     1      26.844   4.910  49.269  1.00  0.00     0.011 C 
HETATM   15  C9  UNL     1      27.920   5.170  48.505  1.00  0.00     0.021 C 
HETATM   16  C10 UNL     1      27.935   6.557  48.008  1.00  0.00    -0.036 C 
HETATM   17  C11 UNL     1      28.556   7.620  47.542  1.00  0.00     0.090 C 
HETATM   18  C13 UNL     1      26.475   6.941  48.066  1.00  0.00     0.042 C 
HETATM   19  N2  UNL     1      27.660   8.720  47.273  1.00  0.00    -0.398 N 
HETATM   20  C12 UNL     1      26.585   8.421  48.236  1.00  0.00     0.128 C 
HETATM   21  H11 UNL     1      28.033   9.349  46.523  1.00  0.00     0.158 HD
HETATM   22  C14 UNL     1      26.048   6.193  49.308  1.00  0.00     0.055 C 
ENDBRANCH   2  14
TORSDOF 5
ENDMDL
MODEL 8
REMARK VINA RESULT:      -6.5      2.416      7.751
REMARK  5 active torsions:
REMARK  status: ('A' for Active; 'I' for Inactive)
REMARK    1  A    between atoms: O1_2  and  C2_3 
REMARK    2  A    between atoms: C2_3  and  C3_4 
REMARK    3  A    between atoms: C3_4  and  C4_5 
REMARK    4  A    between atoms: C6_7  and  N1_8 
REMARK       I    between atoms: N1_8  and  C7_9 
REMARK    5  A    between atoms: C7_9  and  C8_11 
ROOT
HETATM    1  N1  UNL     1      26.002   4.389  50.559  1.00  0.00    -0.322 N 
HETATM    2  C7  UNL     1      26.523   3.073  50.438  1.00  0.00     0.252 C 
HETATM    3  O2  UNL     1      26.930   2.610  49.344  1.00  0.00    -0.268 OA
HETATM    4  H8  UNL     1      25.676   4.727  51.491  1.00  0.00     0.169 HD
ENDROOT
BRANCH   1   5
HETATM    5  C6  UNL     1      25.908   5.269  49.446  1.00  0.00     0.046 C 
HETATM    6  C5  UNL     1      26.896   5.813  48.791  1.00  0.00     0.010 C 
HETATM    7  C4  UNL     1      26.584   6.984  48.258  1.00  0.00    -0.043 C 
HETATM    8  C16 UNL     1      25.144   6.825  48.044  1.00  0.00     0.010 C 
HETATM    9  C15 UNL     1      24.721   5.776  48.769  1.00  0.00     0.031 C 
BRANCH   7  10
HETATM   10  C3  UNL     1      27.426   8.148  47.951  1.00  0.00     0.066 C 
BRANCH  10  11
HETATM   11  C2  UNL     1      28.561   8.205  48.953  1.00  0.00     0.171 C 
BRANCH  11  12
HETATM   12  O1  UNL     1      29.706   8.595  48.296  1.00  0.00    -0.396 OA
HETATM   13  C1  UNL     1      30.499   9.426  49.086  1.00  0.00     0.201 C 
ENDBRANCH  11  12
ENDBRANCH  10  11
ENDBRANCH   7  10
ENDBRANCH   1   5
BRANCH   2  14
HETATM   14  C8  UNL     1      26.594   2.220  51.617  1.00  0.00     0.011 C 
HETATM   15  C9  UNL     1      27.530   2.243  52.581  1.00  0.00     0.021 C 
HETATM   16  C10 UNL     1      27.286   1.233  53.626  1.00  0.00    -0.036 C 
HETATM   17  C11 UNL     1      27.689   0.445  54.602  1.00  0.00     0.090 C 
HETATM   18  C13 UNL     1      25.801   0.988  53.504  1.00  0.00     0.042 C 
HETATM   19  N2  UNL     1      26.618  -0.336  55.172  1.00  0.00    -0.398 N 
HETATM   20  C12 UNL     1      25.709  -0.414  54.014  1.00  0.00     0.128 C 
HETATM   21  H11 UNL     1      26.810  -0.588  56.170  1.00  0.00     0.158 HD
HETATM   22  C14 UNL     1      25.626   1.128  52.010  1.00  0.00     0.055 C 
ENDBRANCH   2  14
TORSDOF 5
ENDMDL
MODEL 9
REMARK VINA RESULT:      -6.2      4.183      7.640
REMARK  5 active torsions:
REMARK  status: ('A' for Active; 'I' for Inactive)
REMARK    1  A    between atoms: O1_2  and  C2_3 
REMARK    2  A    between atoms: C2_3  and  C3_4 
REMARK    3  A    between atoms: C3_4  and  C4_5 
REMARK    4  A    between atoms: C6_7  and  N1_8 
REMARK       I    between atoms: N1_8  and  C7_9 
REMARK    5  A    between atoms: C7_9  and  C8_11 
ROOT
HETATM    1  N1  UNL     1      29.835   6.020  48.878  1.00  0.00    -0.322 N 
HETATM    2  C7  UNL     1      28.645   6.346  48.174  1.00  0.00     0.252 C 
HETATM    3  O2  UNL     1      28.633   7.157  47.215  1.00  0.00    -0.268 OA
HETATM    4  H8  UNL     1      29.792   5.340  49.669  1.00  0.00     0.169 HD
ENDROOT
BRANCH   1   5
HETATM    5  C6  UNL     1      31.092   6.592  48.541  1.00  0.00     0.046 C 
HETATM    6  C5  UNL     1      31.881   6.233  47.567  1.00  0.00     0.010 C 
HETATM    7  C4  UNL     1      33.160   6.461  47.821  1.00  0.00    -0.043 C 
HETATM    8  C16 UNL     1      33.069   7.605  48.730  1.00  0.00     0.010 C 
HETATM    9  C15 UNL     1      31.805   7.693  49.177  1.00  0.00     0.031 C 
BRANCH   7  10
HETATM   10  C3  UNL     1      34.366   5.775  47.340  1.00  0.00     0.066 C 
BRANCH  10  11
HETATM   11  C2  UNL     1      34.461   4.425  48.021  1.00  0.00     0.171 C 
BRANCH  11  12
HETATM   12  O1  UNL     1      34.101   3.452  47.116  1.00  0.00    -0.396 OA
HETATM   13  C1  UNL     1      33.159   2.573  47.647  1.00  0.00     0.201 C 
ENDBRANCH  11  12
ENDBRANCH  10  11
ENDBRANCH   7  10
ENDBRANCH   1   5
BRANCH   2  14
HETATM   14  C8  UNL     1      27.387   5.726  48.567  1.00  0.00     0.011 C 
HETATM   15  C9  UNL     1      27.210   4.482  49.046  1.00  0.00     0.021 C 
HETATM   16  C10 UNL     1      25.796   4.189  49.339  1.00  0.00    -0.036 C 
HETATM   17  C11 UNL     1      24.792   3.355  49.518  1.00  0.00     0.090 C 
HETATM   18  C13 UNL     1      25.210   5.567  49.537  1.00  0.00     0.042 C 
HETATM   19  N2  UNL     1      23.550   4.028  49.818  1.00  0.00    -0.398 N 
HETATM   20  C12 UNL     1      23.787   5.321  49.151  1.00  0.00     0.128 C 
HETATM   21  H11 UNL     1      22.908   3.422  50.383  1.00  0.00     0.158 HD
HETATM   22  C14 UNL     1      26.012   6.349  48.523  1.00  0.00     0.055 C 
ENDBRANCH   2  14
TORSDOF 5
ENDMDL
