MODEL 1
REMARK VINA RESULT:      -7.1      0.000      0.000
REMARK  5 active torsions:
REMARK  status: ('A' for Active; 'I' for Inactive)
REMARK    1  A    between atoms: O1_2  and  C2_3 
REMARK    2  A    between atoms: C6_9  and  O2_10 
REMARK    3  A    between atoms: O2_10  and  C7_11 
REMARK    4  A    between atoms: C8_12  and  C9_13 
REMARK    5  A    between atoms: C14_19  and  O3_20 
ROOT
HETATM    1  C2  UNL     1      27.380   0.657  53.554  1.00  0.00     0.103 A 
HETATM    2  C3  UNL     1      26.855  -0.071  54.625  1.00  0.00     0.072 A 
HETATM    3  C4  UNL     1      25.507  -0.431  54.624  1.00  0.00     0.075 A 
HETATM    4  N1  UNL     1      24.955  -1.138  55.643  1.00  0.00    -0.241 NA
HETATM    5  C5  UNL     1      23.648  -1.481  55.632  1.00  0.00     0.236 A 
HETATM    6  N2  UNL     1      22.826  -1.139  54.607  1.00  0.00    -0.217 NA
HETATM    7  C6  UNL     1      23.349  -0.434  53.576  1.00  0.00     0.182 A 
HETATM    8  C12 UNL     1      24.697  -0.067  53.566  1.00  0.00     0.049 A 
HETATM    9  C13 UNL     1      25.240   0.654  52.516  1.00  0.00     0.057 A 
HETATM   10  C14 UNL     1      26.586   1.021  52.503  1.00  0.00     0.102 A 
ENDROOT
BRANCH   7  11
HETATM   11  O2  UNL     1      22.607  -0.038  52.493  1.00  0.00    -0.304 OA
BRANCH  11  12
HETATM   12  C7  UNL     1      21.256   0.169  52.451  1.00  0.00     0.141 C 
HETATM   13  C8  UNL     1      20.410   0.569  51.514  1.00  0.00     0.011 C 
BRANCH  13  14
HETATM   14  C9  UNL     1      18.949   0.733  51.667  1.00  0.00     0.073 A 
HETATM   15  C10 UNL     1      18.099   0.153  50.594  1.00  0.00     0.003 A 
HETATM   16  C11 UNL     1      18.096  -0.442  51.795  1.00  0.00    -0.003 A 
HETATM   17 BR1  UNL     1      17.708  -1.658  53.240  1.00  0.00    -0.055 Br
ENDBRANCH  13  14
ENDBRANCH  11  12
ENDBRANCH   7  11
BRANCH  10  18
HETATM   18  O3  UNL     1      27.145   1.734  51.478  1.00  0.00    -0.353 OA
HETATM   19  C15 UNL     1      26.513   2.825  50.833  1.00  0.00     0.210 C 
ENDBRANCH  10  18
BRANCH   1  20
HETATM   20  O1  UNL     1      28.701   1.003  53.568  1.00  0.00    -0.353 OA
HETATM   21  C1  UNL     1      29.773   0.094  53.567  1.00  0.00     0.210 C 
ENDBRANCH   1  20
TORSDOF 5
ENDMDL
MODEL 2
REMARK VINA RESULT:      -6.8      3.651      5.159
REMARK  5 active torsions:
REMARK  status: ('A' for Active; 'I' for Inactive)
REMARK    1  A    between atoms: O1_2  and  C2_3 
REMARK    2  A    between atoms: C6_9  and  O2_10 
REMARK    3  A    between atoms: O2_10  and  C7_11 
REMARK    4  A    between atoms: C8_12  and  C9_13 
REMARK    5  A    between atoms: C14_19  and  O3_20 
ROOT
HETATM    1  C2  UNL     1      26.534   0.303  54.345  1.00  0.00     0.103 A 
HETATM    2  C3  UNL     1      25.445  -0.538  54.103  1.00  0.00     0.072 A 
HETATM    3  C4  UNL     1      24.298  -0.029  53.494  1.00  0.00     0.075 A 
HETATM    4  N1  UNL     1      23.217  -0.811  53.239  1.00  0.00    -0.241 NA
HETATM    5  C5  UNL     1      22.111  -0.307  52.649  1.00  0.00     0.236 A 
HETATM    6  N2  UNL     1      22.026   0.997  52.282  1.00  0.00    -0.217 NA
HETATM    7  C6  UNL     1      23.088   1.800  52.523  1.00  0.00     0.182 A 
HETATM    8  C12 UNL     1      24.242   1.303  53.132  1.00  0.00     0.049 A 
HETATM    9  C13 UNL     1      25.334   2.117  53.382  1.00  0.00     0.057 A 
HETATM   10  C14 UNL     1      26.488   1.623  53.991  1.00  0.00     0.102 A 
ENDROOT
BRANCH   7  11
HETATM   11  O2  UNL     1      23.105   3.131  52.192  1.00  0.00    -0.304 OA
BRANCH  11  12
HETATM   12  C7  UNL     1      23.475   3.678  50.995  1.00  0.00     0.141 C 
HETATM   13  C8  UNL     1      24.387   4.565  50.626  1.00  0.00     0.011 C 
BRANCH  13  14
HETATM   14  C9  UNL     1      24.639   5.037  49.248  1.00  0.00     0.073 A 
HETATM   15  C10 UNL     1      24.829   6.501  49.072  1.00  0.00     0.003 A 
HETATM   16  C11 UNL     1      25.896   5.703  48.927  1.00  0.00    -0.003 A 
HETATM   17 BR1  UNL     1      27.694   5.081  48.614  1.00  0.00    -0.055 Br
ENDBRANCH  13  14
ENDBRANCH  11  12
ENDBRANCH   7  11
BRANCH  10  18
HETATM   18  O3  UNL     1      27.578   2.407  54.249  1.00  0.00    -0.353 OA
HETATM   19  C15 UNL     1      28.642   2.612  53.336  1.00  0.00     0.210 C 
ENDBRANCH  10  18
BRANCH   1  20
HETATM   20  O1  UNL     1      27.651  -0.208  54.943  1.00  0.00    -0.353 OA
HETATM   21  C1  UNL     1      28.770  -0.715  54.261  1.00  0.00     0.210 C 
ENDBRANCH   1  20
TORSDOF 5
ENDMDL
MODEL 3
REMARK VINA RESULT:      -6.7      2.623      3.698
REMARK  5 active torsions:
REMARK  status: ('A' for Active; 'I' for Inactive)
REMARK    1  A    between atoms: O1_2  and  C2_3 
REMARK    2  A    between atoms: C6_9  and  O2_10 
REMARK    3  A    between atoms: O2_10  and  C7_11 
REMARK    4  A    between atoms: C8_12  and  C9_13 
REMARK    5  A    between atoms: C14_19  and  O3_20 
ROOT
HETATM    1  C2  UNL     1      27.269  -0.029  53.658  1.00  0.00     0.103 A 
HETATM    2  C3  UNL     1      27.613   0.843  52.621  1.00  0.00     0.072 A 
HETATM    3  C4  UNL     1      26.647   1.694  52.083  1.00  0.00     0.075 A 
HETATM    4  N1  UNL     1      26.937   2.557  51.075  1.00  0.00    -0.241 NA
HETATM    5  C5  UNL     1      25.994   3.377  50.561  1.00  0.00     0.236 A 
HETATM    6  N2  UNL     1      24.717   3.379  51.024  1.00  0.00    -0.217 NA
HETATM    7  C6  UNL     1      24.400   2.529  52.028  1.00  0.00     0.182 A 
HETATM    8  C12 UNL     1      25.357   1.673  52.574  1.00  0.00     0.049 A 
HETATM    9  C13 UNL     1      25.040   0.799  53.603  1.00  0.00     0.057 A 
HETATM   10  C14 UNL     1      25.995  -0.058  54.151  1.00  0.00     0.102 A 
ENDROOT
BRANCH   7  11
HETATM   11  O2  UNL     1      23.141   2.452  52.567  1.00  0.00    -0.304 OA
BRANCH  11  12
HETATM   12  C7  UNL     1      21.998   2.048  51.934  1.00  0.00     0.141 C 
HETATM   13  C8  UNL     1      21.369   0.889  51.812  1.00  0.00     0.011 C 
BRANCH  13  14
HETATM   14  C9  UNL     1      20.113   0.650  51.068  1.00  0.00     0.073 A 
HETATM   15  C10 UNL     1      19.028  -0.049  51.806  1.00  0.00     0.003 A 
HETATM   16  C11 UNL     1      18.870   1.254  51.531  1.00  0.00    -0.003 A 
HETATM   17 BR1  UNL     1      18.128   3.030  51.421  1.00  0.00    -0.055 Br
ENDBRANCH  13  14
ENDBRANCH  11  12
ENDBRANCH   7  11
BRANCH  10  18
HETATM   18  O3  UNL     1      25.707  -0.929  55.166  1.00  0.00    -0.353 OA
HETATM   19  C15 UNL     1      24.393  -1.286  55.555  1.00  0.00     0.210 C 
ENDBRANCH  10  18
BRANCH   1  20
HETATM   20  O1  UNL     1      28.225  -0.857  54.175  1.00  0.00    -0.353 OA
HETATM   21  C1  UNL     1      29.564  -0.906  53.753  1.00  0.00     0.210 C 
ENDBRANCH   1  20
TORSDOF 5
ENDMDL
MODEL 4
REMARK VINA RESULT:      -6.6      2.771      6.213
REMARK  5 active torsions:
REMARK  status: ('A' for Active; 'I' for Inactive)
REMARK    1  A    between atoms: O1_2  and  C2_3 
REMARK    2  A    between atoms: C6_9  and  O2_10 
REMARK    3  A    between atoms: O2_10  and  C7_11 
REMARK    4  A    between atoms: C8_12  and  C9_13 
REMARK    5  A    between atoms: C14_19  and  O3_20 
ROOT
HETATM    1  C2  UNL     1      20.481  -0.394  53.269  1.00  0.00     0.103 A 
HETATM    2  C3  UNL     1      21.059  -0.826  54.466  1.00  0.00     0.072 A 
HETATM    3  C4  UNL     1      22.448  -0.895  54.580  1.00  0.00     0.075 A 
HETATM    4  N1  UNL     1      23.051  -1.308  55.724  1.00  0.00    -0.241 NA
HETATM    5  C5  UNL     1      24.397  -1.371  55.824  1.00  0.00     0.236 A 
HETATM    6  N2  UNL     1      25.209  -1.025  54.791  1.00  0.00    -0.217 NA
HETATM    7  C6  UNL     1      24.635  -0.609  53.638  1.00  0.00     0.182 A 
HETATM    8  C12 UNL     1      23.246  -0.536  53.512  1.00  0.00     0.049 A 
HETATM    9  C13 UNL     1      22.651  -0.111  52.335  1.00  0.00     0.057 A 
HETATM   10  C14 UNL     1      21.264  -0.037  52.206  1.00  0.00     0.102 A 
ENDROOT
BRANCH   7  11
HETATM   11  O2  UNL     1      25.363  -0.237  52.537  1.00  0.00    -0.304 OA
BRANCH  11  12
HETATM   12  C7  UNL     1      25.574   1.034  52.079  1.00  0.00     0.141 C 
HETATM   13  C8  UNL     1      26.555   1.627  51.417  1.00  0.00     0.011 C 
BRANCH  13  14
HETATM   14  C9  UNL     1      26.598   3.046  51.003  1.00  0.00     0.073 A 
HETATM   15  C10 UNL     1      26.539   3.314  49.542  1.00  0.00     0.003 A 
HETATM   16  C11 UNL     1      25.470   3.627  50.287  1.00  0.00    -0.003 A 
HETATM   17 BR1  UNL     1      23.726   4.251  50.824  1.00  0.00    -0.055 Br
ENDBRANCH  13  14
ENDBRANCH  11  12
ENDBRANCH   7  11
BRANCH  10  18
HETATM   18  O3  UNL     1      20.652   0.379  51.056  1.00  0.00    -0.353 OA
HETATM   19  C15 UNL     1      21.343   0.894  49.932  1.00  0.00     0.210 C 
ENDBRANCH  10  18
BRANCH   1  20
HETATM   20  O1  UNL     1      19.120  -0.332  53.171  1.00  0.00    -0.353 OA
HETATM   21  C1  UNL     1      18.255  -1.435  53.259  1.00  0.00     0.210 C 
ENDBRANCH   1  20
TORSDOF 5
ENDMDL
MODEL 5
REMARK VINA RESULT:      -6.6      5.575      8.376
REMARK  5 active torsions:
REMARK  status: ('A' for Active; 'I' for Inactive)
REMARK    1  A    between atoms: O1_2  and  C2_3 
REMARK    2  A    between atoms: C6_9  and  O2_10 
REMARK    3  A    between atoms: O2_10  and  C7_11 
REMARK    4  A    between atoms: C8_12  and  C9_13 
REMARK    5  A    between atoms: C14_19  and  O3_20 
ROOT
HETATM    1  C2  UNL     1      28.413   7.128  47.632  1.00  0.00     0.103 A 
HETATM    2  C3  UNL     1      27.049   7.344  47.846  1.00  0.00     0.072 A 
HETATM    3  C4  UNL     1      26.281   6.358  48.466  1.00  0.00     0.075 A 
HETATM    4  N1  UNL     1      24.953   6.525  48.694  1.00  0.00    -0.241 NA
HETATM    5  C5  UNL     1      24.218   5.564  49.295  1.00  0.00     0.236 A 
HETATM    6  N2  UNL     1      24.768   4.390  49.700  1.00  0.00    -0.217 NA
HETATM    7  C6  UNL     1      26.090   4.196  49.487  1.00  0.00     0.182 A 
HETATM    8  C12 UNL     1      26.869   5.175  48.867  1.00  0.00     0.049 A 
HETATM    9  C13 UNL     1      28.224   4.984  48.644  1.00  0.00     0.057 A 
HETATM   10  C14 UNL     1      29.005   5.960  48.025  1.00  0.00     0.102 A 
ENDROOT
BRANCH   7  11
HETATM   11  O2  UNL     1      26.743   3.048  49.857  1.00  0.00    -0.304 OA
BRANCH  11  12
HETATM   12  C7  UNL     1      26.702   2.434  51.078  1.00  0.00     0.141 C 
HETATM   13  C8  UNL     1      26.659   1.172  51.477  1.00  0.00     0.011 C 
BRANCH  13  14
HETATM   14  C9  UNL     1      26.619   0.699  52.877  1.00  0.00     0.073 A 
HETATM   15  C10 UNL     1      26.227  -0.719  53.088  1.00  0.00     0.003 A 
HETATM   16  C11 UNL     1      27.504  -0.376  53.306  1.00  0.00    -0.003 A 
HETATM   17 BR1  UNL     1      29.378  -0.464  53.752  1.00  0.00    -0.055 Br
ENDBRANCH  13  14
ENDBRANCH  11  12
ENDBRANCH   7  11
BRANCH  10  18
HETATM   18  O3  UNL     1      30.343   5.796  47.794  1.00  0.00    -0.353 OA
HETATM   19  C15 UNL     1      31.342   5.932  48.789  1.00  0.00     0.210 C 
ENDBRANCH  10  18
BRANCH   1  20
HETATM   20  O1  UNL     1      29.154   8.102  47.023  1.00  0.00    -0.353 OA
HETATM   21  C1  UNL     1      29.660   9.247  47.661  1.00  0.00     0.210 C 
ENDBRANCH   1  20
TORSDOF 5
ENDMDL
MODEL 6
REMARK VINA RESULT:      -6.5      2.246      2.598
REMARK  5 active torsions:
REMARK  status: ('A' for Active; 'I' for Inactive)
REMARK    1  A    between atoms: O1_2  and  C2_3 
REMARK    2  A    between atoms: C6_9  and  O2_10 
REMARK    3  A    between atoms: O2_10  and  C7_11 
REMARK    4  A    between atoms: C8_12  and  C9_13 
REMARK    5  A    between atoms: C14_19  and  O3_20 
ROOT
HETATM    1  C2  UNL     1      27.430   0.806  53.380  1.00  0.00     0.103 A 
HETATM    2  C3  UNL     1      26.915   0.005  54.403  1.00  0.00     0.072 A 
HETATM    3  C4  UNL     1      25.556  -0.307  54.421  1.00  0.00     0.075 A 
HETATM    4  N1  UNL     1      25.014  -1.083  55.396  1.00  0.00    -0.241 NA
HETATM    5  C5  UNL     1      23.695  -1.379  55.404  1.00  0.00     0.236 A 
HETATM    6  N2  UNL     1      22.852  -0.919  54.444  1.00  0.00    -0.217 NA
HETATM    7  C6  UNL     1      23.365  -0.145  53.459  1.00  0.00     0.182 A 
HETATM    8  C12 UNL     1      24.724   0.175  53.431  1.00  0.00     0.049 A 
HETATM    9  C13 UNL     1      25.257   0.967  52.427  1.00  0.00     0.057 A 
HETATM   10  C14 UNL     1      26.614   1.288  52.395  1.00  0.00     0.102 A 
ENDROOT
BRANCH   7  11
HETATM   11  O2  UNL     1      22.601   0.370  52.443  1.00  0.00    -0.304 OA
BRANCH  11  12
HETATM   12  C7  UNL     1      21.886   1.536  52.459  1.00  0.00     0.141 C 
HETATM   13  C8  UNL     1      22.186   2.807  52.236  1.00  0.00     0.011 C 
BRANCH  13  14
HETATM   14  C9  UNL     1      21.251   3.950  52.304  1.00  0.00     0.073 A 
HETATM   15  C10 UNL     1      21.658   5.184  51.582  1.00  0.00     0.003 A 
HETATM   16  C11 UNL     1      20.643   4.464  51.083  1.00  0.00    -0.003 A 
HETATM   17 BR1  UNL     1      19.198   3.864  49.956  1.00  0.00    -0.055 Br
ENDBRANCH  13  14
ENDBRANCH  11  12
ENDBRANCH   7  11
BRANCH  10  18
HETATM   18  O3  UNL     1      27.164   2.069  51.416  1.00  0.00    -0.353 OA
HETATM   19  C15 UNL     1      26.409   2.860  50.515  1.00  0.00     0.210 C 
ENDBRANCH  10  18
BRANCH   1  20
HETATM   20  O1  UNL     1      28.763   1.105  53.375  1.00  0.00    -0.353 OA
HETATM   21  C1  UNL     1      29.789   0.220  53.748  1.00  0.00     0.210 C 
ENDBRANCH   1  20
TORSDOF 5
ENDMDL
MODEL 7
REMARK VINA RESULT:      -6.5      3.286      7.427
REMARK  5 active torsions:
REMARK  status: ('A' for Active; 'I' for Inactive)
REMARK    1  A    between atoms: O1_2  and  C2_3 
REMARK    2  A    between atoms: C6_9  and  O2_10 
REMARK    3  A    between atoms: O2_10  and  C7_11 
REMARK    4  A    between atoms: C8_12  and  C9_13 
REMARK    5  A    between atoms: C14_19  and  O3_20 
ROOT
HETATM    1  C2  UNL     1      18.799  -0.321  52.451  1.00  0.00     0.103 A 
HETATM    2  C3  UNL     1      19.377  -0.880  53.594  1.00  0.00     0.072 A 
HETATM    3  C4  UNL     1      20.758  -0.808  53.778  1.00  0.00     0.075 A 
HETATM    4  N1  UNL     1      21.361  -1.337  54.873  1.00  0.00    -0.241 NA
HETATM    5  C5  UNL     1      22.700  -1.262  55.041  1.00  0.00     0.236 A 
HETATM    6  N2  UNL     1      23.504  -0.656  54.130  1.00  0.00    -0.217 NA
HETATM    7  C6  UNL     1      22.929  -0.120  53.028  1.00  0.00     0.182 A 
HETATM    8  C12 UNL     1      21.548  -0.186  52.832  1.00  0.00     0.049 A 
HETATM    9  C13 UNL     1      20.953   0.361  51.707  1.00  0.00     0.057 A 
HETATM   10  C14 UNL     1      19.573   0.297  51.509  1.00  0.00     0.102 A 
ENDROOT
BRANCH   7  11
HETATM   11  O2  UNL     1      23.650   0.513  52.047  1.00  0.00    -0.304 OA
BRANCH  11  12
HETATM   12  C7  UNL     1      24.893   1.069  52.166  1.00  0.00     0.141 C 
HETATM   13  C8  UNL     1      26.116   0.578  52.301  1.00  0.00     0.011 C 
BRANCH  13  14
HETATM   14  C9  UNL     1      27.364   1.362  52.418  1.00  0.00     0.073 A 
HETATM   15  C10 UNL     1      27.588   2.065  53.708  1.00  0.00     0.003 A 
HETATM   16  C11 UNL     1      28.355   1.004  53.424  1.00  0.00    -0.003 A 
HETATM   17 BR1  UNL     1      29.688  -0.384  53.549  1.00  0.00    -0.055 Br
ENDBRANCH  13  14
ENDBRANCH  11  12
ENDBRANCH   7  11
BRANCH  10  18
HETATM   18  O3  UNL     1      18.962   0.828  50.407  1.00  0.00    -0.353 OA
HETATM   19  C15 UNL     1      19.617   1.644  49.452  1.00  0.00     0.210 C 
ENDBRANCH  10  18
BRANCH   1  20
HETATM   20  O1  UNL     1      17.445  -0.399  52.283  1.00  0.00    -0.353 OA
HETATM   21  C1  UNL     1      16.688  -1.580  52.374  1.00  0.00     0.210 C 
ENDBRANCH   1  20
TORSDOF 5
ENDMDL
MODEL 8
REMARK VINA RESULT:      -6.4      5.174      8.044
REMARK  5 active torsions:
REMARK  status: ('A' for Active; 'I' for Inactive)
REMARK    1  A    between atoms: O1_2  and  C2_3 
REMARK    2  A    between atoms: C6_9  and  O2_10 
REMARK    3  A    between atoms: O2_10  and  C7_11 
REMARK    4  A    between atoms: C8_12  and  C9_13 
REMARK    5  A    between atoms: C14_19  and  O3_20 
ROOT
HETATM    1  C2  UNL     1      25.903   7.054  48.010  1.00  0.00     0.103 A 
HETATM    2  C3  UNL     1      24.604   6.585  48.222  1.00  0.00     0.072 A 
HETATM    3  C4  UNL     1      24.405   5.374  48.886  1.00  0.00     0.075 A 
HETATM    4  N1  UNL     1      23.160   4.881  49.114  1.00  0.00    -0.241 NA
HETATM    5  C5  UNL     1      22.978   3.707  49.758  1.00  0.00     0.236 A 
HETATM    6  N2  UNL     1      24.025   2.967  50.209  1.00  0.00    -0.217 NA
HETATM    7  C6  UNL     1      25.277   3.435  49.996  1.00  0.00     0.182 A 
HETATM    8  C12 UNL     1      25.489   4.645  49.332  1.00  0.00     0.049 A 
HETATM    9  C13 UNL     1      26.768   5.131  49.110  1.00  0.00     0.057 A 
HETATM   10  C14 UNL     1      26.983   6.339  48.447  1.00  0.00     0.102 A 
ENDROOT
BRANCH   7  11
HETATM   11  O2  UNL     1      26.401   2.766  50.409  1.00  0.00    -0.304 OA
BRANCH  11  12
HETATM   12  C7  UNL     1      26.507   1.910  51.469  1.00  0.00     0.141 C 
HETATM   13  C8  UNL     1      26.643   0.598  51.587  1.00  0.00     0.011 C 
BRANCH  13  14
HETATM   14  C9  UNL     1      26.742  -0.160  52.854  1.00  0.00     0.073 A 
HETATM   15  C10 UNL     1      26.775  -1.642  52.740  1.00  0.00     0.003 A 
HETATM   16  C11 UNL     1      27.900  -1.010  53.102  1.00  0.00    -0.003 A 
HETATM   17 BR1  UNL     1      29.721  -0.662  53.633  1.00  0.00    -0.055 Br
ENDBRANCH  13  14
ENDBRANCH  11  12
ENDBRANCH   7  11
BRANCH  10  18
HETATM   18  O3  UNL     1      28.234   6.840  48.216  1.00  0.00    -0.353 OA
HETATM   19  C15 UNL     1      29.390   6.038  48.044  1.00  0.00     0.210 C 
ENDBRANCH  10  18
BRANCH   1  20
HETATM   20  O1  UNL     1      26.084   8.241  47.358  1.00  0.00    -0.353 OA
HETATM   21  C1  UNL     1      25.555   8.555  46.094  1.00  0.00     0.210 C 
ENDBRANCH   1  20
TORSDOF 5
ENDMDL
MODEL 9
REMARK VINA RESULT:      -6.3      4.092      7.254
REMARK  5 active torsions:
REMARK  status: ('A' for Active; 'I' for Inactive)
REMARK    1  A    between atoms: O1_2  and  C2_3 
REMARK    2  A    between atoms: C6_9  and  O2_10 
REMARK    3  A    between atoms: O2_10  and  C7_11 
REMARK    4  A    between atoms: C8_12  and  C9_13 
REMARK    5  A    between atoms: C14_19  and  O3_20 
ROOT
HETATM    1  C2  UNL     1      22.706   0.321  52.778  1.00  0.00     0.103 A 
HETATM    2  C3  UNL     1      23.982   0.192  53.331  1.00  0.00     0.072 A 
HETATM    3  C4  UNL     1      25.054   0.888  52.771  1.00  0.00     0.075 A 
HETATM    4  N1  UNL     1      26.311   0.792  53.277  1.00  0.00    -0.241 NA
HETATM    5  C5  UNL     1      27.342   1.470  52.726  1.00  0.00     0.236 A 
HETATM    6  N2  UNL     1      27.173   2.278  51.647  1.00  0.00    -0.217 NA
HETATM    7  C6  UNL     1      25.931   2.393  51.122  1.00  0.00     0.182 A 
HETATM    8  C12 UNL     1      24.851   1.701  51.674  1.00  0.00     0.049 A 
HETATM    9  C13 UNL     1      23.576   1.813  51.143  1.00  0.00     0.057 A 
HETATM   10  C14 UNL     1      22.494   1.123  51.692  1.00  0.00     0.102 A 
ENDROOT
BRANCH   7  11
HETATM   11  O2  UNL     1      25.653   3.180  50.034  1.00  0.00    -0.304 OA
BRANCH  11  12
HETATM   12  C7  UNL     1      26.017   4.485  49.847  1.00  0.00     0.141 C 
HETATM   13  C8  UNL     1      26.755   5.118  48.948  1.00  0.00     0.011 C 
BRANCH  13  14
HETATM   14  C9  UNL     1      27.038   6.570  48.916  1.00  0.00     0.073 A 
HETATM   15  C10 UNL     1      27.898   7.053  47.804  1.00  0.00     0.003 A 
HETATM   16  C11 UNL     1      26.595   7.370  47.781  1.00  0.00    -0.003 A 
HETATM   17 BR1  UNL     1      24.892   8.097  47.245  1.00  0.00    -0.055 Br
ENDBRANCH  13  14
ENDBRANCH  11  12
ENDBRANCH   7  11
BRANCH  10  18
HETATM   18  O3  UNL     1      21.227   1.217  51.185  1.00  0.00    -0.353 OA
HETATM   19  C15 UNL     1      20.298   2.220  51.554  1.00  0.00     0.210 C 
ENDBRANCH  10  18
BRANCH   1  20
HETATM   20  O1  UNL     1      21.665  -0.367  53.336  1.00  0.00    -0.353 OA
HETATM   21  C1  UNL     1      21.068  -0.063  54.570  1.00  0.00     0.210 C 
ENDBRANCH   1  20
TORSDOF 5
ENDMDL
