MODEL 1
REMARK VINA RESULT:      -9.4      0.000      0.000
REMARK  6 active torsions:
REMARK  status: ('A' for Active; 'I' for Inactive)
REMARK    1  A    between atoms: C2_2  and  C3_3 
REMARK    2  A    between atoms: C2_2  and  C4_5 
REMARK    3  A    between atoms: C7_8  and  N1_9 
REMARK    4  A    between atoms: N1_9  and  C8_10 
REMARK    5  A    between atoms: C9_11  and  C10_12 
REMARK    6  A    between atoms: C18_23  and  N4_24 
ROOT
HETATM    1  C8  UNL     1      24.439   1.893  52.332  1.00  0.00     0.088 A 
HETATM    2  C9  UNL     1      23.612   0.956  52.737  1.00  0.00     0.001 A 
HETATM    3  C16 UNL     1      24.307   0.041  53.659  1.00  0.00     0.168 A 
HETATM    4  N2  UNL     1      25.601   0.612  53.849  1.00  0.00    -0.340 N 
HETATM    5  C17 UNL     1      26.557   0.071  54.789  1.00  0.00     0.295 A 
HETATM    6  N3  UNL     1      27.819   0.785  54.666  1.00  0.00    -0.086 NA
HETATM    7  C18 UNL     1      27.929   1.804  53.851  1.00  0.00     0.719 A 
HETATM    8  N5  UNL     1      26.898   2.295  53.010  1.00  0.00    -0.043 NA
HETATM    9  C19 UNL     1      25.740   1.740  52.997  1.00  0.00     0.174 A 
ENDROOT
BRANCH   1  10
HETATM   10  N1  UNL     1      24.243   2.970  51.435  1.00  0.00    -0.353 N 
HETATM   11  H9  UNL     1      23.233   3.218  51.448  1.00  0.00     0.166 HD
BRANCH  10  12
HETATM   12  C7  UNL     1      25.121   3.700  50.606  1.00  0.00     0.032 A 
HETATM   13  C6  UNL     1      26.203   3.208  49.915  1.00  0.00     0.030 A 
HETATM   14  C5  UNL     1      27.028   3.988  49.135  1.00  0.00     0.010 A 
HETATM   15  C4  UNL     1      26.790   5.359  49.007  1.00  0.00    -0.053 A 
HETATM   16  C21 UNL     1      25.710   5.829  49.700  1.00  0.00     0.010 A 
HETATM   17  C20 UNL     1      24.885   5.055  50.481  1.00  0.00     0.030 A 
BRANCH  15  18
HETATM   18  C2  UNL     1      27.720   6.118  48.171  1.00  0.00     0.028 C 
HETATM   19  C1  UNL     1      27.760   7.609  48.496  1.00  0.00     0.016 C 
BRANCH  18  20
HETATM   20  C3  UNL     1      29.124   5.562  48.151  1.00  0.00     0.123 C 
HETATM   21 CL1  UNL     1      30.366   6.749  48.549  1.00  0.00    -0.130 Cl
ENDBRANCH  18  20
ENDBRANCH  15  18
ENDBRANCH  10  12
ENDBRANCH   1  10
BRANCH   2  22
HETATM   22  C10 UNL     1      22.219   0.583  52.506  1.00  0.00    -0.026 A 
HETATM   23  C11 UNL     1      21.531   0.168  53.622  1.00  0.00     0.014 A 
HETATM   24  C12 UNL     1      20.185  -0.201  53.545  1.00  0.00     0.024 A 
HETATM   25  C13 UNL     1      19.505  -0.159  52.332  1.00  0.00     0.034 A 
HETATM   26 CL2  UNL     1      17.822  -0.606  52.159  1.00  0.00    -0.084 Cl
HETATM   27  C14 UNL     1      20.247   0.268  51.233  1.00  0.00     0.024 A 
HETATM   28  C15 UNL     1      21.569   0.633  51.301  1.00  0.00     0.014 A 
ENDBRANCH   2  22
BRANCH   7  29
HETATM   29  N4  UNL     1      29.113   2.605  53.629  1.00  0.00    -0.231 N 
HETATM   30  H18 UNL     1      30.001   2.069  53.531  1.00  0.00     0.174 HD
HETATM   31  H19 UNL     1      29.026   3.633  53.580  1.00  0.00     0.174 HD
ENDBRANCH   7  29
TORSDOF 6
ENDMDL
MODEL 2
REMARK VINA RESULT:      -9.3      2.872      3.349
REMARK  6 active torsions:
REMARK  status: ('A' for Active; 'I' for Inactive)
REMARK    1  A    between atoms: C2_2  and  C3_3 
REMARK    2  A    between atoms: C2_2  and  C4_5 
REMARK    3  A    between atoms: C7_8  and  N1_9 
REMARK    4  A    between atoms: N1_9  and  C8_10 
REMARK    5  A    between atoms: C9_11  and  C10_12 
REMARK    6  A    between atoms: C18_23  and  N4_24 
ROOT
HETATM    1  C8  UNL     1      25.098   1.979  53.053  1.00  0.00     0.088 A 
HETATM    2  C9  UNL     1      24.292   0.947  53.159  1.00  0.00     0.001 A 
HETATM    3  C16 UNL     1      25.015  -0.193  53.752  1.00  0.00     0.168 A 
HETATM    4  N2  UNL     1      26.302   0.320  54.096  1.00  0.00    -0.340 N 
HETATM    5  C17 UNL     1      27.280  -0.463  54.819  1.00  0.00     0.295 A 
HETATM    6  N3  UNL     1      28.528   0.280  54.909  1.00  0.00    -0.086 NA
HETATM    7  C18 UNL     1      28.609   1.501  54.444  1.00  0.00     0.719 A 
HETATM    8  N5  UNL     1      27.559   2.205  53.802  1.00  0.00    -0.043 NA
HETATM    9  C19 UNL     1      26.410   1.657  53.629  1.00  0.00     0.174 A 
ENDROOT
BRANCH   1  10
HETATM   10  N1  UNL     1      24.871   3.274  52.529  1.00  0.00    -0.353 N 
HETATM   11  H9  UNL     1      25.370   3.957  53.135  1.00  0.00     0.166 HD
BRANCH  10  12
HETATM   12  C7  UNL     1      24.146   3.744  51.414  1.00  0.00     0.032 A 
HETATM   13  C6  UNL     1      22.995   4.497  51.435  1.00  0.00     0.030 A 
HETATM   14  C5  UNL     1      22.331   4.906  50.300  1.00  0.00     0.010 A 
HETATM   15  C4  UNL     1      22.817   4.563  49.035  1.00  0.00    -0.053 A 
HETATM   16  C21 UNL     1      23.962   3.817  49.035  1.00  0.00     0.010 A 
HETATM   17  C20 UNL     1      24.627   3.405  50.165  1.00  0.00     0.030 A 
BRANCH  15  18
HETATM   18  C2  UNL     1      22.046   5.027  47.881  1.00  0.00     0.028 C 
HETATM   19  C1  UNL     1      22.756   6.101  47.061  1.00  0.00     0.016 C 
BRANCH  18  20
HETATM   20  C3  UNL     1      21.575   3.918  46.971  1.00  0.00     0.123 C 
HETATM   21 CL1  UNL     1      20.810   2.576  47.820  1.00  0.00    -0.130 Cl
ENDBRANCH  18  20
ENDBRANCH  15  18
ENDBRANCH  10  12
ENDBRANCH   1  10
BRANCH   2  22
HETATM   22  C10 UNL     1      22.903   0.634  52.837  1.00  0.00    -0.026 A 
HETATM   23  C11 UNL     1      22.148   0.170  53.888  1.00  0.00     0.014 A 
HETATM   24  C12 UNL     1      20.797  -0.150  53.721  1.00  0.00     0.024 A 
HETATM   25  C13 UNL     1      20.181  -0.010  52.483  1.00  0.00     0.034 A 
HETATM   26 CL2  UNL     1      18.496  -0.390  52.199  1.00  0.00    -0.084 Cl
HETATM   27  C14 UNL     1      20.989   0.463  51.452  1.00  0.00     0.024 A 
HETATM   28  C15 UNL     1      22.316   0.781  51.607  1.00  0.00     0.014 A 
ENDBRANCH   2  22
BRANCH   7  29
HETATM   29  N4  UNL     1      29.776   2.356  54.467  1.00  0.00    -0.231 N 
HETATM   30  H18 UNL     1      29.653   3.289  54.020  1.00  0.00     0.174 HD
HETATM   31  H19 UNL     1      30.645   2.014  54.911  1.00  0.00     0.174 HD
ENDBRANCH   7  29
TORSDOF 6
ENDMDL
MODEL 3
REMARK VINA RESULT:      -9.2      2.150      2.603
REMARK  6 active torsions:
REMARK  status: ('A' for Active; 'I' for Inactive)
REMARK    1  A    between atoms: C2_2  and  C3_3 
REMARK    2  A    between atoms: C2_2  and  C4_5 
REMARK    3  A    between atoms: C7_8  and  N1_9 
REMARK    4  A    between atoms: N1_9  and  C8_10 
REMARK    5  A    between atoms: C9_11  and  C10_12 
REMARK    6  A    between atoms: C18_23  and  N4_24 
ROOT
HETATM    1  C8  UNL     1      24.985   1.862  53.343  1.00  0.00     0.088 A 
HETATM    2  C9  UNL     1      24.259   0.768  53.401  1.00  0.00     0.001 A 
HETATM    3  C16 UNL     1      25.110  -0.378  53.767  1.00  0.00     0.168 A 
HETATM    4  N2  UNL     1      26.394   0.182  54.040  1.00  0.00    -0.340 N 
HETATM    5  C17 UNL     1      27.491  -0.608  54.553  1.00  0.00     0.295 A 
HETATM    6  N3  UNL     1      28.695   0.208  54.608  1.00  0.00    -0.086 NA
HETATM    7  C18 UNL     1      28.651   1.478  54.294  1.00  0.00     0.719 A 
HETATM    8  N5  UNL     1      27.496   2.175  53.857  1.00  0.00    -0.043 NA
HETATM    9  C19 UNL     1      26.370   1.570  53.736  1.00  0.00     0.174 A 
ENDROOT
BRANCH   1  10
HETATM   10  N1  UNL     1      24.625   3.190  53.013  1.00  0.00    -0.353 N 
HETATM   11  H9  UNL     1      24.661   3.757  53.884  1.00  0.00     0.166 HD
BRANCH  10  12
HETATM   12  C7  UNL     1      24.263   3.812  51.800  1.00  0.00     0.032 A 
HETATM   13  C6  UNL     1      23.528   4.965  51.650  1.00  0.00     0.030 A 
HETATM   14  C5  UNL     1      23.199   5.506  50.427  1.00  0.00     0.010 A 
HETATM   15  C4  UNL     1      23.615   4.885  49.245  1.00  0.00    -0.053 A 
HETATM   16  C21 UNL     1      24.345   3.742  49.414  1.00  0.00     0.010 A 
HETATM   17  C20 UNL     1      24.674   3.198  50.633  1.00  0.00     0.030 A 
BRANCH  15  18
HETATM   18  C2  UNL     1      23.212   5.517  47.988  1.00  0.00     0.028 C 
HETATM   19  C1  UNL     1      21.700   5.595  47.798  1.00  0.00     0.016 C 
BRANCH  18  20
HETATM   20  C3  UNL     1      23.826   6.877  47.759  1.00  0.00     0.123 C 
HETATM   21 CL1  UNL     1      25.566   6.931  48.045  1.00  0.00    -0.130 Cl
ENDBRANCH  18  20
ENDBRANCH  15  18
ENDBRANCH  10  12
ENDBRANCH   1  10
BRANCH   2  22
HETATM   22  C10 UNL     1      22.863   0.396  53.186  1.00  0.00    -0.026 A 
HETATM   23  C11 UNL     1      22.297  -0.357  54.188  1.00  0.00     0.014 A 
HETATM   24  C12 UNL     1      20.962  -0.766  54.117  1.00  0.00     0.024 A 
HETATM   25  C13 UNL     1      20.170  -0.423  53.026  1.00  0.00     0.034 A 
HETATM   26 CL2  UNL     1      18.493  -0.899  52.869  1.00  0.00    -0.084 Cl
HETATM   27  C14 UNL     1      20.791   0.340  52.040  1.00  0.00     0.024 A 
HETATM   28  C15 UNL     1      22.102   0.746  52.102  1.00  0.00     0.014 A 
ENDBRANCH   2  22
BRANCH   7  29
HETATM   29  N4  UNL     1      29.761   2.407  54.305  1.00  0.00    -0.231 N 
HETATM   30  H18 UNL     1      29.610   3.273  54.864  1.00  0.00     0.174 HD
HETATM   31  H19 UNL     1      30.619   2.176  53.779  1.00  0.00     0.174 HD
ENDBRANCH   7  29
TORSDOF 6
ENDMDL
MODEL 4
REMARK VINA RESULT:      -9.2      3.762      6.948
REMARK  6 active torsions:
REMARK  status: ('A' for Active; 'I' for Inactive)
REMARK    1  A    between atoms: C2_2  and  C3_3 
REMARK    2  A    between atoms: C2_2  and  C4_5 
REMARK    3  A    between atoms: C7_8  and  N1_9 
REMARK    4  A    between atoms: N1_9  and  C8_10 
REMARK    5  A    between atoms: C9_11  and  C10_12 
REMARK    6  A    between atoms: C18_23  and  N4_24 
ROOT
HETATM    1  C8  UNL     1      21.252   0.815  52.317  1.00  0.00     0.088 A 
HETATM    2  C9  UNL     1      21.235   1.549  51.228  1.00  0.00     0.001 A 
HETATM    3  C16 UNL     1      19.980   1.319  50.490  1.00  0.00     0.168 A 
HETATM    4  N2  UNL     1      19.206   0.462  51.328  1.00  0.00    -0.340 N 
HETATM    5  C17 UNL     1      17.844   0.094  51.012  1.00  0.00     0.295 A 
HETATM    6  N3  UNL     1      17.366  -0.883  51.980  1.00  0.00    -0.086 NA
HETATM    7  C18 UNL     1      18.118  -1.237  52.992  1.00  0.00     0.719 A 
HETATM    8  N5  UNL     1      19.430  -0.762  53.244  1.00  0.00    -0.043 NA
HETATM    9  C19 UNL     1      19.986   0.083  52.453  1.00  0.00     0.174 A 
ENDROOT
BRANCH   1  10
HETATM   10  N1  UNL     1      22.242   0.678  53.320  1.00  0.00    -0.353 N 
HETATM   11  H9  UNL     1      21.759   0.528  54.229  1.00  0.00     0.166 HD
BRANCH  10  12
HETATM   12  C7  UNL     1      23.652   0.706  53.286  1.00  0.00     0.032 A 
HETATM   13  C6  UNL     1      24.498  -0.378  53.270  1.00  0.00     0.030 A 
HETATM   14  C5  UNL     1      25.872  -0.273  53.252  1.00  0.00     0.010 A 
HETATM   15  C4  UNL     1      26.483   0.984  53.248  1.00  0.00    -0.053 A 
HETATM   16  C21 UNL     1      25.626   2.049  53.263  1.00  0.00     0.010 A 
HETATM   17  C20 UNL     1      24.255   1.948  53.282  1.00  0.00     0.030 A 
BRANCH  15  18
HETATM   18  C2  UNL     1      27.946   1.009  53.242  1.00  0.00     0.028 C 
HETATM   19  C1  UNL     1      28.537   2.388  53.526  1.00  0.00     0.016 C 
BRANCH  18  20
HETATM   20  C3  UNL     1      28.582  -0.016  54.151  1.00  0.00     0.123 C 
HETATM   21 CL1  UNL     1      29.714  -1.091  53.331  1.00  0.00    -0.130 Cl
ENDBRANCH  18  20
ENDBRANCH  15  18
ENDBRANCH  10  12
ENDBRANCH   1  10
BRANCH   2  22
HETATM   22  C10 UNL     1      22.121   2.501  50.562  1.00  0.00    -0.026 A 
HETATM   23  C11 UNL     1      21.963   3.813  50.943  1.00  0.00     0.014 A 
HETATM   24  C12 UNL     1      22.760   4.824  50.397  1.00  0.00     0.024 A 
HETATM   25  C13 UNL     1      23.734   4.528  49.450  1.00  0.00     0.034 A 
HETATM   26 CL2  UNL     1      24.767   5.739  48.724  1.00  0.00    -0.084 Cl
HETATM   27  C14 UNL     1      23.853   3.185  49.099  1.00  0.00     0.024 A 
HETATM   28  C15 UNL     1      23.075   2.186  49.631  1.00  0.00     0.014 A 
ENDBRANCH   2  22
BRANCH   7  29
HETATM   29  N4  UNL     1      17.776  -2.188  54.028  1.00  0.00    -0.231 N 
HETATM   30  H18 UNL     1      16.885  -2.708  53.877  1.00  0.00     0.174 HD
HETATM   31  H19 UNL     1      18.406  -2.303  54.838  1.00  0.00     0.174 HD
ENDBRANCH   7  29
TORSDOF 6
ENDMDL
MODEL 5
REMARK VINA RESULT:      -9.1      2.890      3.768
REMARK  6 active torsions:
REMARK  status: ('A' for Active; 'I' for Inactive)
REMARK    1  A    between atoms: C2_2  and  C3_3 
REMARK    2  A    between atoms: C2_2  and  C4_5 
REMARK    3  A    between atoms: C7_8  and  N1_9 
REMARK    4  A    between atoms: N1_9  and  C8_10 
REMARK    5  A    between atoms: C9_11  and  C10_12 
REMARK    6  A    between atoms: C18_23  and  N4_24 
ROOT
HETATM    1  C8  UNL     1      24.891   2.096  53.201  1.00  0.00     0.088 A 
HETATM    2  C9  UNL     1      24.138   1.029  53.057  1.00  0.00     0.001 A 
HETATM    3  C16 UNL     1      24.946  -0.185  53.266  1.00  0.00     0.168 A 
HETATM    4  N2  UNL     1      26.231   0.287  53.671  1.00  0.00    -0.340 N 
HETATM    5  C17 UNL     1      27.288  -0.607  54.090  1.00  0.00     0.295 A 
HETATM    6  N3  UNL     1      28.507   0.154  54.318  1.00  0.00    -0.086 NA
HETATM    7  C18 UNL     1      28.506   1.460  54.210  1.00  0.00     0.719 A 
HETATM    8  N5  UNL     1      27.386   2.250  53.849  1.00  0.00    -0.043 NA
HETATM    9  C19 UNL     1      26.252   1.705  53.592  1.00  0.00     0.174 A 
ENDROOT
BRANCH   1  10
HETATM   10  N1  UNL     1      24.575   3.470  53.076  1.00  0.00    -0.353 N 
HETATM   11  H9  UNL     1      25.041   3.979  53.854  1.00  0.00     0.166 HD
BRANCH  10  12
HETATM   12  C7  UNL     1      23.803   4.195  52.144  1.00  0.00     0.032 A 
HETATM   13  C6  UNL     1      22.568   4.763  52.358  1.00  0.00     0.030 A 
HETATM   14  C5  UNL     1      21.864   5.444  51.390  1.00  0.00     0.010 A 
HETATM   15  C4  UNL     1      22.394   5.595  50.105  1.00  0.00    -0.053 A 
HETATM   16  C21 UNL     1      23.622   5.025  49.912  1.00  0.00     0.010 A 
HETATM   17  C20 UNL     1      24.327   4.343  50.875  1.00  0.00     0.030 A 
BRANCH  15  18
HETATM   18  C2  UNL     1      21.578   6.321  49.133  1.00  0.00     0.028 C 
HETATM   19  C1  UNL     1      21.309   5.536  47.851  1.00  0.00     0.016 C 
BRANCH  18  20
HETATM   20  C3  UNL     1      20.278   6.847  49.692  1.00  0.00     0.123 C 
HETATM   21 CL1  UNL     1      20.326   8.557  50.120  1.00  0.00    -0.130 Cl
ENDBRANCH  18  20
ENDBRANCH  15  18
ENDBRANCH  10  12
ENDBRANCH   1  10
BRANCH   2  22
HETATM   22  C10 UNL     1      22.743   0.737  52.736  1.00  0.00    -0.026 A 
HETATM   23  C11 UNL     1      22.380   0.982  51.432  1.00  0.00     0.014 A 
HETATM   24  C12 UNL     1      21.079   0.728  50.986  1.00  0.00     0.024 A 
HETATM   25  C13 UNL     1      20.116   0.222  51.853  1.00  0.00     0.034 A 
HETATM   26 CL2  UNL     1      18.470  -0.119  51.366  1.00  0.00    -0.084 Cl
HETATM   27  C14 UNL     1      20.536  -0.008  53.161  1.00  0.00     0.024 A 
HETATM   28  C15 UNL     1      21.811   0.238  53.607  1.00  0.00     0.014 A 
ENDBRANCH   2  22
BRANCH   7  29
HETATM   29  N4  UNL     1      29.635   2.341  54.410  1.00  0.00    -0.231 N 
HETATM   30  H18 UNL     1      29.716   2.752  55.364  1.00  0.00     0.174 HD
HETATM   31  H19 UNL     1      30.285   2.516  53.626  1.00  0.00     0.174 HD
ENDBRANCH   7  29
TORSDOF 6
ENDMDL
MODEL 6
REMARK VINA RESULT:      -9.0      3.077      5.273
REMARK  6 active torsions:
REMARK  status: ('A' for Active; 'I' for Inactive)
REMARK    1  A    between atoms: C2_2  and  C3_3 
REMARK    2  A    between atoms: C2_2  and  C4_5 
REMARK    3  A    between atoms: C7_8  and  N1_9 
REMARK    4  A    between atoms: N1_9  and  C8_10 
REMARK    5  A    between atoms: C9_11  and  C10_12 
REMARK    6  A    between atoms: C18_23  and  N4_24 
ROOT
HETATM    1  C8  UNL     1      23.280   2.567  52.283  1.00  0.00     0.088 A 
HETATM    2  C9  UNL     1      23.978   1.536  52.703  1.00  0.00     0.001 A 
HETATM    3  C16 UNL     1      23.077   0.409  53.002  1.00  0.00     0.168 A 
HETATM    4  N2  UNL     1      21.782   0.849  52.594  1.00  0.00    -0.340 N 
HETATM    5  C17 UNL     1      20.627  -0.021  52.612  1.00  0.00     0.295 A 
HETATM    6  N3  UNL     1      19.437   0.741  52.264  1.00  0.00    -0.086 NA
HETATM    7  C18 UNL     1      19.532   2.002  51.923  1.00  0.00     0.719 A 
HETATM    8  N5  UNL     1      20.736   2.750  51.879  1.00  0.00    -0.043 NA
HETATM    9  C19 UNL     1      21.859   2.208  52.189  1.00  0.00     0.174 A 
ENDROOT
BRANCH   1  10
HETATM   10  N1  UNL     1      23.693   3.866  51.903  1.00  0.00    -0.353 N 
HETATM   11  H9  UNL     1      23.152   4.552  52.466  1.00  0.00     0.166 HD
BRANCH  10  12
HETATM   12  C7  UNL     1      24.641   4.335  50.969  1.00  0.00     0.032 A 
HETATM   13  C6  UNL     1      25.590   3.589  50.310  1.00  0.00     0.030 A 
HETATM   14  C5  UNL     1      26.496   4.122  49.420  1.00  0.00     0.010 A 
HETATM   15  C4  UNL     1      26.488   5.491  49.140  1.00  0.00    -0.053 A 
HETATM   16  C21 UNL     1      25.538   6.216  49.803  1.00  0.00     0.010 A 
HETATM   17  C20 UNL     1      24.632   5.688  50.692  1.00  0.00     0.030 A 
BRANCH  15  18
HETATM   18  C2  UNL     1      27.492   5.980  48.193  1.00  0.00     0.028 C 
HETATM   19  C1  UNL     1      27.689   7.493  48.236  1.00  0.00     0.016 C 
BRANCH  18  20
HETATM   20  C3  UNL     1      28.829   5.287  48.303  1.00  0.00     0.123 C 
HETATM   21 CL1  UNL     1      30.206   6.387  48.274  1.00  0.00    -0.130 Cl
ENDBRANCH  18  20
ENDBRANCH  15  18
ENDBRANCH  10  12
ENDBRANCH   1  10
BRANCH   2  22
HETATM   22  C10 UNL     1      25.382   1.226  52.962  1.00  0.00    -0.026 A 
HETATM   23  C11 UNL     1      25.819   0.024  52.458  1.00  0.00     0.014 A 
HETATM   24  C12 UNL     1      27.146  -0.387  52.618  1.00  0.00     0.024 A 
HETATM   25  C13 UNL     1      28.060   0.411  53.297  1.00  0.00     0.034 A 
HETATM   26 CL2  UNL     1      29.735  -0.037  53.537  1.00  0.00    -0.084 Cl
HETATM   27  C14 UNL     1      27.567   1.618  53.788  1.00  0.00     0.024 A 
HETATM   28  C15 UNL     1      26.266   2.030  53.633  1.00  0.00     0.014 A 
ENDBRANCH   2  22
BRANCH   7  29
HETATM   29  N4  UNL     1      18.443   2.878  51.552  1.00  0.00    -0.231 N 
HETATM   30  H18 UNL     1      18.342   3.735  52.137  1.00  0.00     0.174 HD
HETATM   31  H19 UNL     1      17.838   2.624  50.754  1.00  0.00     0.174 HD
ENDBRANCH   7  29
TORSDOF 6
ENDMDL
MODEL 7
REMARK VINA RESULT:      -9.0      3.285      7.233
REMARK  6 active torsions:
REMARK  status: ('A' for Active; 'I' for Inactive)
REMARK    1  A    between atoms: C2_2  and  C3_3 
REMARK    2  A    between atoms: C2_2  and  C4_5 
REMARK    3  A    between atoms: C7_8  and  N1_9 
REMARK    4  A    between atoms: N1_9  and  C8_10 
REMARK    5  A    between atoms: C9_11  and  C10_12 
REMARK    6  A    between atoms: C18_23  and  N4_24 
ROOT
HETATM    1  C8  UNL     1      22.637   1.922  51.152  1.00  0.00     0.088 A 
HETATM    2  C9  UNL     1      23.009   2.673  50.141  1.00  0.00     0.001 A 
HETATM    3  C16 UNL     1      21.935   2.724  49.133  1.00  0.00     0.168 A 
HETATM    4  N2  UNL     1      20.841   2.019  49.717  1.00  0.00    -0.340 N 
HETATM    5  C17 UNL     1      19.542   1.945  49.087  1.00  0.00     0.295 A 
HETATM    6  N3  UNL     1      18.678   1.060  49.854  1.00  0.00    -0.086 NA
HETATM    7  C18 UNL     1      19.096   0.533  50.978  1.00  0.00     0.719 A 
HETATM    8  N5  UNL     1      20.383   0.724  51.543  1.00  0.00    -0.043 NA
HETATM    9  C19 UNL     1      21.256   1.459  50.955  1.00  0.00     0.174 A 
ENDROOT
BRANCH   1  10
HETATM   10  N1  UNL     1      23.326   1.559  52.334  1.00  0.00    -0.353 N 
HETATM   11  H9  UNL     1      22.622   1.428  53.088  1.00  0.00     0.166 HD
BRANCH  10  12
HETATM   12  C7  UNL     1      24.692   1.359  52.623  1.00  0.00     0.032 A 
HETATM   13  C6  UNL     1      25.464   0.280  52.261  1.00  0.00     0.030 A 
HETATM   14  C5  UNL     1      26.793   0.146  52.595  1.00  0.00     0.010 A 
HETATM   15  C4  UNL     1      27.437   1.137  53.341  1.00  0.00    -0.053 A 
HETATM   16  C21 UNL     1      26.655   2.202  53.691  1.00  0.00     0.010 A 
HETATM   17  C20 UNL     1      25.327   2.339  53.361  1.00  0.00     0.030 A 
BRANCH  15  18
HETATM   18  C2  UNL     1      28.846   0.913  53.665  1.00  0.00     0.028 C 
HETATM   19  C1  UNL     1      29.497   2.077  54.409  1.00  0.00     0.016 C 
BRANCH  18  20
HETATM   20  C3  UNL     1      29.109  -0.376  54.406  1.00  0.00     0.123 C 
HETATM   21 CL1  UNL     1      29.670  -1.690  53.372  1.00  0.00    -0.130 Cl
ENDBRANCH  18  20
ENDBRANCH  15  18
ENDBRANCH  10  12
ENDBRANCH   1  10
BRANCH   2  22
HETATM   22  C10 UNL     1      24.190   3.443  49.755  1.00  0.00    -0.026 A 
HETATM   23  C11 UNL     1      23.934   4.706  49.277  1.00  0.00     0.014 A 
HETATM   24  C12 UNL     1      24.975   5.555  48.889  1.00  0.00     0.024 A 
HETATM   25  C13 UNL     1      26.300   5.141  48.975  1.00  0.00     0.034 A 
HETATM   26 CL2  UNL     1      27.653   6.148  48.508  1.00  0.00    -0.084 Cl
HETATM   27  C14 UNL     1      26.504   3.853  49.465  1.00  0.00     0.024 A 
HETATM   28  C15 UNL     1      25.487   3.014  49.849  1.00  0.00     0.014 A 
ENDBRANCH   2  22
BRANCH   7  29
HETATM   29  N4  UNL     1      18.351  -0.356  51.842  1.00  0.00    -0.231 N 
HETATM   30  H18 UNL     1      18.063  -1.259  51.408  1.00  0.00     0.174 HD
HETATM   31  H19 UNL     1      18.147  -0.066  52.812  1.00  0.00     0.174 HD
ENDBRANCH   7  29
TORSDOF 6
ENDMDL
MODEL 8
REMARK VINA RESULT:      -8.8      3.456      5.653
REMARK  6 active torsions:
REMARK  status: ('A' for Active; 'I' for Inactive)
REMARK    1  A    between atoms: C2_2  and  C3_3 
REMARK    2  A    between atoms: C2_2  and  C4_5 
REMARK    3  A    between atoms: C7_8  and  N1_9 
REMARK    4  A    between atoms: N1_9  and  C8_10 
REMARK    5  A    between atoms: C9_11  and  C10_12 
REMARK    6  A    between atoms: C18_23  and  N4_24 
ROOT
HETATM    1  C8  UNL     1      22.814   0.807  51.834  1.00  0.00     0.088 A 
HETATM    2  C9  UNL     1      23.671   0.376  52.731  1.00  0.00     0.001 A 
HETATM    3  C16 UNL     1      22.957  -0.342  53.801  1.00  0.00     0.168 A 
HETATM    4  N2  UNL     1      21.597  -0.393  53.373  1.00  0.00    -0.340 N 
HETATM    5  C17 UNL     1      20.583  -1.127  54.098  1.00  0.00     0.295 A 
HETATM    6  N3  UNL     1      19.282  -0.888  53.491  1.00  0.00    -0.086 NA
HETATM    7  C18 UNL     1      19.178  -0.167  52.403  1.00  0.00     0.719 A 
HETATM    8  N5  UNL     1      20.257   0.462  51.732  1.00  0.00    -0.043 NA
HETATM    9  C19 UNL     1      21.458   0.358  52.175  1.00  0.00     0.174 A 
ENDROOT
BRANCH   1  10
HETATM   10  N1  UNL     1      23.017   1.558  50.651  1.00  0.00    -0.353 N 
HETATM   11  H9  UNL     1      22.493   1.094  49.882  1.00  0.00     0.166 HD
BRANCH  10  12
HETATM   12  C7  UNL     1      23.747   2.733  50.376  1.00  0.00     0.032 A 
HETATM   13  C6  UNL     1      23.272   4.024  50.395  1.00  0.00     0.030 A 
HETATM   14  C5  UNL     1      24.044   5.125  50.098  1.00  0.00     0.010 A 
HETATM   15  C4  UNL     1      25.390   4.972  49.753  1.00  0.00    -0.053 A 
HETATM   16  C21 UNL     1      25.844   3.683  49.741  1.00  0.00     0.010 A 
HETATM   17  C20 UNL     1      25.077   2.581  50.036  1.00  0.00     0.030 A 
BRANCH  15  18
HETATM   18  C2  UNL     1      26.137   6.190  49.439  1.00  0.00     0.028 C 
HETATM   19  C1  UNL     1      27.325   5.958  48.509  1.00  0.00     0.016 C 
BRANCH  18  20
HETATM   20  C3  UNL     1      25.283   7.314  48.905  1.00  0.00     0.123 C 
HETATM   21 CL1  UNL     1      25.013   8.617  50.062  1.00  0.00    -0.130 Cl
ENDBRANCH  18  20
ENDBRANCH  15  18
ENDBRANCH  10  12
ENDBRANCH   1  10
BRANCH   2  22
HETATM   22  C10 UNL     1      25.115   0.434  52.949  1.00  0.00    -0.026 A 
HETATM   23  C11 UNL     1      25.577   1.606  53.501  1.00  0.00     0.014 A 
HETATM   24  C12 UNL     1      26.935   1.786  53.779  1.00  0.00     0.024 A 
HETATM   25  C13 UNL     1      27.857   0.783  53.501  1.00  0.00     0.034 A 
HETATM   26 CL2  UNL     1      29.570   0.938  53.821  1.00  0.00    -0.084 Cl
HETATM   27  C14 UNL     1      27.338  -0.382  52.942  1.00  0.00     0.024 A 
HETATM   28  C15 UNL     1      26.005  -0.568  52.667  1.00  0.00     0.014 A 
ENDBRANCH   2  22
BRANCH   7  29
HETATM   29  N4  UNL     1      17.958   0.149  51.692  1.00  0.00    -0.231 N 
HETATM   30  H18 UNL     1      17.507  -0.654  51.204  1.00  0.00     0.174 HD
HETATM   31  H19 UNL     1      17.604   1.120  51.701  1.00  0.00     0.174 HD
ENDBRANCH   7  29
TORSDOF 6
ENDMDL
MODEL 9
REMARK VINA RESULT:      -8.6      3.708      7.610
REMARK  6 active torsions:
REMARK  status: ('A' for Active; 'I' for Inactive)
REMARK    1  A    between atoms: C2_2  and  C3_3 
REMARK    2  A    between atoms: C2_2  and  C4_5 
REMARK    3  A    between atoms: C7_8  and  N1_9 
REMARK    4  A    between atoms: N1_9  and  C8_10 
REMARK    5  A    between atoms: C9_11  and  C10_12 
REMARK    6  A    between atoms: C18_23  and  N4_24 
ROOT
HETATM    1  C8  UNL     1      27.447   5.277  48.732  1.00  0.00     0.088 A 
HETATM    2  C9  UNL     1      26.732   6.377  48.803  1.00  0.00     0.001 A 
HETATM    3  C16 UNL     1      27.578   7.543  48.491  1.00  0.00     0.168 A 
HETATM    4  N2  UNL     1      28.840   6.998  48.108  1.00  0.00    -0.340 N 
HETATM    5  C17 UNL     1      29.919   7.820  47.608  1.00  0.00     0.295 A 
HETATM    6  N3  UNL     1      31.109   7.002  47.424  1.00  0.00    -0.086 NA
HETATM    7  C18 UNL     1      31.065   5.709  47.632  1.00  0.00     0.719 A 
HETATM    8  N5  UNL     1      29.925   4.988  48.067  1.00  0.00    -0.043 NA
HETATM    9  C19 UNL     1      28.814   5.590  48.295  1.00  0.00     0.174 A 
ENDROOT
BRANCH   1  10
HETATM   10  N1  UNL     1      27.087   3.928  48.967  1.00  0.00    -0.353 N 
HETATM   11  H9  UNL     1      27.691   3.327  48.371  1.00  0.00     0.166 HD
BRANCH  10  12
HETATM   12  C7  UNL     1      26.129   3.325  49.809  1.00  0.00     0.032 A 
HETATM   13  C6  UNL     1      26.366   2.685  51.003  1.00  0.00     0.030 A 
HETATM   14  C5  UNL     1      25.378   2.102  51.765  1.00  0.00     0.010 A 
HETATM   15  C4  UNL     1      24.046   2.140  51.343  1.00  0.00    -0.053 A 
HETATM   16  C21 UNL     1      23.830   2.781  50.155  1.00  0.00     0.010 A 
HETATM   17  C20 UNL     1      24.814   3.363  49.391  1.00  0.00     0.030 A 
BRANCH  15  18
HETATM   18  C2  UNL     1      23.059   1.487  52.203  1.00  0.00     0.028 C 
HETATM   19  C1  UNL     1      21.927   0.811  51.434  1.00  0.00     0.016 C 
BRANCH  18  20
HETATM   20  C3  UNL     1      23.654   0.515  53.193  1.00  0.00     0.123 C 
HETATM   21 CL1  UNL     1      22.825  -1.041  53.252  1.00  0.00    -0.130 Cl
ENDBRANCH  18  20
ENDBRANCH  15  18
ENDBRANCH  10  12
ENDBRANCH   1  10
BRANCH   2  22
HETATM   22  C10 UNL     1      25.353   6.742  49.119  1.00  0.00    -0.026 A 
HETATM   23  C11 UNL     1      25.094   6.948  50.454  1.00  0.00     0.014 A 
HETATM   24  C12 UNL     1      23.819   7.320  50.892  1.00  0.00     0.024 A 
HETATM   25  C13 UNL     1      22.777   7.488  49.986  1.00  0.00     0.034 A 
HETATM   26 CL2  UNL     1      21.157   7.951  50.461  1.00  0.00    -0.084 Cl
HETATM   27  C14 UNL     1      23.093   7.266  48.648  1.00  0.00     0.024 A 
HETATM   28  C15 UNL     1      24.342   6.902  48.209  1.00  0.00     0.014 A 
ENDBRANCH   2  22
BRANCH   7  29
HETATM   29  N4  UNL     1      32.161   4.776  47.486  1.00  0.00    -0.231 N 
HETATM   30  H18 UNL     1      32.223   4.304  46.559  1.00  0.00     0.174 HD
HETATM   31  H19 UNL     1      32.807   4.627  48.278  1.00  0.00     0.174 HD
ENDBRANCH   7  29
TORSDOF 6
ENDMDL
