MODEL 1
REMARK VINA RESULT:      -9.9      0.000      0.000
REMARK  3 active torsions:
REMARK  status: ('A' for Active; 'I' for Inactive)
REMARK    1  A    between atoms: O1_2  and  C2_3 
REMARK    2  A    between atoms: N4_20  and  C15_21 
REMARK    3  A    between atoms: C23_30  and  O3_31 
ROOT
HETATM    1  C2  UNL     1      27.061   1.870  53.394  1.00  0.00     0.098 A 
HETATM    2  C3  UNL     1      26.784   2.281  52.166  1.00  0.00     0.027 A 
HETATM    3  C4  UNL     1      25.597   1.959  51.377  1.00  0.00     0.108 A 
HETATM    4  C5  UNL     1      24.846   3.223  51.163  1.00  0.00     0.121 C 
HETATM    5  N1  UNL     1      24.671   3.719  52.303  1.00  0.00    -0.256 NA
HETATM    6  C6  UNL     1      23.570   2.917  52.931  1.00  0.00     0.275 C 
HETATM    7  N2  UNL     1      23.283   1.695  52.195  1.00  0.00    -0.356 N 
HETATM    8  C7  UNL     1      21.930   1.354  51.751  1.00  0.00     0.012 C 
HETATM    9  C8  UNL     1      20.968   2.020  52.481  1.00  0.00     0.026 C 
HETATM   10  C9  UNL     1      20.312   3.242  51.856  1.00  0.00     0.020 C 
HETATM   11  C10 UNL     1      20.364   3.945  50.655  1.00  0.00     0.101 C 
HETATM   12  N3  UNL     1      21.491   3.372  49.812  1.00  0.00    -0.285 N 
HETATM   13  C11 UNL     1      21.013   2.426  48.828  1.00  0.00     0.097 C 
HETATM   14  C12 UNL     1      21.156   1.132  49.366  1.00  0.00    -0.003 C 
HETATM   15  C13 UNL     1      21.630   0.383  50.616  1.00  0.00     0.085 C 
HETATM   16  C14 UNL     1      22.860   3.627  49.975  1.00  0.00     0.338 C 
HETATM   17  O2  UNL     1      22.655   4.769  49.799  1.00  0.00    -0.245 OA
HETATM   18  N4  UNL     1      24.208   4.005  50.120  1.00  0.00    -0.250 N 
HETATM   19  C21 UNL     1      24.601   1.045  52.078  1.00  0.00     0.126 A 
HETATM   20  C22 UNL     1      25.006   0.655  53.427  1.00  0.00     0.038 A 
HETATM   21  C23 UNL     1      26.107   0.999  54.068  1.00  0.00     0.097 A 
ENDROOT
BRANCH  18  22
HETATM   22  C15 UNL     1      25.254   4.844  49.679  1.00  0.00     0.048 A 
HETATM   23  C16 UNL     1      25.157   6.226  49.823  1.00  0.00     0.030 A 
HETATM   24  C17 UNL     1      26.172   7.065  49.397  1.00  0.00     0.005 A 
HETATM   25  C18 UNL     1      27.261   6.405  48.830  1.00  0.00     0.042 A 
HETATM   26  C19 UNL     1      27.401   5.042  48.667  1.00  0.00     0.118 A 
HETATM   27  F1  UNL     1      28.522   4.535  48.096  1.00  0.00    -0.206 F 
HETATM   28  C20 UNL     1      26.357   4.260  49.112  1.00  0.00     0.072 A 
ENDBRANCH  18  22
BRANCH   1  29
HETATM   29  O1  UNL     1      28.211   2.216  54.090  1.00  0.00    -0.353 OA
HETATM   30  C1  UNL     1      29.318   1.328  54.000  1.00  0.00     0.210 C 
ENDBRANCH   1  29
BRANCH  21  31
HETATM   31  O3  UNL     1      26.328   0.521  55.370  1.00  0.00    -0.358 OA
HETATM   32  H21 UNL     1      25.562   0.000  55.824  1.00  0.00     0.217 HD
ENDBRANCH  21  31
TORSDOF 3
ENDMDL
MODEL 2
REMARK VINA RESULT:      -8.9      2.567      4.600
REMARK  3 active torsions:
REMARK  status: ('A' for Active; 'I' for Inactive)
REMARK    1  A    between atoms: O1_2  and  C2_3 
REMARK    2  A    between atoms: N4_20  and  C15_21 
REMARK    3  A    between atoms: C23_30  and  O3_31 
ROOT
HETATM    1  C2  UNL     1      21.721  -0.987  53.762  1.00  0.00     0.098 A 
HETATM    2  C3  UNL     1      22.748  -0.662  52.991  1.00  0.00     0.027 A 
HETATM    3  C4  UNL     1      22.712   0.126  51.763  1.00  0.00     0.108 A 
HETATM    4  C5  UNL     1      23.469   1.380  52.013  1.00  0.00     0.121 C 
HETATM    5  N1  UNL     1      22.967   1.886  53.046  1.00  0.00    -0.256 NA
HETATM    6  C6  UNL     1      21.670   2.501  52.609  1.00  0.00     0.275 C 
HETATM    7  N2  UNL     1      21.274   2.073  51.276  1.00  0.00    -0.356 N 
HETATM    8  C7  UNL     1      20.939   3.030  50.220  1.00  0.00     0.012 C 
HETATM    9  C8  UNL     1      20.591   4.260  50.735  1.00  0.00     0.026 C 
HETATM   10  C9  UNL     1      21.629   5.371  50.702  1.00  0.00     0.020 C 
HETATM   11  C10 UNL     1      22.933   5.558  50.247  1.00  0.00     0.101 C 
HETATM   12  N3  UNL     1      23.471   4.219  49.769  1.00  0.00    -0.285 N 
HETATM   13  C11 UNL     1      23.369   4.069  48.335  1.00  0.00     0.097 C 
HETATM   14  C12 UNL     1      22.185   3.357  48.057  1.00  0.00    -0.003 C 
HETATM   15  C13 UNL     1      20.978   2.699  48.733  1.00  0.00     0.085 C 
HETATM   16  C14 UNL     1      23.945   3.180  50.581  1.00  0.00     0.338 C 
HETATM   17  O2  UNL     1      24.762   3.905  51.010  1.00  0.00    -0.245 OA
HETATM   18  N4  UNL     1      24.507   2.216  51.440  1.00  0.00    -0.250 N 
HETATM   19  C21 UNL     1      21.324   0.602  51.357  1.00  0.00     0.126 A 
HETATM   20  C22 UNL     1      20.266   0.190  52.279  1.00  0.00     0.038 A 
HETATM   21  C23 UNL     1      20.392  -0.529  53.379  1.00  0.00     0.097 A 
ENDROOT
BRANCH  18  22
HETATM   22  C15 UNL     1      25.683   1.686  52.012  1.00  0.00     0.048 A 
HETATM   23  C16 UNL     1      25.982   0.332  51.882  1.00  0.00     0.030 A 
HETATM   24  C17 UNL     1      27.131  -0.206  52.436  1.00  0.00     0.005 A 
HETATM   25  C18 UNL     1      27.928   0.718  53.112  1.00  0.00     0.042 A 
HETATM   26  C19 UNL     1      27.672   2.065  53.266  1.00  0.00     0.118 A 
HETATM   27  F1  UNL     1      28.541   2.849  53.952  1.00  0.00    -0.206 F 
HETATM   28  C20 UNL     1      26.513   2.540  52.691  1.00  0.00     0.072 A 
ENDBRANCH  18  22
BRANCH   1  29
HETATM   29  O1  UNL     1      21.824  -1.741  54.922  1.00  0.00    -0.353 OA
HETATM   30  C1  UNL     1      23.042  -1.653  55.650  1.00  0.00     0.210 C 
ENDBRANCH   1  29
BRANCH  21  31
HETATM   31  O3  UNL     1      19.253  -0.830  54.143  1.00  0.00    -0.358 OA
HETATM   32  H21 UNL     1      18.338  -0.805  53.666  1.00  0.00     0.217 HD
ENDBRANCH  21  31
TORSDOF 3
ENDMDL
MODEL 3
REMARK VINA RESULT:      -8.5      1.136      1.332
REMARK  3 active torsions:
REMARK  status: ('A' for Active; 'I' for Inactive)
REMARK    1  A    between atoms: O1_2  and  C2_3 
REMARK    2  A    between atoms: N4_20  and  C15_21 
REMARK    3  A    between atoms: C23_30  and  O3_31 
ROOT
HETATM    1  C2  UNL     1      26.082   2.072  52.870  1.00  0.00     0.098 A 
HETATM    2  C3  UNL     1      25.902   2.746  51.744  1.00  0.00     0.027 A 
HETATM    3  C4  UNL     1      24.780   2.625  50.816  1.00  0.00     0.108 A 
HETATM    4  C5  UNL     1      24.049   3.919  50.826  1.00  0.00     0.121 C 
HETATM    5  N1  UNL     1      23.787   4.158  52.030  1.00  0.00    -0.256 NA
HETATM    6  C6  UNL     1      22.639   3.259  52.383  1.00  0.00     0.275 C 
HETATM    7  N2  UNL     1      22.408   2.232  51.378  1.00  0.00    -0.356 N 
HETATM    8  C7  UNL     1      21.094   2.021  50.769  1.00  0.00     0.012 C 
HETATM    9  C8  UNL     1      20.079   2.530  51.551  1.00  0.00     0.026 C 
HETATM   10  C9  UNL     1      19.476   3.870  51.160  1.00  0.00     0.020 C 
HETATM   11  C10 UNL     1      19.622   4.817  50.149  1.00  0.00     0.101 C 
HETATM   12  N3  UNL     1      20.811   4.421  49.289  1.00  0.00    -0.285 N 
HETATM   13  C11 UNL     1      20.410   3.721  48.089  1.00  0.00     0.097 C 
HETATM   14  C12 UNL     1      20.509   2.338  48.340  1.00  0.00    -0.003 C 
HETATM   15  C13 UNL     1      20.882   1.326  49.430  1.00  0.00     0.085 C 
HETATM   16  C14 UNL     1      22.163   4.609  49.608  1.00  0.00     0.338 C 
HETATM   17  O2  UNL     1      21.975   5.766  49.670  1.00  0.00    -0.245 OA
HETATM   18  N4  UNL     1      23.497   4.921  49.934  1.00  0.00    -0.250 N 
HETATM   19  C21 UNL     1      23.731   1.599  51.222  1.00  0.00     0.126 A 
HETATM   20  C22 UNL     1      24.028   0.917  52.480  1.00  0.00     0.038 A 
HETATM   21  C23 UNL     1      25.077   1.093  53.262  1.00  0.00     0.097 A 
ENDROOT
BRANCH  18  22
HETATM   22  C15 UNL     1      24.575   5.817  49.768  1.00  0.00     0.048 A 
HETATM   23  C16 UNL     1      24.597   7.029  50.454  1.00  0.00     0.030 A 
HETATM   24  C17 UNL     1      25.645   7.920  50.304  1.00  0.00     0.005 A 
HETATM   25  C18 UNL     1      26.641   7.491  49.426  1.00  0.00     0.042 A 
HETATM   26  C19 UNL     1      26.661   6.302  48.727  1.00  0.00     0.118 A 
HETATM   27  F1  UNL     1      27.701   6.014  47.904  1.00  0.00    -0.206 F 
HETATM   28  C20 UNL     1      25.590   5.457  48.919  1.00  0.00     0.072 A 
ENDBRANCH  18  22
BRANCH   1  29
HETATM   29  O1  UNL     1      27.174   2.237  53.710  1.00  0.00    -0.353 OA
HETATM   30  C1  UNL     1      28.433   1.774  53.239  1.00  0.00     0.210 C 
ENDBRANCH   1  29
BRANCH  21  31
HETATM   31  O3  UNL     1      25.194   0.340  54.442  1.00  0.00    -0.358 OA
HETATM   32  H21 UNL     1      25.170   0.849  55.339  1.00  0.00     0.217 HD
ENDBRANCH  21  31
TORSDOF 3
ENDMDL
MODEL 4
REMARK VINA RESULT:      -8.4      2.974      5.608
REMARK  3 active torsions:
REMARK  status: ('A' for Active; 'I' for Inactive)
REMARK    1  A    between atoms: O1_2  and  C2_3 
REMARK    2  A    between atoms: N4_20  and  C15_21 
REMARK    3  A    between atoms: C23_30  and  O3_31 
ROOT
HETATM    1  C2  UNL     1      26.064   2.968  51.201  1.00  0.00     0.098 A 
HETATM    2  C3  UNL     1      24.884   2.850  51.792  1.00  0.00     0.027 A 
HETATM    3  C4  UNL     1      23.663   3.586  51.474  1.00  0.00     0.108 A 
HETATM    4  C5  UNL     1      22.668   2.603  50.970  1.00  0.00     0.121 C 
HETATM    5  N1  UNL     1      23.236   1.985  50.037  1.00  0.00    -0.256 NA
HETATM    6  C6  UNL     1      23.229   2.920  48.864  1.00  0.00     0.275 C 
HETATM    7  N2  UNL     1      22.873   4.280  49.240  1.00  0.00    -0.356 N 
HETATM    8  C7  UNL     1      21.801   5.018  48.569  1.00  0.00     0.012 C 
HETATM    9  C8  UNL     1      21.529   4.501  47.320  1.00  0.00     0.026 C 
HETATM   10  C9  UNL     1      20.310   3.604  47.165  1.00  0.00     0.020 C 
HETATM   11  C10 UNL     1      19.272   3.120  47.959  1.00  0.00     0.101 C 
HETATM   12  N3  UNL     1      19.540   3.526  49.399  1.00  0.00    -0.285 N 
HETATM   13  C11 UNL     1      18.806   4.711  49.781  1.00  0.00     0.097 C 
HETATM   14  C12 UNL     1      19.660   5.820  49.622  1.00  0.00    -0.003 C 
HETATM   15  C13 UNL     1      21.077   6.208  49.185  1.00  0.00     0.085 C 
HETATM   16  C14 UNL     1      20.445   2.913  50.277  1.00  0.00     0.338 C 
HETATM   17  O2  UNL     1      19.857   1.904  50.159  1.00  0.00    -0.245 OA
HETATM   18  N4  UNL     1      21.288   2.191  51.144  1.00  0.00    -0.250 N 
HETATM   19  C21 UNL     1      23.807   4.590  50.339  1.00  0.00     0.126 A 
HETATM   20  C22 UNL     1      25.148   4.636  49.758  1.00  0.00     0.038 A 
HETATM   21  C23 UNL     1      26.203   3.925  50.112  1.00  0.00     0.097 A 
ENDROOT
BRANCH  18  22
HETATM   22  C15 UNL     1      21.384   1.202  52.146  1.00  0.00     0.048 A 
HETATM   23  C16 UNL     1      22.023  -0.007  51.885  1.00  0.00     0.030 A 
HETATM   24  C17 UNL     1      22.127  -0.988  52.856  1.00  0.00     0.005 A 
HETATM   25  C18 UNL     1      21.545  -0.650  54.077  1.00  0.00     0.042 A 
HETATM   26  C19 UNL     1      20.903   0.533  54.381  1.00  0.00     0.118 A 
HETATM   27  F1  UNL     1      20.382   0.727  55.618  1.00  0.00    -0.206 F 
HETATM   28  C20 UNL     1      20.833   1.470  53.373  1.00  0.00     0.072 A 
ENDBRANCH  18  22
BRANCH   1  29
HETATM   29  O1  UNL     1      27.189   2.235  51.553  1.00  0.00    -0.353 OA
HETATM   30  C1  UNL     1      27.541   2.204  52.930  1.00  0.00     0.210 C 
ENDBRANCH   1  29
BRANCH  21  31
HETATM   31  O3  UNL     1      27.419   4.109  49.434  1.00  0.00    -0.358 OA
HETATM   32  H21 UNL     1      28.241   4.382  49.994  1.00  0.00     0.217 HD
ENDBRANCH  21  31
TORSDOF 3
ENDMDL
MODEL 5
REMARK VINA RESULT:      -8.3      6.113     10.543
REMARK  3 active torsions:
REMARK  status: ('A' for Active; 'I' for Inactive)
REMARK    1  A    between atoms: O1_2  and  C2_3 
REMARK    2  A    between atoms: N4_20  and  C15_21 
REMARK    3  A    between atoms: C23_30  and  O3_31 
ROOT
HETATM    1  C2  UNL     1      29.407  11.292  48.545  1.00  0.00     0.098 A 
HETATM    2  C3  UNL     1      29.062  10.147  47.975  1.00  0.00     0.027 A 
HETATM    3  C4  UNL     1      29.921   9.252  47.204  1.00  0.00     0.108 A 
HETATM    4  C5  UNL     1      30.032   7.977  47.960  1.00  0.00     0.121 C 
HETATM    5  N1  UNL     1      30.405   8.292  49.116  1.00  0.00    -0.256 NA
HETATM    6  C6  UNL     1      31.868   8.602  49.001  1.00  0.00     0.275 C 
HETATM    7  N2  UNL     1      32.301   8.739  47.619  1.00  0.00    -0.356 N 
HETATM    8  C7  UNL     1      33.433   7.983  47.080  1.00  0.00     0.012 C 
HETATM    9  C8  UNL     1      34.277   7.543  48.078  1.00  0.00     0.026 C 
HETATM   10  C9  UNL     1      34.175   6.089  48.513  1.00  0.00     0.020 C 
HETATM   11  C10 UNL     1      33.449   4.952  48.166  1.00  0.00     0.101 C 
HETATM   12  N3  UNL     1      32.388   5.351  47.153  1.00  0.00    -0.285 N 
HETATM   13  C11 UNL     1      32.796   5.072  45.794  1.00  0.00     0.097 C 
HETATM   14  C12 UNL     1      33.335   6.255  45.252  1.00  0.00    -0.003 C 
HETATM   15  C13 UNL     1      33.644   7.716  45.595  1.00  0.00     0.085 C 
HETATM   16  C14 UNL     1      31.174   5.993  47.433  1.00  0.00     0.338 C 
HETATM   17  O2  UNL     1      30.871   5.093  48.123  1.00  0.00    -0.245 OA
HETATM   18  N4  UNL     1      29.926   6.540  47.788  1.00  0.00    -0.250 N 
HETATM   19  C21 UNL     1      31.361   9.728  47.060  1.00  0.00     0.126 A 
HETATM   20  C22 UNL     1      31.632  11.000  47.728  1.00  0.00     0.038 A 
HETATM   21  C23 UNL     1      30.785  11.746  48.411  1.00  0.00     0.097 A 
ENDROOT
BRANCH  18  22
HETATM   22  C15 UNL     1      28.564   6.295  48.063  1.00  0.00     0.048 A 
HETATM   23  C16 UNL     1      27.601   7.258  47.770  1.00  0.00     0.030 A 
HETATM   24  C17 UNL     1      26.260   7.035  48.032  1.00  0.00     0.005 A 
HETATM   25  C18 UNL     1      25.986   5.791  48.599  1.00  0.00     0.042 A 
HETATM   26  C19 UNL     1      26.905   4.808  48.905  1.00  0.00     0.118 A 
HETATM   27  F1  UNL     1      26.493   3.638  49.455  1.00  0.00    -0.206 F 
HETATM   28  C20 UNL     1      28.223   5.090  48.620  1.00  0.00     0.072 A 
ENDBRANCH  18  22
BRANCH   1  29
HETATM   29  O1  UNL     1      28.538  12.097  49.267  1.00  0.00    -0.353 OA
HETATM   30  C1  UNL     1      27.784  13.058  48.539  1.00  0.00     0.210 C 
ENDBRANCH   1  29
BRANCH  21  31
HETATM   31  O3  UNL     1      31.230  12.948  48.986  1.00  0.00    -0.358 OA
HETATM   32  H21 UNL     1      31.713  13.621  48.371  1.00  0.00     0.217 HD
ENDBRANCH  21  31
TORSDOF 3
ENDMDL
MODEL 6
REMARK VINA RESULT:      -8.0      2.223      5.089
REMARK  3 active torsions:
REMARK  status: ('A' for Active; 'I' for Inactive)
REMARK    1  A    between atoms: O1_2  and  C2_3 
REMARK    2  A    between atoms: N4_20  and  C15_21 
REMARK    3  A    between atoms: C23_30  and  O3_31 
ROOT
HETATM    1  C2  UNL     1      25.752   5.680  49.200  1.00  0.00     0.098 A 
HETATM    2  C3  UNL     1      25.631   4.955  50.302  1.00  0.00     0.027 A 
HETATM    3  C4  UNL     1      24.391   4.576  50.975  1.00  0.00     0.108 A 
HETATM    4  C5  UNL     1      24.269   3.098  50.889  1.00  0.00     0.121 C 
HETATM    5  N1  UNL     1      24.383   2.812  49.672  1.00  0.00    -0.256 NA
HETATM    6  C6  UNL     1      23.069   3.174  49.044  1.00  0.00     0.275 C 
HETATM    7  N2  UNL     1      22.238   3.983  49.922  1.00  0.00    -0.356 N 
HETATM    8  C7  UNL     1      20.856   3.618  50.238  1.00  0.00     0.012 C 
HETATM    9  C8  UNL     1      20.323   2.765  49.296  1.00  0.00     0.026 C 
HETATM   10  C9  UNL     1      20.249   1.283  49.631  1.00  0.00     0.020 C 
HETATM   11  C10 UNL     1      20.554   0.446  50.702  1.00  0.00     0.101 C 
HETATM   12  N3  UNL     1      21.272   1.266  51.762  1.00  0.00    -0.285 N 
HETATM   13  C11 UNL     1      20.381   1.701  52.814  1.00  0.00     0.097 C 
HETATM   14  C12 UNL     1      19.959   3.010  52.511  1.00  0.00    -0.003 C 
HETATM   15  C13 UNL     1      20.106   4.121  51.465  1.00  0.00     0.085 C 
HETATM   16  C14 UNL     1      22.617   1.658  51.735  1.00  0.00     0.338 C 
HETATM   17  O2  UNL     1      22.933   0.528  51.701  1.00  0.00    -0.245 OA
HETATM   18  N4  UNL     1      23.999   1.929  51.705  1.00  0.00    -0.250 N 
HETATM   19  C21 UNL     1      23.125   5.096  50.307  1.00  0.00     0.126 A 
HETATM   20  C22 UNL     1      23.374   5.881  49.099  1.00  0.00     0.038 A 
HETATM   21  C23 UNL     1      24.541   6.174  48.557  1.00  0.00     0.097 A 
ENDROOT
BRANCH  18  22
HETATM   22  C15 UNL     1      25.287   1.548  52.136  1.00  0.00     0.048 A 
HETATM   23  C16 UNL     1      25.797   0.293  51.812  1.00  0.00     0.030 A 
HETATM   24  C17 UNL     1      27.059  -0.099  52.226  1.00  0.00     0.005 A 
HETATM   25  C18 UNL     1      27.740   0.861  52.974  1.00  0.00     0.042 A 
HETATM   26  C19 UNL     1      27.276   2.114  53.319  1.00  0.00     0.118 A 
HETATM   27  F1  UNL     1      28.052   2.949  54.054  1.00  0.00    -0.206 F 
HETATM   28  C20 UNL     1      26.013   2.445  52.877  1.00  0.00     0.072 A 
ENDBRANCH  18  22
BRANCH   1  29
HETATM   29  O1  UNL     1      26.965   6.004  48.610  1.00  0.00    -0.353 OA
HETATM   30  C1  UNL     1      27.946   4.979  48.532  1.00  0.00     0.210 C 
ENDBRANCH   1  29
BRANCH  21  31
HETATM   31  O3  UNL     1      24.585   6.948  47.386  1.00  0.00    -0.358 OA
HETATM   32  H21 UNL     1      24.147   7.882  47.414  1.00  0.00     0.217 HD
ENDBRANCH  21  31
TORSDOF 3
ENDMDL
MODEL 7
REMARK VINA RESULT:      -7.7      3.378      5.082
REMARK  3 active torsions:
REMARK  status: ('A' for Active; 'I' for Inactive)
REMARK    1  A    between atoms: O1_2  and  C2_3 
REMARK    2  A    between atoms: N4_20  and  C15_21 
REMARK    3  A    between atoms: C23_30  and  O3_31 
ROOT
HETATM    1  C2  UNL     1      25.640   6.041  48.936  1.00  0.00     0.098 A 
HETATM    2  C3  UNL     1      24.354   6.100  48.624  1.00  0.00     0.027 A 
HETATM    3  C4  UNL     1      23.392   5.001  48.640  1.00  0.00     0.108 A 
HETATM    4  C5  UNL     1      22.381   5.307  49.686  1.00  0.00     0.121 C 
HETATM    5  N1  UNL     1      23.029   5.531  50.737  1.00  0.00    -0.256 NA
HETATM    6  C6  UNL     1      23.462   4.187  51.243  1.00  0.00     0.275 C 
HETATM    7  N2  UNL     1      23.280   3.135  50.254  1.00  0.00    -0.356 N 
HETATM    8  C7  UNL     1      22.543   1.906  50.552  1.00  0.00     0.012 C 
HETATM    9  C8  UNL     1      22.479   1.664  51.908  1.00  0.00     0.026 C 
HETATM   10  C9  UNL     1      21.188   2.005  52.637  1.00  0.00     0.020 C 
HETATM   11  C10 UNL     1      19.925   2.505  52.329  1.00  0.00     0.101 C 
HETATM   12  N3  UNL     1      19.921   2.931  50.869  1.00  0.00    -0.285 N 
HETATM   13  C11 UNL     1      19.343   1.924  50.007  1.00  0.00     0.097 C 
HETATM   14  C12 UNL     1      20.396   1.156  49.472  1.00  0.00    -0.003 C 
HETATM   15  C13 UNL     1      21.922   1.011  49.488  1.00  0.00     0.085 C 
HETATM   16  C14 UNL     1      20.472   4.110  50.349  1.00  0.00     0.338 C 
HETATM   17  O2  UNL     1      19.756   4.734  51.037  1.00  0.00    -0.245 OA
HETATM   18  N4  UNL     1      20.948   5.357  49.901  1.00  0.00    -0.250 N 
HETATM   19  C21 UNL     1      23.974   3.659  49.062  1.00  0.00     0.126 A 
HETATM   20  C22 UNL     1      25.399   3.708  49.387  1.00  0.00     0.038 A 
HETATM   21  C23 UNL     1      26.197   4.758  49.345  1.00  0.00     0.097 A 
ENDROOT
BRANCH  18  22
HETATM   22  C15 UNL     1      20.629   6.689  49.557  1.00  0.00     0.048 A 
HETATM   23  C16 UNL     1      21.055   7.745  50.359  1.00  0.00     0.030 A 
HETATM   24  C17 UNL     1      20.752   9.057  50.039  1.00  0.00     0.005 A 
HETATM   25  C18 UNL     1      20.004   9.203  48.871  1.00  0.00     0.042 A 
HETATM   26  C19 UNL     1      19.562   8.189  48.047  1.00  0.00     0.118 A 
HETATM   27  F1  UNL     1      18.840   8.480  46.936  1.00  0.00    -0.206 F 
HETATM   28  C20 UNL     1      19.896   6.905  48.420  1.00  0.00     0.072 A 
ENDBRANCH  18  22
BRANCH   1  29
HETATM   29  O1  UNL     1      26.502   7.128  48.900  1.00  0.00    -0.353 OA
HETATM   30  C1  UNL     1      26.406   8.070  49.960  1.00  0.00     0.210 C 
ENDBRANCH   1  29
BRANCH  21  31
HETATM   31  O3  UNL     1      27.550   4.612  49.693  1.00  0.00    -0.358 OA
HETATM   32  H21 UNL     1      28.034   5.436  50.083  1.00  0.00     0.217 HD
ENDBRANCH  21  31
TORSDOF 3
ENDMDL
MODEL 8
REMARK VINA RESULT:      -7.4      5.171      9.211
REMARK  3 active torsions:
REMARK  status: ('A' for Active; 'I' for Inactive)
REMARK    1  A    between atoms: O1_2  and  C2_3 
REMARK    2  A    between atoms: N4_20  and  C15_21 
REMARK    3  A    between atoms: C23_30  and  O3_31 
ROOT
HETATM    1  C2  UNL     1      25.957   6.471  49.236  1.00  0.00     0.098 A 
HETATM    2  C3  UNL     1      27.065   6.577  48.517  1.00  0.00     0.027 A 
HETATM    3  C4  UNL     1      27.437   7.677  47.631  1.00  0.00     0.108 A 
HETATM    4  C5  UNL     1      28.644   8.327  48.207  1.00  0.00     0.121 C 
HETATM    5  N1  UNL     1      28.351   8.608  49.395  1.00  0.00    -0.256 NA
HETATM    6  C6  UNL     1      27.468   9.819  49.321  1.00  0.00     0.275 C 
HETATM    7  N2  UNL     1      27.001  10.084  47.969  1.00  0.00    -0.356 N 
HETATM    8  C7  UNL     1      27.166  11.391  47.330  1.00  0.00     0.012 C 
HETATM    9  C8  UNL     1      27.350  12.394  48.258  1.00  0.00     0.026 C 
HETATM   10  C9  UNL     1      28.765  12.902  48.492  1.00  0.00     0.020 C 
HETATM   11  C10 UNL     1      30.045  12.669  47.996  1.00  0.00     0.101 C 
HETATM   12  N3  UNL     1      29.983  11.483  47.048  1.00  0.00    -0.285 N 
HETATM   13  C11 UNL     1      29.905  11.892  45.663  1.00  0.00     0.097 C 
HETATM   14  C12 UNL     1      28.548  11.886  45.285  1.00  0.00    -0.003 C 
HETATM   15  C13 UNL     1      27.140  11.607  45.823  1.00  0.00     0.085 C 
HETATM   16  C14 UNL     1      29.922  10.131  47.415  1.00  0.00     0.338 C 
HETATM   17  O2  UNL     1      30.945  10.250  47.976  1.00  0.00    -0.245 OA
HETATM   18  N4  UNL     1      29.969   8.791  47.842  1.00  0.00    -0.250 N 
HETATM   19  C21 UNL     1      26.411   8.799  47.550  1.00  0.00     0.126 A 
HETATM   20  C22 UNL     1      25.230   8.580  48.384  1.00  0.00     0.038 A 
HETATM   21  C23 UNL     1      24.976   7.545  49.163  1.00  0.00     0.097 A 
ENDROOT
BRANCH  18  22
HETATM   22  C15 UNL     1      30.772   7.655  48.083  1.00  0.00     0.048 A 
HETATM   23  C16 UNL     1      31.298   7.419  49.351  1.00  0.00     0.030 A 
HETATM   24  C17 UNL     1      32.087   6.311  49.605  1.00  0.00     0.005 A 
HETATM   25  C18 UNL     1      32.292   5.487  48.499  1.00  0.00     0.042 A 
HETATM   26  C19 UNL     1      31.793   5.680  47.228  1.00  0.00     0.118 A 
HETATM   27  F1  UNL     1      32.074   4.791  46.243  1.00  0.00    -0.206 F 
HETATM   28  C20 UNL     1      31.014   6.801  47.038  1.00  0.00     0.072 A 
ENDBRANCH  18  22
BRANCH   1  29
HETATM   29  O1  UNL     1      25.664   5.395  50.062  1.00  0.00    -0.353 OA
HETATM   30  C1  UNL     1      25.277   4.180  49.435  1.00  0.00     0.210 C 
ENDBRANCH   1  29
BRANCH  21  31
HETATM   31  O3  UNL     1      23.778   7.508  49.895  1.00  0.00    -0.358 OA
HETATM   32  H21 UNL     1      23.071   6.808  49.620  1.00  0.00     0.217 HD
ENDBRANCH  21  31
TORSDOF 3
ENDMDL
MODEL 9
REMARK VINA RESULT:      -7.4      8.838     11.123
REMARK  3 active torsions:
REMARK  status: ('A' for Active; 'I' for Inactive)
REMARK    1  A    between atoms: O1_2  and  C2_3 
REMARK    2  A    between atoms: N4_20  and  C15_21 
REMARK    3  A    between atoms: C23_30  and  O3_31 
ROOT
HETATM    1  C2  UNL     1      33.326   4.905  46.594  1.00  0.00     0.098 A 
HETATM    2  C3  UNL     1      33.105   5.897  45.744  1.00  0.00     0.027 A 
HETATM    3  C4  UNL     1      32.016   6.870  45.790  1.00  0.00     0.108 A 
HETATM    4  C5  UNL     1      32.621   8.207  46.028  1.00  0.00     0.121 C 
HETATM    5  N1  UNL     1      33.338   8.085  47.051  1.00  0.00    -0.256 NA
HETATM    6  C6  UNL     1      32.389   8.068  48.213  1.00  0.00     0.275 C 
HETATM    7  N2  UNL     1      31.006   7.891  47.798  1.00  0.00    -0.356 N 
HETATM    8  C7  UNL     1      29.944   8.805  48.222  1.00  0.00     0.012 C 
HETATM    9  C8  UNL     1      30.290   9.499  49.362  1.00  0.00     0.026 C 
HETATM   10  C9  UNL     1      30.762  10.937  49.210  1.00  0.00     0.020 C 
HETATM   11  C10 UNL     1      30.943  11.866  48.187  1.00  0.00     0.101 C 
HETATM   12  N3  UNL     1      30.710  11.166  46.858  1.00  0.00    -0.285 N 
HETATM   13  C11 UNL     1      29.377  11.392  46.346  1.00  0.00     0.097 C 
HETATM   14  C12 UNL     1      28.576  10.297  46.724  1.00  0.00    -0.003 C 
HETATM   15  C13 UNL     1      28.620   8.967  47.485  1.00  0.00     0.085 C 
HETATM   16  C14 UNL     1      31.612  10.322  46.197  1.00  0.00     0.338 C 
HETATM   17  O2  UNL     1      32.386  11.204  46.152  1.00  0.00    -0.245 OA
HETATM   18  N4  UNL     1      32.599   9.570  45.531  1.00  0.00    -0.250 N 
HETATM   19  C21 UNL     1      31.051   6.684  46.952  1.00  0.00     0.126 A 
HETATM   20  C22 UNL     1      31.389   5.562  47.827  1.00  0.00     0.038 A 
HETATM   21  C23 UNL     1      32.405   4.728  47.709  1.00  0.00     0.097 A 
ENDROOT
BRANCH  18  22
HETATM   22  C15 UNL     1      33.617   9.560  44.553  1.00  0.00     0.048 A 
HETATM   23  C16 UNL     1      33.315   9.283  43.222  1.00  0.00     0.030 A 
HETATM   24  C17 UNL     1      34.300   9.268  42.250  1.00  0.00     0.005 A 
HETATM   25  C18 UNL     1      35.580   9.550  42.727  1.00  0.00     0.042 A 
HETATM   26  C19 UNL     1      35.926   9.829  44.033  1.00  0.00     0.118 A 
HETATM   27  F1  UNL     1      37.218  10.087  44.355  1.00  0.00    -0.206 F 
HETATM   28  C20 UNL     1      34.900   9.829  44.954  1.00  0.00     0.072 A 
ENDBRANCH  18  22
BRANCH   1  29
HETATM   29  O1  UNL     1      34.384   4.013  46.493  1.00  0.00    -0.353 OA
HETATM   30  C1  UNL     1      35.089   3.977  45.259  1.00  0.00     0.210 C 
ENDBRANCH   1  29
BRANCH  21  31
HETATM   31  O3  UNL     1      32.570   3.701  48.653  1.00  0.00    -0.358 OA
HETATM   32  H21 UNL     1      33.319   3.813  49.354  1.00  0.00     0.217 HD
ENDBRANCH  21  31
TORSDOF 3
ENDMDL
