MODEL 1
REMARK VINA RESULT:      -9.0      0.000      0.000
REMARK  7 active torsions:
REMARK  status: ('A' for Active; 'I' for Inactive)
REMARK    1  A    between atoms: C2_2  and  O1_3 
REMARK    2  A    between atoms: O1_3  and  C3_4 
REMARK    3  A    between atoms: C7_10  and  C8_11 
REMARK    4  A    between atoms: C18_21  and  O2_22 
REMARK    5  A    between atoms: O2_22  and  C19_23 
REMARK    6  A    between atoms: C19_23  and  C20_24 
REMARK    7  A    between atoms: C20_24  and  N3_25 
ROOT
HETATM    1  C3  UNL     1      20.564  -0.273  53.119  1.00  0.00     0.104 A 
HETATM    2  C4  UNL     1      21.090  -0.732  54.305  1.00  0.00     0.072 A 
HETATM    3  C5  UNL     1      22.444  -0.859  54.521  1.00  0.00     0.073 A 
HETATM    4  N1  UNL     1      22.845  -1.322  55.723  1.00  0.00    -0.241 NA
HETATM    5  C6  UNL     1      24.145  -1.449  55.941  1.00  0.00     0.234 A 
HETATM    6  N2  UNL     1      25.068  -1.129  54.996  1.00  0.00    -0.245 NA
HETATM    7  C7  UNL     1      24.700  -0.661  53.777  1.00  0.00     0.057 A 
HETATM    8  C16 UNL     1      23.347  -0.530  53.556  1.00  0.00     0.021 A 
HETATM    9  C17 UNL     1      22.880  -0.068  52.357  1.00  0.00     0.055 A 
HETATM   10  C18 UNL     1      21.513   0.057  52.144  1.00  0.00     0.103 A 
ENDROOT
BRANCH  10  11
HETATM   11  O2  UNL     1      21.101   0.529  50.913  1.00  0.00    -0.347 OA
BRANCH  11  12
HETATM   12  C19 UNL     1      22.003   1.206  50.093  1.00  0.00     0.206 C 
BRANCH  12  13
HETATM   13  C20 UNL     1      21.628   2.676  50.110  1.00  0.00     0.299 C 
BRANCH  13  14
HETATM   14  N3  UNL     1      22.702   3.508  50.640  1.00  0.00     0.094 N 
HETATM   15  C21 UNL     1      22.470   3.657  52.058  1.00  0.00     0.298 C 
HETATM   16  C22 UNL     1      23.696   4.051  52.839  1.00  0.00     0.198 C 
HETATM   17  O3  UNL     1      24.714   3.104  52.632  1.00  0.00    -0.388 OA
HETATM   18  C23 UNL     1      25.066   3.254  51.278  1.00  0.00     0.198 C 
HETATM   19  C24 UNL     1      23.920   2.729  50.455  1.00  0.00     0.298 C 
ENDBRANCH  13  14
ENDBRANCH  12  13
ENDBRANCH  11  12
ENDBRANCH  10  11
BRANCH   1  20
HETATM   20  O1  UNL     1      19.248  -0.095  52.761  1.00  0.00    -0.349 OA
BRANCH  20  21
HETATM   21  C2  UNL     1      18.258  -1.041  53.099  1.00  0.00     0.171 C 
HETATM   22  C1  UNL     1      17.025  -0.979  52.254  1.00  0.00     0.034 C 
ENDBRANCH  20  21
ENDBRANCH   1  20
BRANCH   7  23
HETATM   23  C8  UNL     1      25.721  -0.308  52.756  1.00  0.00     0.076 A 
HETATM   24  C9  UNL     1      26.584  -1.487  52.437  1.00  0.00     0.055 A 
HETATM   25  C10 UNL     1      27.700  -0.721  52.968  1.00  0.00    -0.050 A 
HETATM   26  C11 UNL     1      29.061  -0.786  53.205  1.00  0.00     0.007 A 
HETATM   27  C15 UNL     1      26.919   0.344  53.255  1.00  0.00    -0.042 A 
HETATM   28  C12 UNL     1      29.724   0.294  53.778  1.00  0.00     0.001 A 
HETATM   29  C13 UNL     1      28.941   1.413  54.087  1.00  0.00     0.001 A 
HETATM   30  C14 UNL     1      27.597   1.401  53.822  1.00  0.00     0.008 A 
ENDBRANCH   7  23
TORSDOF 7
ENDMDL
MODEL 2
REMARK VINA RESULT:      -8.7      1.082      1.309
REMARK  7 active torsions:
REMARK  status: ('A' for Active; 'I' for Inactive)
REMARK    1  A    between atoms: C2_2  and  O1_3 
REMARK    2  A    between atoms: O1_3  and  C3_4 
REMARK    3  A    between atoms: C7_10  and  C8_11 
REMARK    4  A    between atoms: C18_21  and  O2_22 
REMARK    5  A    between atoms: O2_22  and  C19_23 
REMARK    6  A    between atoms: C19_23  and  C20_24 
REMARK    7  A    between atoms: C20_24  and  N3_25 
ROOT
HETATM    1  C3  UNL     1      20.674   0.136  53.128  1.00  0.00     0.104 A 
HETATM    2  C4  UNL     1      21.136  -0.472  54.273  1.00  0.00     0.072 A 
HETATM    3  C5  UNL     1      22.472  -0.720  54.499  1.00  0.00     0.073 A 
HETATM    4  N1  UNL     1      22.808  -1.323  55.658  1.00  0.00    -0.241 NA
HETATM    5  C6  UNL     1      24.090  -1.567  55.885  1.00  0.00     0.234 A 
HETATM    6  N2  UNL     1      25.057  -1.229  54.991  1.00  0.00    -0.245 NA
HETATM    7  C7  UNL     1      24.753  -0.620  53.817  1.00  0.00     0.057 A 
HETATM    8  C16 UNL     1      23.419  -0.368  53.586  1.00  0.00     0.021 A 
HETATM    9  C17 UNL     1      23.017   0.239  52.429  1.00  0.00     0.055 A 
HETATM   10  C18 UNL     1      21.668   0.486  52.206  1.00  0.00     0.103 A 
ENDROOT
BRANCH  10  11
HETATM   11  O2  UNL     1      21.322   1.102  51.019  1.00  0.00    -0.347 OA
BRANCH  11  12
HETATM   12  C19 UNL     1      22.319   1.519  50.138  1.00  0.00     0.206 C 
BRANCH  12  13
HETATM   13  C20 UNL     1      22.101   2.995  49.860  1.00  0.00     0.299 C 
BRANCH  13  14
HETATM   14  N3  UNL     1      23.250   3.802  50.257  1.00  0.00     0.094 N 
HETATM   15  C21 UNL     1      24.349   2.894  50.492  1.00  0.00     0.298 C 
HETATM   16  C22 UNL     1      25.704   3.549  50.428  1.00  0.00     0.198 C 
HETATM   17  O3  UNL     1      25.872   4.168  49.177  1.00  0.00    -0.388 OA
HETATM   18  C23 UNL     1      24.944   5.225  49.179  1.00  0.00     0.198 C 
HETATM   19  C24 UNL     1      23.570   4.617  49.091  1.00  0.00     0.298 C 
ENDBRANCH  13  14
ENDBRANCH  12  13
ENDBRANCH  11  12
ENDBRANCH  10  11
BRANCH   1  20
HETATM   20  O1  UNL     1      19.383   0.445  52.765  1.00  0.00    -0.349 OA
BRANCH  20  21
HETATM   21  C2  UNL     1      18.527  -0.520  52.197  1.00  0.00     0.171 C 
HETATM   22  C1  UNL     1      17.706  -1.282  53.189  1.00  0.00     0.034 C 
ENDBRANCH  20  21
ENDBRANCH   1  20
BRANCH   7  23
HETATM   23  C8  UNL     1      25.822  -0.249  52.852  1.00  0.00     0.076 A 
HETATM   24  C9  UNL     1      26.547  -1.464  52.368  1.00  0.00     0.055 A 
HETATM   25  C10 UNL     1      27.737  -0.916  52.998  1.00  0.00    -0.050 A 
HETATM   26  C11 UNL     1      29.078  -1.171  53.220  1.00  0.00     0.007 A 
HETATM   27  C15 UNL     1      27.081   0.182  53.436  1.00  0.00    -0.042 A 
HETATM   28  C12 UNL     1      29.854  -0.267  53.937  1.00  0.00     0.001 A 
HETATM   29  C13 UNL     1      29.202   0.880  54.403  1.00  0.00     0.001 A 
HETATM   30  C14 UNL     1      27.870   1.063  54.144  1.00  0.00     0.008 A 
ENDBRANCH   7  23
TORSDOF 7
ENDMDL
MODEL 3
REMARK VINA RESULT:      -8.3      2.723      6.235
REMARK  7 active torsions:
REMARK  status: ('A' for Active; 'I' for Inactive)
REMARK    1  A    between atoms: C2_2  and  O1_3 
REMARK    2  A    between atoms: O1_3  and  C3_4 
REMARK    3  A    between atoms: C7_10  and  C8_11 
REMARK    4  A    between atoms: C18_21  and  O2_22 
REMARK    5  A    between atoms: O2_22  and  C19_23 
REMARK    6  A    between atoms: C19_23  and  C20_24 
REMARK    7  A    between atoms: C20_24  and  N3_25 
ROOT
HETATM    1  C3  UNL     1      22.202   0.883  51.265  1.00  0.00     0.104 A 
HETATM    2  C4  UNL     1      21.762   1.310  50.033  1.00  0.00     0.072 A 
HETATM    3  C5  UNL     1      22.235   2.453  49.426  1.00  0.00     0.073 A 
HETATM    4  N1  UNL     1      21.729   2.774  48.218  1.00  0.00    -0.241 NA
HETATM    5  C6  UNL     1      22.177   3.872  47.627  1.00  0.00     0.234 A 
HETATM    6  N2  UNL     1      23.118   4.667  48.201  1.00  0.00    -0.245 NA
HETATM    7  C7  UNL     1      23.647   4.373  49.415  1.00  0.00     0.057 A 
HETATM    8  C16 UNL     1      23.180   3.230  50.025  1.00  0.00     0.021 A 
HETATM    9  C17 UNL     1      23.653   2.854  51.252  1.00  0.00     0.055 A 
HETATM   10  C18 UNL     1      23.172   1.701  51.858  1.00  0.00     0.103 A 
ENDROOT
BRANCH  10  11
HETATM   11  O2  UNL     1      23.687   1.371  53.097  1.00  0.00    -0.347 OA
BRANCH  11  12
HETATM   12  C19 UNL     1      25.044   1.561  53.356  1.00  0.00     0.206 C 
BRANCH  12  13
HETATM   13  C20 UNL     1      25.806   0.445  52.666  1.00  0.00     0.299 C 
BRANCH  13  14
HETATM   14  N3  UNL     1      27.250   0.606  52.798  1.00  0.00     0.094 N 
HETATM   15  C21 UNL     1      27.509   2.015  52.985  1.00  0.00     0.298 C 
HETATM   16  C22 UNL     1      28.845   2.311  53.615  1.00  0.00     0.198 C 
HETATM   17  O3  UNL     1      28.940   1.653  54.853  1.00  0.00    -0.388 OA
HETATM   18  C23 UNL     1      28.975   0.285  54.524  1.00  0.00     0.198 C 
HETATM   19  C24 UNL     1      27.604  -0.092  54.028  1.00  0.00     0.298 C 
ENDBRANCH  13  14
ENDBRANCH  12  13
ENDBRANCH  11  12
ENDBRANCH  10  11
BRANCH   1  20
HETATM   20  O1  UNL     1      21.826  -0.225  51.989  1.00  0.00    -0.349 OA
BRANCH  20  21
HETATM   21  C2  UNL     1      20.758  -0.175  52.908  1.00  0.00     0.171 C 
HETATM   22  C1  UNL     1      20.951  -1.016  54.130  1.00  0.00     0.034 C 
ENDBRANCH  20  21
ENDBRANCH   1  20
BRANCH   7  23
HETATM   23  C8  UNL     1      24.681   5.248  50.028  1.00  0.00     0.076 A 
HETATM   24  C9  UNL     1      24.590   6.638  49.486  1.00  0.00     0.055 A 
HETATM   25  C10 UNL     1      25.924   6.435  48.942  1.00  0.00    -0.050 A 
HETATM   26  C11 UNL     1      26.917   7.060  48.210  1.00  0.00     0.007 A 
HETATM   27  C15 UNL     1      26.005   5.178  49.433  1.00  0.00    -0.042 A 
HETATM   28  C12 UNL     1      28.105   6.393  47.930  1.00  0.00     0.001 A 
HETATM   29  C13 UNL     1      28.219   5.089  48.425  1.00  0.00     0.001 A 
HETATM   30  C14 UNL     1      27.190   4.538  49.143  1.00  0.00     0.008 A 
ENDBRANCH   7  23
TORSDOF 7
ENDMDL
MODEL 4
REMARK VINA RESULT:      -8.2      2.669      6.846
REMARK  7 active torsions:
REMARK  status: ('A' for Active; 'I' for Inactive)
REMARK    1  A    between atoms: C2_2  and  O1_3 
REMARK    2  A    between atoms: O1_3  and  C3_4 
REMARK    3  A    between atoms: C7_10  and  C8_11 
REMARK    4  A    between atoms: C18_21  and  O2_22 
REMARK    5  A    between atoms: O2_22  and  C19_23 
REMARK    6  A    between atoms: C19_23  and  C20_24 
REMARK    7  A    between atoms: C20_24  and  N3_25 
ROOT
HETATM    1  C3  UNL     1      24.551   4.601  50.519  1.00  0.00     0.104 A 
HETATM    2  C4  UNL     1      23.286   5.122  50.669  1.00  0.00     0.072 A 
HETATM    3  C5  UNL     1      22.171   4.333  50.853  1.00  0.00     0.073 A 
HETATM    4  N1  UNL     1      20.982   4.954  50.988  1.00  0.00    -0.241 NA
HETATM    5  C6  UNL     1      19.904   4.205  51.164  1.00  0.00     0.234 A 
HETATM    6  N2  UNL     1      19.969   2.849  51.211  1.00  0.00    -0.245 NA
HETATM    7  C7  UNL     1      21.149   2.192  51.079  1.00  0.00     0.057 A 
HETATM    8  C16 UNL     1      22.267   2.976  50.897  1.00  0.00     0.021 A 
HETATM    9  C17 UNL     1      23.501   2.404  50.752  1.00  0.00     0.055 A 
HETATM   10  C18 UNL     1      24.621   3.203  50.567  1.00  0.00     0.103 A 
ENDROOT
BRANCH  10  11
HETATM   11  O2  UNL     1      25.840   2.569  50.427  1.00  0.00    -0.347 OA
BRANCH  11  12
HETATM   12  C19 UNL     1      26.300   1.721  51.433  1.00  0.00     0.206 C 
BRANCH  12  13
HETATM   13  C20 UNL     1      27.377   2.462  52.204  1.00  0.00     0.299 C 
BRANCH  13  14
HETATM   14  N3  UNL     1      27.505   1.972  53.572  1.00  0.00     0.094 N 
HETATM   15  C21 UNL     1      26.332   1.177  53.854  1.00  0.00     0.298 C 
HETATM   16  C22 UNL     1      26.509   0.213  54.998  1.00  0.00     0.198 C 
HETATM   17  O3  UNL     1      27.594  -0.640  54.733  1.00  0.00    -0.388 OA
HETATM   18  C23 UNL     1      28.722   0.201  54.773  1.00  0.00     0.198 C 
HETATM   19  C24 UNL     1      28.664   1.087  53.557  1.00  0.00     0.298 C 
ENDBRANCH  13  14
ENDBRANCH  12  13
ENDBRANCH  11  12
ENDBRANCH  10  11
BRANCH   1  20
HETATM   20  O1  UNL     1      25.746   5.256  50.329  1.00  0.00    -0.349 OA
BRANCH  20  21
HETATM   21  C2  UNL     1      25.900   6.227  49.318  1.00  0.00     0.171 C 
HETATM   22  C1  UNL     1      27.150   6.084  48.507  1.00  0.00     0.034 C 
ENDBRANCH  20  21
ENDBRANCH   1  20
BRANCH   7  23
HETATM   23  C8  UNL     1      21.207   0.708  51.140  1.00  0.00     0.076 A 
HETATM   24  C9  UNL     1      19.916   0.146  51.645  1.00  0.00     0.055 A 
HETATM   25  C10 UNL     1      20.667  -0.363  52.781  1.00  0.00    -0.050 A 
HETATM   26  C11 UNL     1      20.527  -1.078  53.957  1.00  0.00     0.007 A 
HETATM   27  C15 UNL     1      21.833   0.146  52.324  1.00  0.00    -0.042 A 
HETATM   28  C12 UNL     1      21.633  -1.321  54.764  1.00  0.00     0.001 A 
HETATM   29  C13 UNL     1      22.856  -0.807  54.317  1.00  0.00     0.001 A 
HETATM   30  C14 UNL     1      22.914  -0.107  53.141  1.00  0.00     0.008 A 
ENDBRANCH   7  23
TORSDOF 7
ENDMDL
MODEL 5
REMARK VINA RESULT:      -8.1      3.084      4.449
REMARK  7 active torsions:
REMARK  status: ('A' for Active; 'I' for Inactive)
REMARK    1  A    between atoms: C2_2  and  O1_3 
REMARK    2  A    between atoms: O1_3  and  C3_4 
REMARK    3  A    between atoms: C7_10  and  C8_11 
REMARK    4  A    between atoms: C18_21  and  O2_22 
REMARK    5  A    between atoms: O2_22  and  C19_23 
REMARK    6  A    between atoms: C19_23  and  C20_24 
REMARK    7  A    between atoms: C20_24  and  N3_25 
ROOT
HETATM    1  C3  UNL     1      22.412   3.355  51.130  1.00  0.00     0.104 A 
HETATM    2  C4  UNL     1      21.955   2.456  52.067  1.00  0.00     0.072 A 
HETATM    3  C5  UNL     1      22.733   1.433  52.562  1.00  0.00     0.073 A 
HETATM    4  N1  UNL     1      22.178   0.611  53.476  1.00  0.00    -0.241 NA
HETATM    5  C6  UNL     1      22.918  -0.377  53.957  1.00  0.00     0.234 A 
HETATM    6  N2  UNL     1      24.201  -0.577  53.557  1.00  0.00    -0.245 NA
HETATM    7  C7  UNL     1      24.790   0.231  52.640  1.00  0.00     0.057 A 
HETATM    8  C16 UNL     1      24.017   1.257  52.143  1.00  0.00     0.021 A 
HETATM    9  C17 UNL     1      24.524   2.121  51.212  1.00  0.00     0.055 A 
HETATM   10  C18 UNL     1      23.734   3.151  50.717  1.00  0.00     0.103 A 
ENDROOT
BRANCH  10  11
HETATM   11  O2  UNL     1      24.301   3.992  49.779  1.00  0.00    -0.347 OA
BRANCH  11  12
HETATM   12  C19 UNL     1      25.629   4.390  49.917  1.00  0.00     0.206 C 
BRANCH  12  13
HETATM   13  C20 UNL     1      25.711   5.861  49.552  1.00  0.00     0.299 C 
BRANCH  13  14
HETATM   14  N3  UNL     1      26.710   6.114  48.520  1.00  0.00     0.094 N 
HETATM   15  C21 UNL     1      27.254   7.430  48.763  1.00  0.00     0.298 C 
HETATM   16  C22 UNL     1      28.600   7.661  48.127  1.00  0.00     0.198 C 
HETATM   17  O3  UNL     1      29.510   6.692  48.582  1.00  0.00    -0.388 OA
HETATM   18  C23 UNL     1      29.040   5.482  48.038  1.00  0.00     0.198 C 
HETATM   19  C24 UNL     1      27.763   5.133  48.755  1.00  0.00     0.298 C 
ENDBRANCH  13  14
ENDBRANCH  12  13
ENDBRANCH  11  12
ENDBRANCH  10  11
BRANCH   1  20
HETATM   20  O1  UNL     1      21.758   4.416  50.549  1.00  0.00    -0.349 OA
BRANCH  20  21
HETATM   21  C2  UNL     1      21.558   5.627  51.243  1.00  0.00     0.171 C 
HETATM   22  C1  UNL     1      21.268   6.804  50.367  1.00  0.00     0.034 C 
ENDBRANCH  20  21
ENDBRANCH   1  20
BRANCH   7  23
HETATM   23  C8  UNL     1      26.197   0.005  52.216  1.00  0.00     0.076 A 
HETATM   24  C9  UNL     1      26.816  -1.108  53.000  1.00  0.00     0.055 A 
HETATM   25  C10 UNL     1      27.749  -0.123  53.524  1.00  0.00    -0.050 A 
HETATM   26  C11 UNL     1      28.828   0.021  54.377  1.00  0.00     0.007 A 
HETATM   27  C15 UNL     1      27.188   0.882  52.815  1.00  0.00    -0.042 A 
HETATM   28  C12 UNL     1      29.417   1.268  54.554  1.00  0.00     0.001 A 
HETATM   29  C13 UNL     1      28.860   2.329  53.833  1.00  0.00     0.001 A 
HETATM   30  C14 UNL     1      27.789   2.108  53.007  1.00  0.00     0.008 A 
ENDBRANCH   7  23
TORSDOF 7
ENDMDL
MODEL 6
REMARK VINA RESULT:      -8.1      1.752      2.353
REMARK  7 active torsions:
REMARK  status: ('A' for Active; 'I' for Inactive)
REMARK    1  A    between atoms: C2_2  and  O1_3 
REMARK    2  A    between atoms: O1_3  and  C3_4 
REMARK    3  A    between atoms: C7_10  and  C8_11 
REMARK    4  A    between atoms: C18_21  and  O2_22 
REMARK    5  A    between atoms: O2_22  and  C19_23 
REMARK    6  A    between atoms: C19_23  and  C20_24 
REMARK    7  A    between atoms: C20_24  and  N3_25 
ROOT
HETATM    1  C3  UNL     1      20.655   0.255  53.049  1.00  0.00     0.104 A 
HETATM    2  C4  UNL     1      21.123  -0.357  54.190  1.00  0.00     0.072 A 
HETATM    3  C5  UNL     1      22.457  -0.627  54.398  1.00  0.00     0.073 A 
HETATM    4  N1  UNL     1      22.800  -1.232  55.553  1.00  0.00    -0.241 NA
HETATM    5  C6  UNL     1      24.080  -1.498  55.763  1.00  0.00     0.234 A 
HETATM    6  N2  UNL     1      25.040  -1.179  54.855  1.00  0.00    -0.245 NA
HETATM    7  C7  UNL     1      24.730  -0.569  53.683  1.00  0.00     0.057 A 
HETATM    8  C16 UNL     1      23.397  -0.295  53.470  1.00  0.00     0.021 A 
HETATM    9  C17 UNL     1      22.988   0.315  52.317  1.00  0.00     0.055 A 
HETATM   10  C18 UNL     1      21.642   0.585  52.112  1.00  0.00     0.103 A 
ENDROOT
BRANCH  10  11
HETATM   11  O2  UNL     1      21.289   1.203  50.928  1.00  0.00    -0.347 OA
BRANCH  11  12
HETATM   12  C19 UNL     1      22.251   1.408  49.940  1.00  0.00     0.206 C 
BRANCH  12  13
HETATM   13  C20 UNL     1      22.646   2.872  49.977  1.00  0.00     0.299 C 
BRANCH  13  14
HETATM   14  N3  UNL     1      22.949   3.391  48.648  1.00  0.00     0.094 N 
HETATM   15  C21 UNL     1      22.090   2.702  47.713  1.00  0.00     0.298 C 
HETATM   16  C22 UNL     1      21.908   3.426  46.405  1.00  0.00     0.198 C 
HETATM   17  O3  UNL     1      21.397   4.713  46.644  1.00  0.00    -0.388 OA
HETATM   18  C23 UNL     1      22.438   5.390  47.305  1.00  0.00     0.198 C 
HETATM   19  C24 UNL     1      22.556   4.795  48.683  1.00  0.00     0.298 C 
ENDBRANCH  13  14
ENDBRANCH  12  13
ENDBRANCH  11  12
ENDBRANCH  10  11
BRANCH   1  20
HETATM   20  O1  UNL     1      19.365   0.585  52.704  1.00  0.00    -0.349 OA
BRANCH  20  21
HETATM   21  C2  UNL     1      18.499  -0.354  52.107  1.00  0.00     0.171 C 
HETATM   22  C1  UNL     1      17.794  -1.251  53.074  1.00  0.00     0.034 C 
ENDBRANCH  20  21
ENDBRANCH   1  20
BRANCH   7  23
HETATM   23  C8  UNL     1      25.791  -0.220  52.701  1.00  0.00     0.076 A 
HETATM   24  C9  UNL     1      26.893  -1.230  52.728  1.00  0.00     0.055 A 
HETATM   25  C10 UNL     1      27.768  -0.157  53.171  1.00  0.00    -0.050 A 
HETATM   26  C11 UNL     1      29.075   0.115  53.534  1.00  0.00     0.007 A 
HETATM   27  C15 UNL     1      26.771   0.756  53.147  1.00  0.00    -0.042 A 
HETATM   28  C12 UNL     1      29.444   1.401  53.910  1.00  0.00     0.001 A 
HETATM   29  C13 UNL     1      28.432   2.369  53.895  1.00  0.00     0.001 A 
HETATM   30  C14 UNL     1      27.160   2.023  53.524  1.00  0.00     0.008 A 
ENDBRANCH   7  23
TORSDOF 7
ENDMDL
MODEL 7
REMARK VINA RESULT:      -8.0      2.623      6.277
REMARK  7 active torsions:
REMARK  status: ('A' for Active; 'I' for Inactive)
REMARK    1  A    between atoms: C2_2  and  O1_3 
REMARK    2  A    between atoms: O1_3  and  C3_4 
REMARK    3  A    between atoms: C7_10  and  C8_11 
REMARK    4  A    between atoms: C18_21  and  O2_22 
REMARK    5  A    between atoms: O2_22  and  C19_23 
REMARK    6  A    between atoms: C19_23  and  C20_24 
REMARK    7  A    between atoms: C20_24  and  N3_25 
ROOT
HETATM    1  C3  UNL     1      26.291  -0.286  52.965  1.00  0.00     0.104 A 
HETATM    2  C4  UNL     1      25.295  -0.864  53.718  1.00  0.00     0.072 A 
HETATM    3  C5  UNL     1      24.006  -0.379  53.750  1.00  0.00     0.073 A 
HETATM    4  N1  UNL     1      23.114  -1.026  54.527  1.00  0.00    -0.241 NA
HETATM    5  C6  UNL     1      21.872  -0.567  54.566  1.00  0.00     0.234 A 
HETATM    6  N2  UNL     1      21.485   0.524  53.853  1.00  0.00    -0.245 NA
HETATM    7  C7  UNL     1      22.357   1.198  53.062  1.00  0.00     0.057 A 
HETATM    8  C16 UNL     1      23.647   0.716  53.025  1.00  0.00     0.021 A 
HETATM    9  C17 UNL     1      24.597   1.331  52.258  1.00  0.00     0.055 A 
HETATM   10  C18 UNL     1      25.894   0.837  52.230  1.00  0.00     0.103 A 
ENDROOT
BRANCH  10  11
HETATM   11  O2  UNL     1      26.811   1.501  51.437  1.00  0.00    -0.347 OA
BRANCH  11  12
HETATM   12  C19 UNL     1      26.631   2.854  51.154  1.00  0.00     0.206 C 
BRANCH  12  13
HETATM   13  C20 UNL     1      26.474   2.994  49.650  1.00  0.00     0.299 C 
BRANCH  13  14
HETATM   14  N3  UNL     1      25.739   4.201  49.288  1.00  0.00     0.094 N 
HETATM   15  C21 UNL     1      25.038   4.647  50.469  1.00  0.00     0.298 C 
HETATM   16  C22 UNL     1      24.638   6.099  50.429  1.00  0.00     0.198 C 
HETATM   17  O3  UNL     1      25.778   6.898  50.237  1.00  0.00    -0.388 OA
HETATM   18  C23 UNL     1      26.208   6.591  48.933  1.00  0.00     0.198 C 
HETATM   19  C24 UNL     1      26.759   5.190  48.960  1.00  0.00     0.298 C 
ENDBRANCH  13  14
ENDBRANCH  12  13
ENDBRANCH  11  12
ENDBRANCH  10  11
BRANCH   1  20
HETATM   20  O1  UNL     1      27.610  -0.655  52.834  1.00  0.00    -0.349 OA
BRANCH  20  21
HETATM   21  C2  UNL     1      28.565  -0.331  53.820  1.00  0.00     0.171 C 
HETATM   22  C1  UNL     1      29.898  -0.983  53.629  1.00  0.00     0.034 C 
ENDBRANCH  20  21
ENDBRANCH   1  20
BRANCH   7  23
HETATM   23  C8  UNL     1      21.918   2.386  52.283  1.00  0.00     0.076 A 
HETATM   24  C9  UNL     1      20.435   2.558  52.366  1.00  0.00     0.055 A 
HETATM   25  C10 UNL     1      20.402   2.334  50.930  1.00  0.00    -0.050 A 
HETATM   26  C11 UNL     1      19.540   2.254  49.851  1.00  0.00     0.007 A 
HETATM   27  C15 UNL     1      21.743   2.178  50.856  1.00  0.00    -0.042 A 
HETATM   28  C12 UNL     1      20.034   1.998  48.577  1.00  0.00     0.001 A 
HETATM   29  C13 UNL     1      21.420   1.833  48.468  1.00  0.00     0.001 A 
HETATM   30  C14 UNL     1      22.209   1.926  49.584  1.00  0.00     0.008 A 
ENDBRANCH   7  23
TORSDOF 7
ENDMDL
MODEL 8
REMARK VINA RESULT:      -7.9      2.580      3.615
REMARK  7 active torsions:
REMARK  status: ('A' for Active; 'I' for Inactive)
REMARK    1  A    between atoms: C2_2  and  O1_3 
REMARK    2  A    between atoms: O1_3  and  C3_4 
REMARK    3  A    between atoms: C7_10  and  C8_11 
REMARK    4  A    between atoms: C18_21  and  O2_22 
REMARK    5  A    between atoms: O2_22  and  C19_23 
REMARK    6  A    between atoms: C19_23  and  C20_24 
REMARK    7  A    between atoms: C20_24  and  N3_25 
ROOT
HETATM    1  C3  UNL     1      21.961   2.647  51.251  1.00  0.00     0.104 A 
HETATM    2  C4  UNL     1      21.689   1.812  52.311  1.00  0.00     0.072 A 
HETATM    3  C5  UNL     1      22.621   0.943  52.835  1.00  0.00     0.073 A 
HETATM    4  N1  UNL     1      22.241   0.171  53.873  1.00  0.00    -0.241 NA
HETATM    5  C6  UNL     1      23.129  -0.669  54.383  1.00  0.00     0.234 A 
HETATM    6  N2  UNL     1      24.392  -0.768  53.892  1.00  0.00    -0.245 NA
HETATM    7  C7  UNL     1      24.807  -0.006  52.848  1.00  0.00     0.057 A 
HETATM    8  C16 UNL     1      23.880   0.866  52.322  1.00  0.00     0.021 A 
HETATM    9  C17 UNL     1      24.206   1.673  51.267  1.00  0.00     0.055 A 
HETATM   10  C18 UNL     1      23.262   2.547  50.744  1.00  0.00     0.103 A 
ENDROOT
BRANCH  10  11
HETATM   11  O2  UNL     1      23.649   3.337  49.678  1.00  0.00    -0.347 OA
BRANCH  11  12
HETATM   12  C19 UNL     1      25.003   3.491  49.385  1.00  0.00     0.206 C 
BRANCH  12  13
HETATM   13  C20 UNL     1      25.436   4.851  49.900  1.00  0.00     0.299 C 
BRANCH  13  14
HETATM   14  N3  UNL     1      24.370   5.841  49.793  1.00  0.00     0.094 N 
HETATM   15  C21 UNL     1      24.531   6.764  50.892  1.00  0.00     0.298 C 
HETATM   16  C22 UNL     1      23.854   8.093  50.676  1.00  0.00     0.198 C 
HETATM   17  O3  UNL     1      24.338   8.684  49.497  1.00  0.00    -0.388 OA
HETATM   18  C23 UNL     1      23.869   7.851  48.465  1.00  0.00     0.198 C 
HETATM   19  C24 UNL     1      24.632   6.556  48.550  1.00  0.00     0.298 C 
ENDBRANCH  13  14
ENDBRANCH  12  13
ENDBRANCH  11  12
ENDBRANCH  10  11
BRANCH   1  20
HETATM   20  O1  UNL     1      21.141   3.558  50.627  1.00  0.00    -0.349 OA
BRANCH  20  21
HETATM   21  C2  UNL     1      20.896   4.830  51.183  1.00  0.00     0.171 C 
HETATM   22  C1  UNL     1      20.786   5.935  50.181  1.00  0.00     0.034 C 
ENDBRANCH  20  21
ENDBRANCH   1  20
BRANCH   7  23
HETATM   23  C8  UNL     1      26.194  -0.119  52.326  1.00  0.00     0.076 A 
HETATM   24  C9  UNL     1      26.960  -1.164  53.073  1.00  0.00     0.055 A 
HETATM   25  C10 UNL     1      27.841  -0.095  53.518  1.00  0.00    -0.050 A 
HETATM   26  C11 UNL     1      28.962   0.153  54.288  1.00  0.00     0.007 A 
HETATM   27  C15 UNL     1      27.147   0.848  52.842  1.00  0.00    -0.042 A 
HETATM   28  C12 UNL     1      29.455   1.448  54.410  1.00  0.00     0.001 A 
HETATM   29  C13 UNL     1      28.758   2.447  53.721  1.00  0.00     0.001 A 
HETATM   30  C14 UNL     1      27.654   2.122  52.978  1.00  0.00     0.008 A 
ENDBRANCH   7  23
TORSDOF 7
ENDMDL
MODEL 9
REMARK VINA RESULT:      -7.6      2.092      5.001
REMARK  7 active torsions:
REMARK  status: ('A' for Active; 'I' for Inactive)
REMARK    1  A    between atoms: C2_2  and  O1_3 
REMARK    2  A    between atoms: O1_3  and  C3_4 
REMARK    3  A    between atoms: C7_10  and  C8_11 
REMARK    4  A    between atoms: C18_21  and  O2_22 
REMARK    5  A    between atoms: O2_22  and  C19_23 
REMARK    6  A    between atoms: C19_23  and  C20_24 
REMARK    7  A    between atoms: C20_24  and  N3_25 
ROOT
HETATM    1  C3  UNL     1      22.106   3.317  49.441  1.00  0.00     0.104 A 
HETATM    2  C4  UNL     1      23.347   3.709  48.992  1.00  0.00     0.072 A 
HETATM    3  C5  UNL     1      24.512   3.409  49.663  1.00  0.00     0.073 A 
HETATM    4  N1  UNL     1      25.671   3.847  49.129  1.00  0.00    -0.241 NA
HETATM    5  C6  UNL     1      26.797   3.565  49.767  1.00  0.00     0.234 A 
HETATM    6  N2  UNL     1      26.810   2.856  50.927  1.00  0.00    -0.245 NA
HETATM    7  C7  UNL     1      25.663   2.401  51.490  1.00  0.00     0.057 A 
HETATM    8  C16 UNL     1      24.495   2.696  50.823  1.00  0.00     0.021 A 
HETATM    9  C17 UNL     1      23.289   2.281  51.316  1.00  0.00     0.055 A 
HETATM   10  C18 UNL     1      22.117   2.586  50.635  1.00  0.00     0.103 A 
ENDROOT
BRANCH  10  11
HETATM   11  O2  UNL     1      20.929   2.141  51.182  1.00  0.00    -0.347 OA
BRANCH  11  12
HETATM   12  C19 UNL     1      20.686   2.310  52.544  1.00  0.00     0.206 C 
BRANCH  12  13
HETATM   13  C20 UNL     1      20.040   1.037  53.060  1.00  0.00     0.299 C 
BRANCH  13  14
HETATM   14  N3  UNL     1      20.984  -0.074  53.106  1.00  0.00     0.094 N 
HETATM   15  C21 UNL     1      22.141   0.376  53.844  1.00  0.00     0.298 C 
HETATM   16  C22 UNL     1      22.978  -0.743  54.407  1.00  0.00     0.198 C 
HETATM   17  O3  UNL     1      22.187  -1.556  55.235  1.00  0.00    -0.388 OA
HETATM   18  C23 UNL     1      21.276  -2.173  54.357  1.00  0.00     0.198 C 
HETATM   19  C24 UNL     1      20.319  -1.112  53.884  1.00  0.00     0.298 C 
ENDBRANCH  13  14
ENDBRANCH  12  13
ENDBRANCH  11  12
ENDBRANCH  10  11
BRANCH   1  20
HETATM   20  O1  UNL     1      20.868   3.541  48.885  1.00  0.00    -0.349 OA
BRANCH  20  21
HETATM   21  C2  UNL     1      20.391   2.760  47.812  1.00  0.00     0.171 C 
HETATM   22  C1  UNL     1      19.081   3.213  47.250  1.00  0.00     0.034 C 
ENDBRANCH  20  21
ENDBRANCH   1  20
BRANCH   7  23
HETATM   23  C8  UNL     1      25.693   1.620  52.755  1.00  0.00     0.076 A 
HETATM   24  C9  UNL     1      26.723   2.165  53.692  1.00  0.00     0.055 A 
HETATM   25  C10 UNL     1      27.403   0.885  53.572  1.00  0.00    -0.050 A 
HETATM   26  C11 UNL     1      28.517   0.189  54.006  1.00  0.00     0.007 A 
HETATM   27  C15 UNL     1      26.470   0.394  52.726  1.00  0.00    -0.042 A 
HETATM   28  C12 UNL     1      28.742  -1.112  53.572  1.00  0.00     0.001 A 
HETATM   29  C13 UNL     1      27.793  -1.649  52.694  1.00  0.00     0.001 A 
HETATM   30  C14 UNL     1      26.715  -0.897  52.309  1.00  0.00     0.008 A 
ENDBRANCH   7  23
TORSDOF 7
ENDMDL
