MODEL 1
REMARK VINA RESULT:      -9.9      0.000      0.000
REMARK  1 active torsions:
REMARK  status: ('A' for Active; 'I' for Inactive)
REMARK    1  A    between atoms: C6_7  and  O1_8 
ROOT
HETATM    1  F1  UNL     1      28.251  -0.141  55.037  1.00  0.00    -0.203 F 
HETATM    2  C1  UNL     1      27.319   0.403  54.202  1.00  0.00     0.152 A 
HETATM    3  C2  UNL     1      27.614   1.426  53.323  1.00  0.00     0.047 A 
HETATM    4  C3  UNL     1      26.640   1.966  52.473  1.00  0.00     0.035 A 
HETATM    5  C4  UNL     1      25.349   1.410  52.566  1.00  0.00     0.071 A 
HETATM    6  C5  UNL     1      25.103   0.394  53.462  1.00  0.00     0.041 A 
HETATM    7  C6  UNL     1      26.049  -0.139  54.291  1.00  0.00     0.141 A 
HETATM    8  C7  UNL     1      23.651   0.130  53.473  1.00  0.00     0.185 C 
HETATM    9  C8  UNL     1      23.026   0.318  52.154  1.00  0.00     0.043 C 
HETATM   10  C9  UNL     1      23.258   1.300  51.341  1.00  0.00     0.086 A 
HETATM   11  C10 UNL     1      22.274   1.694  50.340  1.00  0.00     0.086 A 
HETATM   12  N1  UNL     1      22.618   2.681  49.586  1.00  0.00    -0.238 NA
HETATM   13  C11 UNL     1      23.907   3.315  49.770  1.00  0.00     0.256 A 
HETATM   14  N2  UNL     1      24.804   2.975  50.666  1.00  0.00    -0.160 NA
HETATM   15  N3  UNL     1      24.519   1.916  51.527  1.00  0.00    -0.230 N 
HETATM   16  C12 UNL     1      21.013   0.981  50.245  1.00  0.00     0.034 C 
HETATM   17  C13 UNL     1      19.714   0.843  50.417  1.00  0.00     0.003 C 
HETATM   18  C14 UNL     1      18.467   1.417  50.902  1.00  0.00     0.012 C 
HETATM   19  C15 UNL     1      17.610   0.629  51.545  1.00  0.00    -0.030 C 
HETATM   20  C16 UNL     1      18.226  -0.477  51.975  1.00  0.00    -0.015 C 
HETATM   21  C17 UNL     1      19.233   0.009  52.882  1.00  0.00     0.028 C 
HETATM   22  C18 UNL     1      20.201  -0.968  53.474  1.00  0.00     0.006 C 
HETATM   23  C19 UNL     1      21.047  -0.171  54.440  1.00  0.00     0.027 C 
HETATM   24  C20 UNL     1      22.244  -0.860  54.986  1.00  0.00     0.169 C 
HETATM   25  O2  UNL     1      23.234  -1.071  53.999  1.00  0.00    -0.377 OA
ENDROOT
BRANCH   7  26
HETATM   26  O1  UNL     1      25.629  -1.157  55.125  1.00  0.00    -0.237 OA
HETATM   27 CL1  UNL     1      25.267  -0.768  56.763  1.00  0.00     0.068 Cl
ENDBRANCH   7  26
TORSDOF 1
ENDMDL
MODEL 2
REMARK VINA RESULT:      -9.6      2.813      4.156
REMARK  1 active torsions:
REMARK  status: ('A' for Active; 'I' for Inactive)
REMARK    1  A    between atoms: C6_7  and  O1_8 
ROOT
HETATM    1  F1  UNL     1      28.321   2.672  52.467  1.00  0.00    -0.203 F 
HETATM    2  C1  UNL     1      27.213   1.949  52.799  1.00  0.00     0.152 A 
HETATM    3  C2  UNL     1      27.231   0.957  53.759  1.00  0.00     0.047 A 
HETATM    4  C3  UNL     1      26.078   0.230  54.084  1.00  0.00     0.035 A 
HETATM    5  C4  UNL     1      24.907   0.565  53.378  1.00  0.00     0.071 A 
HETATM    6  C5  UNL     1      24.940   1.557  52.425  1.00  0.00     0.041 A 
HETATM    7  C6  UNL     1      26.060   2.273  52.106  1.00  0.00     0.141 A 
HETATM    8  C7  UNL     1      23.638   1.575  51.730  1.00  0.00     0.185 C 
HETATM    9  C8  UNL     1      22.513   1.235  52.615  1.00  0.00     0.043 C 
HETATM   10  C9  UNL     1      22.500   0.276  53.487  1.00  0.00     0.086 A 
HETATM   11  C10 UNL     1      21.244  -0.315  53.934  1.00  0.00     0.086 A 
HETATM   12  N1  UNL     1      21.358  -1.258  54.806  1.00  0.00    -0.238 NA
HETATM   13  C11 UNL     1      22.669  -1.660  55.268  1.00  0.00     0.256 A 
HETATM   14  N2  UNL     1      23.809  -1.140  54.877  1.00  0.00    -0.160 NA
HETATM   15  N3  UNL     1      23.786  -0.112  53.935  1.00  0.00    -0.230 N 
HETATM   16  C12 UNL     1      19.985   0.173  53.402  1.00  0.00     0.034 C 
HETATM   17  C13 UNL     1      18.912   0.098  52.641  1.00  0.00     0.003 C 
HETATM   18  C14 UNL     1      18.148  -0.659  51.659  1.00  0.00     0.012 C 
HETATM   19  C15 UNL     1      17.570  -0.002  50.657  1.00  0.00    -0.030 C 
HETATM   20  C16 UNL     1      18.122   1.207  50.512  1.00  0.00    -0.015 C 
HETATM   21  C17 UNL     1      19.500   0.931  50.199  1.00  0.00     0.028 C 
HETATM   22  C18 UNL     1      20.455   2.079  50.080  1.00  0.00     0.006 C 
HETATM   23  C19 UNL     1      21.772   1.471  49.653  1.00  0.00     0.027 C 
HETATM   24  C20 UNL     1      22.952   2.371  49.695  1.00  0.00     0.169 C 
HETATM   25  O2  UNL     1      23.320   2.708  51.017  1.00  0.00    -0.377 OA
ENDROOT
BRANCH   7  26
HETATM   26  O1  UNL     1      25.913   3.237  51.128  1.00  0.00    -0.237 OA
HETATM   27 CL1  UNL     1      26.566   2.915  49.567  1.00  0.00     0.068 Cl
ENDBRANCH   7  26
TORSDOF 1
ENDMDL
MODEL 3
REMARK VINA RESULT:      -9.5      1.587      2.055
REMARK  1 active torsions:
REMARK  status: ('A' for Active; 'I' for Inactive)
REMARK    1  A    between atoms: C6_7  and  O1_8 
ROOT
HETATM    1  F1  UNL     1      28.021   1.466  52.481  1.00  0.00    -0.203 F 
HETATM    2  C1  UNL     1      26.740   1.697  52.073  1.00  0.00     0.152 A 
HETATM    3  C2  UNL     1      26.405   2.729  51.218  1.00  0.00     0.047 A 
HETATM    4  C3  UNL     1      25.082   2.943  50.811  1.00  0.00     0.035 A 
HETATM    5  C4  UNL     1      24.117   2.053  51.321  1.00  0.00     0.071 A 
HETATM    6  C5  UNL     1      24.499   1.043  52.175  1.00  0.00     0.041 A 
HETATM    7  C6  UNL     1      25.788   0.826  52.573  1.00  0.00     0.141 A 
HETATM    8  C7  UNL     1      23.281   0.385  52.686  1.00  0.00     0.185 C 
HETATM    9  C8  UNL     1      22.195   0.342  51.694  1.00  0.00     0.043 C 
HETATM   10  C9  UNL     1      21.840   1.319  50.919  1.00  0.00     0.086 A 
HETATM   11  C10 UNL     1      20.493   1.386  50.365  1.00  0.00     0.086 A 
HETATM   12  N1  UNL     1      20.258   2.401  49.607  1.00  0.00    -0.238 NA
HETATM   13  C11 UNL     1      21.300   3.376  49.362  1.00  0.00     0.256 A 
HETATM   14  N2  UNL     1      22.516   3.332  49.852  1.00  0.00    -0.160 NA
HETATM   15  N3  UNL     1      22.863   2.269  50.684  1.00  0.00    -0.230 N 
HETATM   16  C12 UNL     1      19.529   0.346  50.679  1.00  0.00     0.034 C 
HETATM   17  C13 UNL     1      18.472  -0.142  51.294  1.00  0.00     0.003 C 
HETATM   18  C14 UNL     1      17.379   0.079  52.230  1.00  0.00     0.012 C 
HETATM   19  C15 UNL     1      17.062  -0.892  53.083  1.00  0.00    -0.030 C 
HETATM   20  C16 UNL     1      18.069  -1.766  53.188  1.00  0.00    -0.015 C 
HETATM   21  C17 UNL     1      19.162  -0.985  53.706  1.00  0.00     0.028 C 
HETATM   22  C18 UNL     1      20.506  -1.631  53.845  1.00  0.00     0.006 C 
HETATM   23  C19 UNL     1      21.392  -0.594  54.497  1.00  0.00     0.027 C 
HETATM   24  C20 UNL     1      22.844  -0.901  54.531  1.00  0.00     0.169 C 
HETATM   25  O2  UNL     1      23.427  -0.864  53.243  1.00  0.00    -0.377 OA
ENDROOT
BRANCH   7  26
HETATM   26  O1  UNL     1      25.994  -0.237  53.431  1.00  0.00    -0.237 OA
HETATM   27 CL1  UNL     1      26.790  -1.634  52.815  1.00  0.00     0.068 Cl
ENDBRANCH   7  26
TORSDOF 1
ENDMDL
MODEL 4
REMARK VINA RESULT:      -9.4      3.313      5.929
REMARK  1 active torsions:
REMARK  status: ('A' for Active; 'I' for Inactive)
REMARK    1  A    between atoms: C6_7  and  O1_8 
ROOT
HETATM    1  F1  UNL     1      20.359  -1.401  54.579  1.00  0.00    -0.203 F 
HETATM    2  C1  UNL     1      21.476  -0.755  54.138  1.00  0.00     0.152 A 
HETATM    3  C2  UNL     1      22.750  -1.122  54.523  1.00  0.00     0.047 A 
HETATM    4  C3  UNL     1      23.882  -0.443  54.054  1.00  0.00     0.035 A 
HETATM    5  C4  UNL     1      23.648   0.630  53.173  1.00  0.00     0.071 A 
HETATM    6  C5  UNL     1      22.360   0.963  52.823  1.00  0.00     0.041 A 
HETATM    7  C6  UNL     1      21.251   0.303  53.274  1.00  0.00     0.141 A 
HETATM    8  C7  UNL     1      22.400   2.216  52.044  1.00  0.00     0.185 C 
HETATM    9  C8  UNL     1      23.603   2.327  51.204  1.00  0.00     0.043 C 
HETATM   10  C9  UNL     1      24.811   2.031  51.569  1.00  0.00     0.086 A 
HETATM   11  C10 UNL     1      25.963   2.630  50.906  1.00  0.00     0.086 A 
HETATM   12  N1  UNL     1      27.113   2.256  51.354  1.00  0.00    -0.238 NA
HETATM   13  C11 UNL     1      27.189   1.306  52.443  1.00  0.00     0.256 A 
HETATM   14  N2  UNL     1      26.163   0.757  53.051  1.00  0.00    -0.160 NA
HETATM   15  N3  UNL     1      24.879   1.101  52.635  1.00  0.00    -0.230 N 
HETATM   16  C12 UNL     1      25.764   3.572  49.820  1.00  0.00     0.034 C 
HETATM   17  C13 UNL     1      25.743   4.775  49.284  1.00  0.00     0.003 C 
HETATM   18  C14 UNL     1      25.941   6.207  49.462  1.00  0.00     0.012 C 
HETATM   19  C15 UNL     1      25.080   7.045  48.890  1.00  0.00    -0.030 C 
HETATM   20  C16 UNL     1      23.950   6.407  48.569  1.00  0.00    -0.015 C 
HETATM   21  C17 UNL     1      23.434   5.947  49.832  1.00  0.00     0.028 C 
HETATM   22  C18 UNL     1      22.213   5.080  49.837  1.00  0.00     0.006 C 
HETATM   23  C19 UNL     1      21.877   4.857  51.294  1.00  0.00     0.027 C 
HETATM   24  C20 UNL     1      20.843   3.830  51.579  1.00  0.00     0.169 C 
HETATM   25  O2  UNL     1      21.294   2.522  51.287  1.00  0.00    -0.377 OA
ENDROOT
BRANCH   7  26
HETATM   26  O1  UNL     1      20.032   0.767  52.818  1.00  0.00    -0.237 OA
HETATM   27 CL1  UNL     1      19.208  -0.159  51.623  1.00  0.00     0.068 Cl
ENDBRANCH   7  26
TORSDOF 1
ENDMDL
MODEL 5
REMARK VINA RESULT:      -9.3      3.456      6.565
REMARK  1 active torsions:
REMARK  status: ('A' for Active; 'I' for Inactive)
REMARK    1  A    between atoms: C6_7  and  O1_8 
ROOT
HETATM    1  F1  UNL     1      15.505  -0.727  52.105  1.00  0.00    -0.203 F 
HETATM    2  C1  UNL     1      16.700  -0.311  51.595  1.00  0.00     0.152 A 
HETATM    3  C2  UNL     1      16.821   0.235  50.333  1.00  0.00     0.047 A 
HETATM    4  C3  UNL     1      18.060   0.657  49.832  1.00  0.00     0.035 A 
HETATM    5  C4  UNL     1      19.169   0.493  50.684  1.00  0.00     0.071 A 
HETATM    6  C5  UNL     1      18.999  -0.062  51.933  1.00  0.00     0.041 A 
HETATM    7  C6  UNL     1      17.793  -0.473  52.428  1.00  0.00     0.141 A 
HETATM    8  C7  UNL     1      20.332  -0.275  52.530  1.00  0.00     0.185 C 
HETATM    9  C8  UNL     1      21.302   0.762  52.147  1.00  0.00     0.043 C 
HETATM   10  C9  UNL     1      21.458   1.249  50.955  1.00  0.00     0.086 A 
HETATM   11  C10 UNL     1      22.721   1.855  50.552  1.00  0.00     0.086 A 
HETATM   12  N1  UNL     1      22.756   2.307  49.345  1.00  0.00    -0.238 NA
HETATM   13  C11 UNL     1      21.590   2.189  48.496  1.00  0.00     0.256 A 
HETATM   14  N2  UNL     1      20.446   1.645  48.841  1.00  0.00    -0.160 NA
HETATM   15  N3  UNL     1      20.314   1.129  50.130  1.00  0.00    -0.230 N 
HETATM   16  C12 UNL     1      23.825   1.922  51.493  1.00  0.00     0.034 C 
HETATM   17  C13 UNL     1      24.991   1.549  51.979  1.00  0.00     0.003 C 
HETATM   18  C14 UNL     1      26.146   0.669  51.872  1.00  0.00     0.012 C 
HETATM   19  C15 UNL     1      26.661   0.155  52.986  1.00  0.00    -0.030 C 
HETATM   20  C16 UNL     1      25.778   0.232  53.987  1.00  0.00    -0.015 C 
HETATM   21  C17 UNL     1      24.666  -0.564  53.538  1.00  0.00     0.028 C 
HETATM   22  C18 UNL     1      23.427  -0.609  54.378  1.00  0.00     0.006 C 
HETATM   23  C19 UNL     1      22.504  -1.592  53.694  1.00  0.00     0.027 C 
HETATM   24  C20 UNL     1      21.108  -1.640  54.197  1.00  0.00     0.169 C 
HETATM   25  O2  UNL     1      20.389  -0.462  53.891  1.00  0.00    -0.377 OA
ENDROOT
BRANCH   7  26
HETATM   26  O1  UNL     1      17.803  -1.004  53.704  1.00  0.00    -0.237 OA
HETATM   27 CL1  UNL     1      17.716  -2.715  53.871  1.00  0.00     0.068 Cl
ENDBRANCH   7  26
TORSDOF 1
ENDMDL
MODEL 6
REMARK VINA RESULT:      -9.2      3.602      7.340
REMARK  1 active torsions:
REMARK  status: ('A' for Active; 'I' for Inactive)
REMARK    1  A    between atoms: C6_7  and  O1_8 
ROOT
HETATM    1  F1  UNL     1      18.711   1.294  50.231  1.00  0.00    -0.203 F 
HETATM    2  C1  UNL     1      19.630   0.906  51.161  1.00  0.00     0.152 A 
HETATM    3  C2  UNL     1      19.295   0.158  52.273  1.00  0.00     0.047 A 
HETATM    4  C3  UNL     1      20.259  -0.230  53.212  1.00  0.00     0.035 A 
HETATM    5  C4  UNL     1      21.581   0.183  52.962  1.00  0.00     0.071 A 
HETATM    6  C5  UNL     1      21.865   0.932  51.842  1.00  0.00     0.041 A 
HETATM    7  C6  UNL     1      20.931   1.312  50.920  1.00  0.00     0.141 A 
HETATM    8  C7  UNL     1      23.273   1.368  51.923  1.00  0.00     0.185 C 
HETATM    9  C8  UNL     1      24.144   0.373  52.566  1.00  0.00     0.043 C 
HETATM   10  C9  UNL     1      23.861  -0.301  53.638  1.00  0.00     0.086 A 
HETATM   11  C10 UNL     1      24.916  -0.851  54.479  1.00  0.00     0.086 A 
HETATM   12  N1  UNL     1      24.513  -1.504  55.515  1.00  0.00    -0.238 NA
HETATM   13  C11 UNL     1      23.095  -1.645  55.772  1.00  0.00     0.256 A 
HETATM   14  N2  UNL     1      22.131  -1.156  55.026  1.00  0.00    -0.160 NA
HETATM   15  N3  UNL     1      22.473  -0.435  53.883  1.00  0.00    -0.230 N 
HETATM   16  C12 UNL     1      26.308  -0.648  54.119  1.00  0.00     0.034 C 
HETATM   17  C13 UNL     1      27.495  -0.090  54.245  1.00  0.00     0.003 C 
HETATM   18  C14 UNL     1      28.342   0.859  54.953  1.00  0.00     0.012 C 
HETATM   19  C15 UNL     1      29.188   1.608  54.250  1.00  0.00    -0.030 C 
HETATM   20  C16 UNL     1      28.831   1.628  52.962  1.00  0.00    -0.015 C 
HETATM   21  C17 UNL     1      27.522   2.227  52.967  1.00  0.00     0.028 C 
HETATM   22  C18 UNL     1      26.761   2.306  51.679  1.00  0.00     0.006 C 
HETATM   23  C19 UNL     1      25.493   3.063  52.000  1.00  0.00     0.027 C 
HETATM   24  C20 UNL     1      24.450   3.072  50.944  1.00  0.00     0.169 C 
HETATM   25  O2  UNL     1      23.866   1.798  50.759  1.00  0.00    -0.377 OA
ENDROOT
BRANCH   7  26
HETATM   26  O1  UNL     1      21.391   2.058  49.853  1.00  0.00    -0.237 OA
HETATM   27 CL1  UNL     1      21.656   1.254  48.354  1.00  0.00     0.068 Cl
ENDBRANCH   7  26
TORSDOF 1
ENDMDL
MODEL 7
REMARK VINA RESULT:      -9.2      2.873      5.580
REMARK  1 active torsions:
REMARK  status: ('A' for Active; 'I' for Inactive)
REMARK    1  A    between atoms: C6_7  and  O1_8 
ROOT
HETATM    1  F1  UNL     1      24.847  -1.470  54.903  1.00  0.00    -0.203 F 
HETATM    2  C1  UNL     1      24.078  -0.570  54.226  1.00  0.00     0.152 A 
HETATM    3  C2  UNL     1      22.698  -0.604  54.246  1.00  0.00     0.047 A 
HETATM    4  C3  UNL     1      21.931   0.334  53.544  1.00  0.00     0.035 A 
HETATM    5  C4  UNL     1      22.643   1.309  52.819  1.00  0.00     0.071 A 
HETATM    6  C5  UNL     1      24.019   1.299  52.824  1.00  0.00     0.041 A 
HETATM    7  C6  UNL     1      24.773   0.389  53.509  1.00  0.00     0.141 A 
HETATM    8  C7  UNL     1      24.493   2.305  51.854  1.00  0.00     0.185 C 
HETATM    9  C8  UNL     1      23.616   3.484  51.780  1.00  0.00     0.043 C 
HETATM   10  C9  UNL     1      22.320   3.463  51.750  1.00  0.00     0.086 A 
HETATM   11  C10 UNL     1      21.565   4.569  51.174  1.00  0.00     0.086 A 
HETATM   12  N1  UNL     1      20.283   4.436  51.204  1.00  0.00    -0.238 NA
HETATM   13  C11 UNL     1      19.694   3.246  51.781  1.00  0.00     0.256 A 
HETATM   14  N2  UNL     1      20.358   2.242  52.303  1.00  0.00    -0.160 NA
HETATM   15  N3  UNL     1      21.750   2.297  52.315  1.00  0.00    -0.230 N 
HETATM   16  C12 UNL     1      22.266   5.716  50.625  1.00  0.00     0.034 C 
HETATM   17  C13 UNL     1      22.722   6.467  49.644  1.00  0.00     0.003 C 
HETATM   18  C14 UNL     1      22.844   6.679  48.209  1.00  0.00     0.012 C 
HETATM   19  C15 UNL     1      24.003   7.119  47.726  1.00  0.00    -0.030 C 
HETATM   20  C16 UNL     1      24.984   6.920  48.612  1.00  0.00    -0.015 C 
HETATM   21  C17 UNL     1      25.024   5.491  48.779  1.00  0.00     0.028 C 
HETATM   22  C18 UNL     1      25.949   4.911  49.804  1.00  0.00     0.006 C 
HETATM   23  C19 UNL     1      25.828   3.411  49.662  1.00  0.00     0.027 C 
HETATM   24  C20 UNL     1      26.466   2.598  50.728  1.00  0.00     0.169 C 
HETATM   25  O2  UNL     1      25.798   2.723  51.967  1.00  0.00    -0.377 OA
ENDROOT
BRANCH   7  26
HETATM   26  O1  UNL     1      26.144   0.528  53.408  1.00  0.00    -0.237 OA
HETATM   27 CL1  UNL     1      26.996  -0.551  52.372  1.00  0.00     0.068 Cl
ENDBRANCH   7  26
TORSDOF 1
ENDMDL
MODEL 8
REMARK VINA RESULT:      -9.2      3.779      5.393
REMARK  1 active torsions:
REMARK  status: ('A' for Active; 'I' for Inactive)
REMARK    1  A    between atoms: C6_7  and  O1_8 
ROOT
HETATM    1  F1  UNL     1      25.428   6.777  48.297  1.00  0.00    -0.203 F 
HETATM    2  C1  UNL     1      25.528   5.596  48.971  1.00  0.00     0.152 A 
HETATM    3  C2  UNL     1      26.696   4.861  49.018  1.00  0.00     0.047 A 
HETATM    4  C3  UNL     1      26.774   3.652  49.720  1.00  0.00     0.035 A 
HETATM    5  C4  UNL     1      25.600   3.228  50.371  1.00  0.00     0.071 A 
HETATM    6  C5  UNL     1      24.457   3.992  50.291  1.00  0.00     0.041 A 
HETATM    7  C6  UNL     1      24.375   5.174  49.611  1.00  0.00     0.141 A 
HETATM    8  C7  UNL     1      23.350   3.234  50.906  1.00  0.00     0.185 C 
HETATM    9  C8  UNL     1      23.785   2.408  52.043  1.00  0.00     0.043 C 
HETATM   10  C9  UNL     1      24.855   1.676  52.081  1.00  0.00     0.086 A 
HETATM   11  C10 UNL     1      24.950   0.534  52.981  1.00  0.00     0.086 A 
HETATM   12  N1  UNL     1      26.063  -0.115  52.933  1.00  0.00    -0.238 NA
HETATM   13  C11 UNL     1      27.107   0.309  52.025  1.00  0.00     0.256 A 
HETATM   14  N2  UNL     1      27.038   1.334  51.208  1.00  0.00    -0.160 NA
HETATM   15  N3  UNL     1      25.872   2.097  51.190  1.00  0.00    -0.230 N 
HETATM   16  C12 UNL     1      23.837   0.204  53.853  1.00  0.00     0.034 C 
HETATM   17  C13 UNL     1      22.794  -0.511  54.224  1.00  0.00     0.003 C 
HETATM   18  C14 UNL     1      21.918  -1.643  53.956  1.00  0.00     0.012 C 
HETATM   19  C15 UNL     1      20.610  -1.498  54.156  1.00  0.00    -0.030 C 
HETATM   20  C16 UNL     1      20.287  -0.202  54.201  1.00  0.00    -0.015 C 
HETATM   21  C17 UNL     1      20.650   0.299  52.901  1.00  0.00     0.028 C 
HETATM   22  C18 UNL     1      20.527   1.767  52.634  1.00  0.00     0.006 C 
HETATM   23  C19 UNL     1      20.884   1.949  51.176  1.00  0.00     0.027 C 
HETATM   24  C20 UNL     1      21.070   3.348  50.716  1.00  0.00     0.169 C 
HETATM   25  O2  UNL     1      22.228   3.941  51.269  1.00  0.00    -0.377 OA
ENDROOT
BRANCH   7  26
HETATM   26  O1  UNL     1      23.151   5.814  49.638  1.00  0.00    -0.237 OA
HETATM   27 CL1  UNL     1      22.985   7.207  50.637  1.00  0.00     0.068 Cl
ENDBRANCH   7  26
TORSDOF 1
ENDMDL
MODEL 9
REMARK VINA RESULT:      -8.9      4.124      7.352
REMARK  1 active torsions:
REMARK  status: ('A' for Active; 'I' for Inactive)
REMARK    1  A    between atoms: C6_7  and  O1_8 
ROOT
HETATM    1  F1  UNL     1      16.445  -0.085  50.787  1.00  0.00    -0.203 F 
HETATM    2  C1  UNL     1      17.601  -0.198  51.503  1.00  0.00     0.152 A 
HETATM    3  C2  UNL     1      17.668  -0.871  52.706  1.00  0.00     0.047 A 
HETATM    4  C3  UNL     1      18.868  -0.976  53.421  1.00  0.00     0.035 A 
HETATM    5  C4  UNL     1      19.996  -0.359  52.847  1.00  0.00     0.071 A 
HETATM    6  C5  UNL     1      19.878   0.306  51.648  1.00  0.00     0.041 A 
HETATM    7  C6  UNL     1      18.711   0.409  50.943  1.00  0.00     0.141 A 
HETATM    8  C7  UNL     1      21.153   0.997  51.374  1.00  0.00     0.185 C 
HETATM    9  C8  UNL     1      22.323   0.250  51.861  1.00  0.00     0.043 C 
HETATM   10  C9  UNL     1      22.417  -0.345  53.009  1.00  0.00     0.086 A 
HETATM   11  C10 UNL     1      23.717  -0.602  53.617  1.00  0.00     0.086 A 
HETATM   12  N1  UNL     1      23.683  -1.203  54.757  1.00  0.00    -0.238 NA
HETATM   13  C11 UNL     1      22.411  -1.572  55.342  1.00  0.00     0.256 A 
HETATM   14  N2  UNL     1      21.233  -1.348  54.809  1.00  0.00    -0.160 NA
HETATM   15  N3  UNL     1      21.170  -0.702  53.575  1.00  0.00    -0.230 N 
HETATM   16  C12 UNL     1      24.930  -0.189  52.934  1.00  0.00     0.034 C 
HETATM   17  C13 UNL     1      25.979   0.585  52.748  1.00  0.00     0.003 C 
HETATM   18  C14 UNL     1      26.749   1.742  53.181  1.00  0.00     0.012 C 
HETATM   19  C15 UNL     1      27.257   2.553  52.256  1.00  0.00    -0.030 C 
HETATM   20  C16 UNL     1      26.637   2.371  51.086  1.00  0.00    -0.015 C 
HETATM   21  C17 UNL     1      25.266   2.719  51.354  1.00  0.00     0.028 C 
HETATM   22  C18 UNL     1      24.248   2.521  50.275  1.00  0.00     0.006 C 
HETATM   23  C19 UNL     1      22.952   3.065  50.831  1.00  0.00     0.027 C 
HETATM   24  C20 UNL     1      21.727   2.772  50.045  1.00  0.00     0.169 C 
HETATM   25  O2  UNL     1      21.386   1.400  50.080  1.00  0.00    -0.377 OA
ENDROOT
BRANCH   7  26
HETATM   26  O1  UNL     1      18.773   1.109  49.754  1.00  0.00    -0.237 OA
HETATM   27 CL1  UNL     1      17.981   2.636  49.669  1.00  0.00     0.068 Cl
ENDBRANCH   7  26
TORSDOF 1
ENDMDL
