MODEL 1
REMARK VINA RESULT:      -7.8      0.000      0.000
REMARK  4 active torsions:
REMARK  status: ('A' for Active; 'I' for Inactive)
REMARK    1  A    between atoms: N1_1  and  C1_2 
REMARK    2  A    between atoms: N2_6  and  C5_7 
REMARK    3  A    between atoms: C9_14  and  N6_15 
REMARK    4  A    between atoms: N6_15  and  C10_16 
ROOT
HETATM    1  C5  UNL     1      22.333   1.505  52.332  1.00  0.00     0.066 A 
HETATM    2  C6  UNL     1      20.991   1.748  52.539  1.00  0.00     0.051 A 
HETATM    3  C7  UNL     1      20.599   0.926  53.599  1.00  0.00     0.121 A 
HETATM    4  N3  UNL     1      21.699   0.248  53.967  1.00  0.00    -0.238 N 
HETATM    5  N4  UNL     1      21.828  -0.656  54.931  1.00  0.00    -0.161 NA
HETATM    6  C8  UNL     1      23.015  -1.237  55.160  1.00  0.00     0.258 A 
HETATM    7  N5  UNL     1      24.053  -0.886  54.401  1.00  0.00    -0.220 NA
HETATM    8  C9  UNL     1      23.999   0.014  53.415  1.00  0.00     0.160 A 
HETATM    9  C16 UNL     1      22.760   0.568  53.233  1.00  0.00     0.130 A 
ENDROOT
BRANCH   8  10
HETATM   10  N6  UNL     1      25.071   0.446  52.602  1.00  0.00    -0.339 N 
HETATM   11  H13 UNL     1      24.927   0.626  51.615  1.00  0.00     0.167 HD
BRANCH  10  12
HETATM   12  C10 UNL     1      26.411   0.704  52.971  1.00  0.00     0.035 A 
HETATM   13  C11 UNL     1      26.931   1.949  53.229  1.00  0.00     0.029 A 
HETATM   14  C12 UNL     1      28.216   2.242  53.587  1.00  0.00     0.004 A 
HETATM   15  C13 UNL     1      29.106   1.216  53.712  1.00  0.00     0.024 A 
HETATM   16  C14 UNL     1      28.671  -0.070  53.471  1.00  0.00     0.036 A 
HETATM   17 CL1  UNL     1      29.824  -1.372  53.636  1.00  0.00    -0.084 Cl
HETATM   18  C15 UNL     1      27.349  -0.293  53.109  1.00  0.00     0.053 A 
ENDBRANCH  10  12
ENDBRANCH   8  10
BRANCH   1  19
HETATM   19  N2  UNL     1      22.903   2.214  51.247  1.00  0.00    -0.349 N 
HETATM   20  C1  UNL     1      23.826   3.308  50.952  1.00  0.00     0.319 C 
HETATM   21  C2  UNL     1      23.087   4.225  50.007  1.00  0.00     0.058 C 
HETATM   22  C3  UNL     1      21.999   3.291  49.466  1.00  0.00     0.024 C 
HETATM   23  C4  UNL     1      22.646   1.946  49.817  1.00  0.00     0.125 C 
BRANCH  20  24
HETATM   24  N1  UNL     1      24.233   4.046  52.104  1.00  0.00     0.101 N 
HETATM   25  H1  UNL     1      24.389   5.034  51.792  1.00  0.00     0.315 HD
HETATM   26  H2  UNL     1      25.098   3.659  52.561  1.00  0.00     0.315 HD
ENDBRANCH  20  24
ENDBRANCH   1  19
TORSDOF 4
ENDMDL
MODEL 2
REMARK VINA RESULT:      -7.8      2.930      6.251
REMARK  4 active torsions:
REMARK  status: ('A' for Active; 'I' for Inactive)
REMARK    1  A    between atoms: N1_1  and  C1_2 
REMARK    2  A    between atoms: N2_6  and  C5_7 
REMARK    3  A    between atoms: C9_14  and  N6_15 
REMARK    4  A    between atoms: N6_15  and  C10_16 
ROOT
HETATM    1  C5  UNL     1      25.720   2.048  51.634  1.00  0.00     0.066 A 
HETATM    2  C6  UNL     1      26.671   2.436  50.712  1.00  0.00     0.051 A 
HETATM    3  C7  UNL     1      25.992   3.157  49.725  1.00  0.00     0.121 A 
HETATM    4  N3  UNL     1      24.701   3.165  50.095  1.00  0.00    -0.238 N 
HETATM    5  N4  UNL     1      23.668   3.724  49.475  1.00  0.00    -0.161 NA
HETATM    6  C8  UNL     1      22.435   3.631  49.995  1.00  0.00     0.258 A 
HETATM    7  N5  UNL     1      22.276   2.968  51.141  1.00  0.00    -0.220 NA
HETATM    8  C9  UNL     1      23.266   2.381  51.819  1.00  0.00     0.160 A 
HETATM    9  C16 UNL     1      24.496   2.512  51.234  1.00  0.00     0.130 A 
ENDROOT
BRANCH   8  10
HETATM   10  N6  UNL     1      23.158   1.695  53.050  1.00  0.00    -0.339 N 
HETATM   11  H13 UNL     1      23.735   1.963  53.839  1.00  0.00     0.167 HD
BRANCH  10  12
HETATM   12  C10 UNL     1      22.302   0.625  53.393  1.00  0.00     0.035 A 
HETATM   13  C11 UNL     1      22.654  -0.445  54.179  1.00  0.00     0.029 A 
HETATM   14  C12 UNL     1      21.860  -1.498  54.534  1.00  0.00     0.004 A 
HETATM   15  C13 UNL     1      20.575  -1.526  54.078  1.00  0.00     0.024 A 
HETATM   16  C14 UNL     1      20.134  -0.491  53.280  1.00  0.00     0.036 A 
HETATM   17 CL1  UNL     1      18.485  -0.542  52.706  1.00  0.00    -0.084 Cl
HETATM   18  C15 UNL     1      20.998   0.547  52.959  1.00  0.00     0.053 A 
ENDBRANCH  10  12
ENDBRANCH   8  10
BRANCH   1  19
HETATM   19  N2  UNL     1      26.214   1.248  52.693  1.00  0.00    -0.349 N 
HETATM   20  C1  UNL     1      26.999   1.334  53.922  1.00  0.00     0.319 C 
HETATM   21  C2  UNL     1      28.062   0.269  53.805  1.00  0.00     0.058 C 
HETATM   22  C3  UNL     1      27.456  -0.650  52.739  1.00  0.00     0.024 C 
HETATM   23  C4  UNL     1      25.993  -0.205  52.847  1.00  0.00     0.125 C 
BRANCH  20  24
HETATM   24  N1  UNL     1      27.622   2.603  54.121  1.00  0.00     0.101 N 
HETATM   25  H1  UNL     1      26.872   3.328  54.025  1.00  0.00     0.315 HD
HETATM   26  H2  UNL     1      28.409   2.790  53.448  1.00  0.00     0.315 HD
ENDBRANCH  20  24
ENDBRANCH   1  19
TORSDOF 4
ENDMDL
MODEL 3
REMARK VINA RESULT:      -7.8      2.261      4.619
REMARK  4 active torsions:
REMARK  status: ('A' for Active; 'I' for Inactive)
REMARK    1  A    between atoms: N1_1  and  C1_2 
REMARK    2  A    between atoms: N2_6  and  C5_7 
REMARK    3  A    between atoms: C9_14  and  N6_15 
REMARK    4  A    between atoms: N6_15  and  C10_16 
ROOT
HETATM    1  C5  UNL     1      23.848   0.031  53.566  1.00  0.00     0.066 A 
HETATM    2  C6  UNL     1      23.318  -0.728  54.589  1.00  0.00     0.051 A 
HETATM    3  C7  UNL     1      21.929  -0.653  54.459  1.00  0.00     0.121 A 
HETATM    4  N3  UNL     1      21.700   0.129  53.391  1.00  0.00    -0.238 N 
HETATM    5  N4  UNL     1      20.534   0.496  52.871  1.00  0.00    -0.161 NA
HETATM    6  C8  UNL     1      20.494   1.288  51.790  1.00  0.00     0.258 A 
HETATM    7  N5  UNL     1      21.646   1.694  51.255  1.00  0.00    -0.220 NA
HETATM    8  C9  UNL     1      22.854   1.366  51.722  1.00  0.00     0.160 A 
HETATM    9  C16 UNL     1      22.824   0.558  52.826  1.00  0.00     0.130 A 
ENDROOT
BRANCH   8  10
HETATM   10  N6  UNL     1      24.103   1.741  51.177  1.00  0.00    -0.339 N 
HETATM   11  H13 UNL     1      24.818   1.043  51.006  1.00  0.00     0.167 HD
BRANCH  10  12
HETATM   12  C10 UNL     1      24.547   3.024  50.787  1.00  0.00     0.035 A 
HETATM   13  C11 UNL     1      23.929   4.206  51.115  1.00  0.00     0.029 A 
HETATM   14  C12 UNL     1      24.324   5.464  50.760  1.00  0.00     0.004 A 
HETATM   15  C13 UNL     1      25.447   5.602  49.998  1.00  0.00     0.024 A 
HETATM   16  C14 UNL     1      26.133   4.467  49.620  1.00  0.00     0.036 A 
HETATM   17 CL1  UNL     1      27.569   4.662  48.645  1.00  0.00    -0.084 Cl
HETATM   18  C15 UNL     1      25.672   3.219  50.018  1.00  0.00     0.053 A 
ENDBRANCH  10  12
ENDBRANCH   8  10
BRANCH   1  19
HETATM   19  N2  UNL     1      25.261   0.123  53.566  1.00  0.00    -0.349 N 
HETATM   20  C1  UNL     1      26.347   1.065  53.831  1.00  0.00     0.319 C 
HETATM   21  C2  UNL     1      27.237   1.018  52.613  1.00  0.00     0.058 C 
HETATM   22  C3  UNL     1      26.833  -0.324  51.993  1.00  0.00     0.024 C 
HETATM   23  C4  UNL     1      26.193  -0.972  53.226  1.00  0.00     0.125 C 
BRANCH  20  24
HETATM   24  N1  UNL     1      25.908   2.407  54.044  1.00  0.00     0.101 N 
HETATM   25  H1  UNL     1      26.732   3.028  53.862  1.00  0.00     0.315 HD
HETATM   26  H2  UNL     1      25.525   2.569  55.011  1.00  0.00     0.315 HD
ENDBRANCH  20  24
ENDBRANCH   1  19
TORSDOF 4
ENDMDL
MODEL 4
REMARK VINA RESULT:      -7.4      2.417      5.435
REMARK  4 active torsions:
REMARK  status: ('A' for Active; 'I' for Inactive)
REMARK    1  A    between atoms: N1_1  and  C1_2 
REMARK    2  A    between atoms: N2_6  and  C5_7 
REMARK    3  A    between atoms: C9_14  and  N6_15 
REMARK    4  A    between atoms: N6_15  and  C10_16 
ROOT
HETATM    1  C5  UNL     1      24.605  -0.467  54.057  1.00  0.00     0.066 A 
HETATM    2  C6  UNL     1      24.575  -1.257  55.187  1.00  0.00     0.051 A 
HETATM    3  C7  UNL     1      23.228  -1.404  55.531  1.00  0.00     0.121 A 
HETATM    4  N3  UNL     1      22.535  -0.710  54.612  1.00  0.00    -0.238 N 
HETATM    5  N4  UNL     1      21.220  -0.549  54.518  1.00  0.00    -0.161 NA
HETATM    6  C8  UNL     1      20.697   0.183  53.524  1.00  0.00     0.258 A 
HETATM    7  N5  UNL     1      21.525   0.740  52.640  1.00  0.00    -0.220 NA
HETATM    8  C9  UNL     1      22.855   0.623  52.671  1.00  0.00     0.160 A 
HETATM    9  C16 UNL     1      23.324  -0.135  53.710  1.00  0.00     0.130 A 
ENDROOT
BRANCH   8  10
HETATM   10  N6  UNL     1      23.775   1.165  51.745  1.00  0.00    -0.339 N 
HETATM   11  H13 UNL     1      24.650   0.688  51.552  1.00  0.00     0.167 HD
BRANCH  10  12
HETATM   12  C10 UNL     1      23.662   2.342  50.973  1.00  0.00     0.035 A 
HETATM   13  C11 UNL     1      23.316   2.384  49.645  1.00  0.00     0.029 A 
HETATM   14  C12 UNL     1      23.195   3.498  48.864  1.00  0.00     0.004 A 
HETATM   15  C13 UNL     1      23.437   4.716  49.427  1.00  0.00     0.024 A 
HETATM   16  C14 UNL     1      23.791   4.771  50.758  1.00  0.00     0.036 A 
HETATM   17 CL1  UNL     1      24.095   6.339  51.464  1.00  0.00    -0.084 Cl
HETATM   18  C15 UNL     1      23.895   3.596  51.492  1.00  0.00     0.053 A 
ENDBRANCH  10  12
ENDBRANCH   8  10
BRANCH   1  19
HETATM   19  N2  UNL     1      25.904  -0.157  53.585  1.00  0.00    -0.349 N 
HETATM   20  C1  UNL     1      26.959  -0.672  52.715  1.00  0.00     0.319 C 
HETATM   21  C2  UNL     1      28.221  -0.653  53.544  1.00  0.00     0.058 C 
HETATM   22  C3  UNL     1      27.847   0.348  54.644  1.00  0.00     0.024 C 
HETATM   23  C4  UNL     1      26.681   1.050  53.938  1.00  0.00     0.125 C 
BRANCH  20  24
HETATM   24  N1  UNL     1      26.723  -1.999  52.245  1.00  0.00     0.101 N 
HETATM   25  H1  UNL     1      27.490  -2.221  51.566  1.00  0.00     0.315 HD
HETATM   26  H2  UNL     1      25.780  -2.118  51.794  1.00  0.00     0.315 HD
ENDBRANCH  20  24
ENDBRANCH   1  19
TORSDOF 4
ENDMDL
MODEL 5
REMARK VINA RESULT:      -7.2      2.891      5.339
REMARK  4 active torsions:
REMARK  status: ('A' for Active; 'I' for Inactive)
REMARK    1  A    between atoms: N1_1  and  C1_2 
REMARK    2  A    between atoms: N2_6  and  C5_7 
REMARK    3  A    between atoms: C9_14  and  N6_15 
REMARK    4  A    between atoms: N6_15  and  C10_16 
ROOT
HETATM    1  C5  UNL     1      24.300   3.543  50.679  1.00  0.00     0.066 A 
HETATM    2  C6  UNL     1      25.160   4.174  49.803  1.00  0.00     0.051 A 
HETATM    3  C7  UNL     1      26.431   3.648  50.049  1.00  0.00     0.121 A 
HETATM    4  N3  UNL     1      26.274   2.750  51.036  1.00  0.00    -0.238 N 
HETATM    5  N4  UNL     1      27.197   1.991  51.616  1.00  0.00    -0.161 NA
HETATM    6  C8  UNL     1      26.857   1.141  52.595  1.00  0.00     0.258 A 
HETATM    7  N5  UNL     1      25.579   1.078  52.968  1.00  0.00    -0.220 NA
HETATM    8  C9  UNL     1      24.597   1.809  52.432  1.00  0.00     0.160 A 
HETATM    9  C16 UNL     1      25.011   2.656  51.440  1.00  0.00     0.130 A 
ENDROOT
BRANCH   8  10
HETATM   10  N6  UNL     1      23.225   1.760  52.767  1.00  0.00    -0.339 N 
HETATM   11  H13 UNL     1      22.635   2.574  52.633  1.00  0.00     0.167 HD
BRANCH  10  12
HETATM   12  C10 UNL     1      22.479   0.676  53.280  1.00  0.00     0.035 A 
HETATM   13  C11 UNL     1      22.974  -0.297  54.114  1.00  0.00     0.029 A 
HETATM   14  C12 UNL     1      22.289  -1.359  54.631  1.00  0.00     0.004 A 
HETATM   15  C13 UNL     1      20.972  -1.503  54.309  1.00  0.00     0.024 A 
HETATM   16  C14 UNL     1      20.389  -0.571  53.476  1.00  0.00     0.036 A 
HETATM   17 CL1  UNL     1      18.701  -0.769  53.075  1.00  0.00    -0.084 Cl
HETATM   18  C15 UNL     1      21.148   0.484  52.986  1.00  0.00     0.053 A 
ENDBRANCH  10  12
ENDBRANCH   8  10
BRANCH   1  19
HETATM   19  N2  UNL     1      22.958   3.991  50.618  1.00  0.00    -0.349 N 
HETATM   20  C1  UNL     1      21.984   4.791  51.357  1.00  0.00     0.319 C 
HETATM   21  C2  UNL     1      20.755   3.924  51.486  1.00  0.00     0.058 C 
HETATM   22  C3  UNL     1      20.982   2.904  50.365  1.00  0.00     0.024 C 
HETATM   23  C4  UNL     1      22.001   3.691  49.532  1.00  0.00     0.125 C 
BRANCH  20  24
HETATM   24  N1  UNL     1      22.425   5.183  52.657  1.00  0.00     0.101 N 
HETATM   25  H1  UNL     1      21.961   6.097  52.872  1.00  0.00     0.315 HD
HETATM   26  H2  UNL     1      23.471   5.269  52.731  1.00  0.00     0.315 HD
ENDBRANCH  20  24
ENDBRANCH   1  19
TORSDOF 4
ENDMDL
MODEL 6
REMARK VINA RESULT:      -7.2      1.613      2.144
REMARK  4 active torsions:
REMARK  status: ('A' for Active; 'I' for Inactive)
REMARK    1  A    between atoms: N1_1  and  C1_2 
REMARK    2  A    between atoms: N2_6  and  C5_7 
REMARK    3  A    between atoms: C9_14  and  N6_15 
REMARK    4  A    between atoms: N6_15  and  C10_16 
ROOT
HETATM    1  C5  UNL     1      20.635   1.238  52.306  1.00  0.00     0.066 A 
HETATM    2  C6  UNL     1      19.321   0.878  52.092  1.00  0.00     0.051 A 
HETATM    3  C7  UNL     1      19.114  -0.307  52.804  1.00  0.00     0.121 A 
HETATM    4  N3  UNL     1      20.287  -0.591  53.394  1.00  0.00    -0.238 N 
HETATM    5  N4  UNL     1      20.589  -1.622  54.176  1.00  0.00    -0.161 NA
HETATM    6  C8  UNL     1      21.824  -1.747  54.684  1.00  0.00     0.258 A 
HETATM    7  N5  UNL     1      22.732  -0.818  54.387  1.00  0.00    -0.220 NA
HETATM    8  C9  UNL     1      22.502   0.243  53.608  1.00  0.00     0.160 A 
HETATM    9  C16 UNL     1      21.224   0.311  53.122  1.00  0.00     0.130 A 
ENDROOT
BRANCH   8  10
HETATM   10  N6  UNL     1      23.416   1.272  53.287  1.00  0.00    -0.339 N 
HETATM   11  H13 UNL     1      23.103   2.234  53.220  1.00  0.00     0.167 HD
BRANCH  10  12
HETATM   12  C10 UNL     1      24.803   1.175  53.039  1.00  0.00     0.035 A 
HETATM   13  C11 UNL     1      25.413   1.468  51.844  1.00  0.00     0.029 A 
HETATM   14  C12 UNL     1      26.747   1.388  51.563  1.00  0.00     0.004 A 
HETATM   15  C13 UNL     1      27.595   0.978  52.548  1.00  0.00     0.024 A 
HETATM   16  C14 UNL     1      27.071   0.662  53.784  1.00  0.00     0.036 A 
HETATM   17 CL1  UNL     1      28.172   0.138  55.034  1.00  0.00    -0.084 Cl
HETATM   18  C15 UNL     1      25.703   0.765  53.997  1.00  0.00     0.053 A 
ENDBRANCH  10  12
ENDBRANCH   8  10
BRANCH   1  19
HETATM   19  N2  UNL     1      21.053   2.399  51.611  1.00  0.00    -0.349 N 
HETATM   20  C1  UNL     1      21.803   2.818  50.428  1.00  0.00     0.319 C 
HETATM   21  C2  UNL     1      22.811   3.829  50.919  1.00  0.00     0.058 C 
HETATM   22  C3  UNL     1      22.191   4.254  52.254  1.00  0.00     0.024 C 
HETATM   23  C4  UNL     1      20.750   3.791  52.004  1.00  0.00     0.125 C 
BRANCH  20  24
HETATM   24  N1  UNL     1      22.486   1.750  49.770  1.00  0.00     0.101 N 
HETATM   25  H1  UNL     1      22.227   1.804  48.756  1.00  0.00     0.315 HD
HETATM   26  H2  UNL     1      22.253   0.803  50.165  1.00  0.00     0.315 HD
ENDBRANCH  20  24
ENDBRANCH   1  19
TORSDOF 4
ENDMDL
MODEL 7
REMARK VINA RESULT:      -7.1      3.273      5.819
REMARK  4 active torsions:
REMARK  status: ('A' for Active; 'I' for Inactive)
REMARK    1  A    between atoms: N1_1  and  C1_2 
REMARK    2  A    between atoms: N2_6  and  C5_7 
REMARK    3  A    between atoms: C9_14  and  N6_15 
REMARK    4  A    between atoms: N6_15  and  C10_16 
ROOT
HETATM    1  C5  UNL     1      24.397   6.136  49.972  1.00  0.00     0.066 A 
HETATM    2  C6  UNL     1      24.407   7.474  49.632  1.00  0.00     0.051 A 
HETATM    3  C7  UNL     1      25.628   7.709  48.993  1.00  0.00     0.121 A 
HETATM    4  N3  UNL     1      26.272   6.531  48.982  1.00  0.00    -0.238 N 
HETATM    5  N4  UNL     1      27.472   6.250  48.485  1.00  0.00    -0.161 NA
HETATM    6  C8  UNL     1      27.962   5.004  48.563  1.00  0.00     0.258 A 
HETATM    7  N5  UNL     1      27.221   4.063  49.147  1.00  0.00    -0.220 NA
HETATM    8  C9  UNL     1      26.008   4.271  49.669  1.00  0.00     0.160 A 
HETATM    9  C16 UNL     1      25.567   5.562  49.558  1.00  0.00     0.130 A 
ENDROOT
BRANCH   8  10
HETATM   10  N6  UNL     1      25.168   3.306  50.270  1.00  0.00    -0.339 N 
HETATM   11  H13 UNL     1      24.183   3.265  50.033  1.00  0.00     0.167 HD
BRANCH  10  12
HETATM   12  C10 UNL     1      25.504   2.303  51.207  1.00  0.00     0.035 A 
HETATM   13  C11 UNL     1      26.777   2.016  51.632  1.00  0.00     0.029 A 
HETATM   14  C12 UNL     1      27.145   1.058  52.533  1.00  0.00     0.004 A 
HETATM   15  C13 UNL     1      26.171   0.283  53.091  1.00  0.00     0.024 A 
HETATM   16  C14 UNL     1      24.860   0.501  52.722  1.00  0.00     0.036 A 
HETATM   17 CL1  UNL     1      23.626  -0.500  53.447  1.00  0.00    -0.084 Cl
HETATM   18  C15 UNL     1      24.561   1.493  51.798  1.00  0.00     0.053 A 
ENDBRANCH  10  12
ENDBRANCH   8  10
BRANCH   1  19
HETATM   19  N2  UNL     1      23.249   5.716  50.688  1.00  0.00    -0.349 N 
HETATM   20  C1  UNL     1      22.807   5.359  52.034  1.00  0.00     0.319 C 
HETATM   21  C2  UNL     1      22.121   4.022  51.900  1.00  0.00     0.058 C 
HETATM   22  C3  UNL     1      21.800   3.993  50.401  1.00  0.00     0.024 C 
HETATM   23  C4  UNL     1      21.908   5.494  50.107  1.00  0.00     0.125 C 
BRANCH  20  24
HETATM   24  N1  UNL     1      23.870   5.252  52.981  1.00  0.00     0.101 N 
HETATM   25  H1  UNL     1      23.627   4.458  53.621  1.00  0.00     0.315 HD
HETATM   26  H2  UNL     1      24.029   6.136  53.528  1.00  0.00     0.315 HD
ENDBRANCH  20  24
ENDBRANCH   1  19
TORSDOF 4
ENDMDL
MODEL 8
REMARK VINA RESULT:      -7.1      2.919      5.558
REMARK  4 active torsions:
REMARK  status: ('A' for Active; 'I' for Inactive)
REMARK    1  A    between atoms: N1_1  and  C1_2 
REMARK    2  A    between atoms: N2_6  and  C5_7 
REMARK    3  A    between atoms: C9_14  and  N6_15 
REMARK    4  A    between atoms: N6_15  and  C10_16 
ROOT
HETATM    1  C5  UNL     1      25.603   2.122  52.003  1.00  0.00     0.066 A 
HETATM    2  C6  UNL     1      26.979   2.205  51.943  1.00  0.00     0.051 A 
HETATM    3  C7  UNL     1      27.473   1.188  52.766  1.00  0.00     0.121 A 
HETATM    4  N3  UNL     1      26.394   0.563  53.266  1.00  0.00    -0.238 N 
HETATM    5  N4  UNL     1      26.352  -0.469  54.102  1.00  0.00    -0.161 NA
HETATM    6  C8  UNL     1      25.173  -0.970  54.500  1.00  0.00     0.258 A 
HETATM    7  N5  UNL     1      24.055  -0.410  54.038  1.00  0.00    -0.220 NA
HETATM    8  C9  UNL     1      24.019   0.628  53.197  1.00  0.00     0.160 A 
HETATM    9  C16 UNL     1      25.254   1.091  52.832  1.00  0.00     0.130 A 
ENDROOT
BRANCH   8  10
HETATM   10  N6  UNL     1      22.867   1.238  52.654  1.00  0.00    -0.339 N 
HETATM   11  H13 UNL     1      22.923   2.162  52.239  1.00  0.00     0.167 HD
BRANCH  10  12
HETATM   12  C10 UNL     1      21.552   0.728  52.572  1.00  0.00     0.035 A 
HETATM   13  C11 UNL     1      20.930  -0.009  53.550  1.00  0.00     0.029 A 
HETATM   14  C12 UNL     1      19.665  -0.520  53.511  1.00  0.00     0.004 A 
HETATM   15  C13 UNL     1      18.906  -0.296  52.400  1.00  0.00     0.024 A 
HETATM   16  C14 UNL     1      19.450   0.436  51.365  1.00  0.00     0.036 A 
HETATM   17 CL1  UNL     1      18.465   0.715  49.950  1.00  0.00    -0.084 Cl
HETATM   18  C15 UNL     1      20.745   0.925  51.474  1.00  0.00     0.053 A 
ENDBRANCH  10  12
ENDBRANCH   8  10
BRANCH   1  19
HETATM   19  N2  UNL     1      24.917   3.119  51.268  1.00  0.00    -0.349 N 
HETATM   20  C1  UNL     1      24.120   4.331  51.450  1.00  0.00     0.319 C 
HETATM   21  C2  UNL     1      22.868   4.124  50.634  1.00  0.00     0.058 C 
HETATM   22  C3  UNL     1      23.313   3.022  49.666  1.00  0.00     0.024 C 
HETATM   23  C4  UNL     1      24.831   3.194  49.795  1.00  0.00     0.125 C 
BRANCH  20  24
HETATM   24  N1  UNL     1      23.762   4.587  52.808  1.00  0.00     0.101 N 
HETATM   25  H1  UNL     1      23.971   5.598  52.991  1.00  0.00     0.315 HD
HETATM   26  H2  UNL     1      24.269   3.972  53.494  1.00  0.00     0.315 HD
ENDBRANCH  20  24
ENDBRANCH   1  19
TORSDOF 4
ENDMDL
MODEL 9
REMARK VINA RESULT:      -7.1      1.837      2.583
REMARK  4 active torsions:
REMARK  status: ('A' for Active; 'I' for Inactive)
REMARK    1  A    between atoms: N1_1  and  C1_2 
REMARK    2  A    between atoms: N2_6  and  C5_7 
REMARK    3  A    between atoms: C9_14  and  N6_15 
REMARK    4  A    between atoms: N6_15  and  C10_16 
ROOT
HETATM    1  C5  UNL     1      21.965   3.293  51.453  1.00  0.00     0.066 A 
HETATM    2  C6  UNL     1      20.828   4.072  51.409  1.00  0.00     0.051 A 
HETATM    3  C7  UNL     1      19.785   3.276  51.892  1.00  0.00     0.121 A 
HETATM    4  N3  UNL     1      20.336   2.089  52.194  1.00  0.00    -0.238 N 
HETATM    5  N4  UNL     1      19.745   1.005  52.684  1.00  0.00    -0.161 NA
HETATM    6  C8  UNL     1      20.458  -0.104  52.927  1.00  0.00     0.258 A 
HETATM    7  N5  UNL     1      21.766  -0.090  52.666  1.00  0.00    -0.220 NA
HETATM    8  C9  UNL     1      22.427   0.961  52.172  1.00  0.00     0.160 A 
HETATM    9  C16 UNL     1      21.641   2.058  51.946  1.00  0.00     0.130 A 
ENDROOT
BRANCH   8  10
HETATM   10  N6  UNL     1      23.813   1.040  51.907  1.00  0.00    -0.339 N 
HETATM   11  H13 UNL     1      24.145   1.263  50.974  1.00  0.00     0.167 HD
BRANCH  10  12
HETATM   12  C10 UNL     1      24.895   0.863  52.798  1.00  0.00     0.035 A 
HETATM   13  C11 UNL     1      24.961  -0.099  53.776  1.00  0.00     0.029 A 
HETATM   14  C12 UNL     1      25.985  -0.304  54.656  1.00  0.00     0.004 A 
HETATM   15  C13 UNL     1      27.075   0.513  54.587  1.00  0.00     0.024 A 
HETATM   16  C14 UNL     1      27.096   1.508  53.633  1.00  0.00     0.036 A 
HETATM   17 CL1  UNL     1      28.500   2.544  53.559  1.00  0.00    -0.084 Cl
HETATM   18  C15 UNL     1      26.017   1.659  52.772  1.00  0.00     0.053 A 
ENDBRANCH  10  12
ENDBRANCH   8  10
BRANCH   1  19
HETATM   19  N2  UNL     1      23.130   3.916  50.943  1.00  0.00    -0.349 N 
HETATM   20  C1  UNL     1      24.173   4.871  51.313  1.00  0.00     0.319 C 
HETATM   21  C2  UNL     1      24.218   5.883  50.194  1.00  0.00     0.058 C 
HETATM   22  C3  UNL     1      23.538   5.111  49.058  1.00  0.00     0.024 C 
HETATM   23  C4  UNL     1      23.710   3.688  49.604  1.00  0.00     0.125 C 
BRANCH  20  24
HETATM   24  N1  UNL     1      23.927   5.544  52.549  1.00  0.00     0.101 N 
HETATM   25  H1  UNL     1      22.894   5.502  52.716  1.00  0.00     0.315 HD
HETATM   26  H2  UNL     1      24.265   6.540  52.553  1.00  0.00     0.315 HD
ENDBRANCH  20  24
ENDBRANCH   1  19
TORSDOF 4
ENDMDL
