MODEL 1
REMARK VINA RESULT:      -8.3      0.000      0.000
REMARK  4 active torsions:
REMARK  status: ('A' for Active; 'I' for Inactive)
REMARK    1  A    between atoms: C3_4  and  C4_5 
REMARK    2  A    between atoms: C5_6  and  C6_7 
REMARK    3  A    between atoms: C5_6  and  N1_9 
REMARK    4  A    between atoms: N1_9  and  C7_10 
ROOT
HETATM    1  C7  UNL     1      23.775   3.301  51.946  1.00  0.00     0.160 A 
HETATM    2  N2  UNL     1      22.657   3.007  51.300  1.00  0.00    -0.222 NA
HETATM    3  C8  UNL     1      22.171   1.753  51.246  1.00  0.00     0.238 A 
HETATM    4  N3  UNL     1      22.821   0.736  51.861  1.00  0.00    -0.215 NA
HETATM    5  C9  UNL     1      23.977   0.973  52.542  1.00  0.00     0.202 A 
HETATM    6  C10 UNL     1      24.439   2.252  52.577  1.00  0.00     0.129 A 
HETATM    7  N4  UNL     1      25.606   2.741  53.223  1.00  0.00    -0.379 N 
HETATM    8  C11 UNL     1      26.807   2.117  53.671  1.00  0.00     0.161 C 
HETATM    9  C12 UNL     1      26.889   0.661  53.399  1.00  0.00    -0.004 A 
HETATM   10  C13 UNL     1      28.231   0.297  53.395  1.00  0.00     0.054 A 
HETATM   11  C14 UNL     1      28.606  -1.012  53.166  1.00  0.00     0.117 A 
HETATM   12  F2  UNL     1      29.914  -1.371  53.162  1.00  0.00    -0.206 F 
HETATM   13  C15 UNL     1      27.693  -2.017  52.933  1.00  0.00     0.045 A 
HETATM   14  C16 UNL     1      26.357  -1.663  52.937  1.00  0.00     0.041 A 
HETATM   15  C17 UNL     1      25.949  -0.343  53.165  1.00  0.00     0.086 A 
HETATM   16  O1  UNL     1      24.570  -0.135  53.139  1.00  0.00    -0.289 OA
HETATM   17  H10 UNL     1      25.629   3.782  53.439  1.00  0.00     0.160 HD
ENDROOT
BRANCH   1  18
HETATM   18  N1  UNL     1      24.258   4.642  51.989  1.00  0.00    -0.341 N 
HETATM   19  H8  UNL     1      24.852   5.255  52.590  1.00  0.00     0.167 HD
BRANCH  18  20
HETATM   20  C5  UNL     1      23.778   5.357  50.846  1.00  0.00     0.024 C 
HETATM   21  C4  UNL     1      24.354   5.381  49.634  1.00  0.00     0.029 C 
BRANCH  21  22
HETATM   22  C3  UNL     1      25.575   4.611  49.562  1.00  0.00     0.039 C 
HETATM   23  C2  UNL     1      26.694   5.052  48.962  1.00  0.00     0.090 C 
HETATM   24  C1  UNL     1      26.320   6.419  48.453  1.00  0.00     0.082 C 
HETATM   25  F1  UNL     1      27.864   4.435  48.839  1.00  0.00    -0.211 F 
ENDBRANCH  21  22
BRANCH  20  26
HETATM   26  C6  UNL     1      22.520   6.072  51.163  1.00  0.00     0.171 C 
HETATM   27 CL1  UNL     1      22.588   7.727  50.500  1.00  0.00    -0.124 Cl
ENDBRANCH  20  26
ENDBRANCH  18  20
ENDBRANCH   1  18
TORSDOF 4
ENDMDL
MODEL 2
REMARK VINA RESULT:      -8.2      2.024      2.559
REMARK  4 active torsions:
REMARK  status: ('A' for Active; 'I' for Inactive)
REMARK    1  A    between atoms: C3_4  and  C4_5 
REMARK    2  A    between atoms: C5_6  and  C6_7 
REMARK    3  A    between atoms: C5_6  and  N1_9 
REMARK    4  A    between atoms: N1_9  and  C7_10 
ROOT
HETATM    1  C7  UNL     1      23.786   3.212  51.947  1.00  0.00     0.160 A 
HETATM    2  N2  UNL     1      22.680   2.874  51.302  1.00  0.00    -0.222 NA
HETATM    3  C8  UNL     1      22.238   1.604  51.256  1.00  0.00     0.238 A 
HETATM    4  N3  UNL     1      22.923   0.615  51.878  1.00  0.00    -0.215 NA
HETATM    5  C9  UNL     1      24.068   0.897  52.559  1.00  0.00     0.202 A 
HETATM    6  C10 UNL     1      24.486   2.191  52.586  1.00  0.00     0.129 A 
HETATM    7  N4  UNL     1      25.633   2.725  53.230  1.00  0.00    -0.379 N 
HETATM    8  C11 UNL     1      26.855   2.147  53.684  1.00  0.00     0.161 C 
HETATM    9  C12 UNL     1      26.988   0.692  53.422  1.00  0.00    -0.004 A 
HETATM   10  C13 UNL     1      28.342   0.376  53.423  1.00  0.00     0.054 A 
HETATM   11  C14 UNL     1      28.763  -0.921  53.203  1.00  0.00     0.117 A 
HETATM   12  F2  UNL     1      30.083  -1.233  53.203  1.00  0.00    -0.206 F 
HETATM   13  C15 UNL     1      27.886  -1.958  52.976  1.00  0.00     0.045 A 
HETATM   14  C16 UNL     1      26.538  -1.652  52.975  1.00  0.00     0.041 A 
HETATM   15  C17 UNL     1      26.084  -0.345  53.194  1.00  0.00     0.086 A 
HETATM   16  O1  UNL     1      24.698  -0.186  53.165  1.00  0.00    -0.289 OA
HETATM   17  H10 UNL     1      25.619   3.768  53.439  1.00  0.00     0.160 HD
ENDROOT
BRANCH   1  18
HETATM   18  N1  UNL     1      24.221   4.569  51.981  1.00  0.00    -0.341 N 
HETATM   19  H8  UNL     1      24.402   5.330  52.673  1.00  0.00     0.167 HD
BRANCH  18  20
HETATM   20  C5  UNL     1      24.499   5.013  50.649  1.00  0.00     0.024 C 
HETATM   21  C4  UNL     1      23.784   5.910  49.954  1.00  0.00     0.029 C 
BRANCH  21  22
HETATM   22  C3  UNL     1      22.633   6.411  50.671  1.00  0.00     0.039 C 
HETATM   23  C2  UNL     1      22.023   7.571  50.374  1.00  0.00     0.090 C 
HETATM   24  C1  UNL     1      22.816   8.114  49.216  1.00  0.00     0.082 C 
HETATM   25  F1  UNL     1      20.965   8.122  50.961  1.00  0.00    -0.211 F 
ENDBRANCH  21  22
BRANCH  20  26
HETATM   26  C6  UNL     1      25.720   4.360  50.122  1.00  0.00     0.171 C 
HETATM   27 CL1  UNL     1      26.469   5.401  48.882  1.00  0.00    -0.124 Cl
ENDBRANCH  20  26
ENDBRANCH  18  20
ENDBRANCH   1  18
TORSDOF 4
ENDMDL
MODEL 3
REMARK VINA RESULT:      -8.0      3.182      5.147
REMARK  4 active torsions:
REMARK  status: ('A' for Active; 'I' for Inactive)
REMARK    1  A    between atoms: C3_4  and  C4_5 
REMARK    2  A    between atoms: C5_6  and  C6_7 
REMARK    3  A    between atoms: C5_6  and  N1_9 
REMARK    4  A    between atoms: N1_9  and  C7_10 
ROOT
HETATM    1  C7  UNL     1      24.352   2.584  51.010  1.00  0.00     0.160 A 
HETATM    2  N2  UNL     1      25.237   2.832  51.964  1.00  0.00    -0.222 NA
HETATM    3  C8  UNL     1      25.248   2.151  53.125  1.00  0.00     0.238 A 
HETATM    4  N3  UNL     1      24.339   1.173  53.356  1.00  0.00    -0.215 NA
HETATM    5  C9  UNL     1      23.403   0.869  52.415  1.00  0.00     0.202 A 
HETATM    6  C10 UNL     1      23.421   1.577  51.254  1.00  0.00     0.129 A 
HETATM    7  N4  UNL     1      22.559   1.437  50.133  1.00  0.00    -0.379 N 
HETATM    8  C11 UNL     1      21.259   0.875  49.966  1.00  0.00     0.161 C 
HETATM    9  C12 UNL     1      20.651   0.338  51.208  1.00  0.00    -0.004 A 
HETATM   10  C13 UNL     1      19.271   0.310  51.036  1.00  0.00     0.054 A 
HETATM   11  C14 UNL     1      18.444  -0.150  52.042  1.00  0.00     0.117 A 
HETATM   12  F2  UNL     1      17.099  -0.179  51.877  1.00  0.00    -0.206 F 
HETATM   13  C15 UNL     1      18.926  -0.600  53.251  1.00  0.00     0.045 A 
HETATM   14  C16 UNL     1      20.296  -0.577  53.429  1.00  0.00     0.041 A 
HETATM   15  C17 UNL     1      21.157  -0.115  52.426  1.00  0.00     0.086 A 
HETATM   16  O1  UNL     1      22.515  -0.149  52.747  1.00  0.00    -0.289 OA
HETATM   17  H10 UNL     1      22.920   1.813  49.206  1.00  0.00     0.160 HD
ENDROOT
BRANCH   1  18
HETATM   18  N1  UNL     1      24.374   3.320  49.789  1.00  0.00    -0.341 N 
HETATM   19  H8  UNL     1      24.304   3.158  48.760  1.00  0.00     0.167 HD
BRANCH  18  20
HETATM   20  C5  UNL     1      24.535   4.713  50.077  1.00  0.00     0.024 C 
HETATM   21  C4  UNL     1      25.635   5.442  49.842  1.00  0.00     0.029 C 
BRANCH  21  22
HETATM   22  C3  UNL     1      26.720   4.680  49.266  1.00  0.00     0.039 C 
HETATM   23  C2  UNL     1      27.717   5.232  48.553  1.00  0.00     0.090 C 
HETATM   24  C1  UNL     1      27.386   6.700  48.541  1.00  0.00     0.082 C 
HETATM   25  F1  UNL     1      28.757   4.631  47.985  1.00  0.00    -0.211 F 
ENDBRANCH  21  22
BRANCH  20  26
HETATM   26  C6  UNL     1      23.296   5.274  50.665  1.00  0.00     0.171 C 
HETATM   27 CL1  UNL     1      23.409   7.054  50.714  1.00  0.00    -0.124 Cl
ENDBRANCH  20  26
ENDBRANCH  18  20
ENDBRANCH   1  18
TORSDOF 4
ENDMDL
MODEL 4
REMARK VINA RESULT:      -7.9      3.881      5.874
REMARK  4 active torsions:
REMARK  status: ('A' for Active; 'I' for Inactive)
REMARK    1  A    between atoms: C3_4  and  C4_5 
REMARK    2  A    between atoms: C5_6  and  C6_7 
REMARK    3  A    between atoms: C5_6  and  N1_9 
REMARK    4  A    between atoms: N1_9  and  C7_10 
ROOT
HETATM    1  C7  UNL     1      22.983   1.025  52.515  1.00  0.00     0.160 A 
HETATM    2  N2  UNL     1      22.401   2.205  52.665  1.00  0.00    -0.222 NA
HETATM    3  C8  UNL     1      23.101   3.355  52.653  1.00  0.00     0.238 A 
HETATM    4  N3  UNL     1      24.444   3.340  52.482  1.00  0.00    -0.215 NA
HETATM    5  C9  UNL     1      25.103   2.159  52.322  1.00  0.00     0.202 A 
HETATM    6  C10 UNL     1      24.365   1.016  52.340  1.00  0.00     0.129 A 
HETATM    7  N4  UNL     1      24.821  -0.320  52.187  1.00  0.00    -0.379 N 
HETATM    8  C11 UNL     1      26.094  -0.941  52.353  1.00  0.00     0.161 C 
HETATM    9  C12 UNL     1      27.177  -0.029  52.796  1.00  0.00    -0.004 A 
HETATM   10  C13 UNL     1      28.168  -0.796  53.398  1.00  0.00     0.054 A 
HETATM   11  C14 UNL     1      29.306  -0.203  53.908  1.00  0.00     0.117 A 
HETATM   12  F2  UNL     1      30.275  -0.949  54.496  1.00  0.00    -0.206 F 
HETATM   13  C15 UNL     1      29.525   1.155  53.851  1.00  0.00     0.045 A 
HETATM   14  C16 UNL     1      28.545   1.924  53.252  1.00  0.00     0.041 A 
HETATM   15  C17 UNL     1      27.381   1.349  52.728  1.00  0.00     0.086 A 
HETATM   16  O1  UNL     1      26.481   2.248  52.154  1.00  0.00    -0.289 OA
HETATM   17  H10 UNL     1      24.098  -1.038  51.885  1.00  0.00     0.160 HD
ENDROOT
BRANCH   1  18
HETATM   18  N1  UNL     1      22.210  -0.173  52.527  1.00  0.00    -0.341 N 
HETATM   19  H8  UNL     1      22.107  -1.060  51.984  1.00  0.00     0.167 HD
BRANCH  18  20
HETATM   20  C5  UNL     1      21.302  -0.142  53.632  1.00  0.00     0.024 C 
HETATM   21  C4  UNL     1      19.967  -0.039  53.551  1.00  0.00     0.029 C 
BRANCH  21  22
HETATM   22  C3  UNL     1      19.479   0.069  52.194  1.00  0.00     0.039 C 
HETATM   23  C2  UNL     1      18.318  -0.468  51.780  1.00  0.00     0.090 C 
HETATM   24  C1  UNL     1      17.765  -1.134  53.011  1.00  0.00     0.082 C 
HETATM   25  F1  UNL     1      17.776  -0.428  50.567  1.00  0.00    -0.211 F 
ENDBRANCH  21  22
BRANCH  20  26
HETATM   26  C6  UNL     1      22.032  -0.262  54.915  1.00  0.00     0.171 C 
HETATM   27 CL1  UNL     1      22.523  -1.958  55.169  1.00  0.00    -0.124 Cl
ENDBRANCH  20  26
ENDBRANCH  18  20
ENDBRANCH   1  18
TORSDOF 4
ENDMDL
MODEL 5
REMARK VINA RESULT:      -7.9      3.472      7.002
REMARK  4 active torsions:
REMARK  status: ('A' for Active; 'I' for Inactive)
REMARK    1  A    between atoms: C3_4  and  C4_5 
REMARK    2  A    between atoms: C5_6  and  C6_7 
REMARK    3  A    between atoms: C5_6  and  N1_9 
REMARK    4  A    between atoms: N1_9  and  C7_10 
ROOT
HETATM    1  C7  UNL     1      24.457   2.869  51.791  1.00  0.00     0.160 A 
HETATM    2  N2  UNL     1      23.630   3.344  52.711  1.00  0.00    -0.222 NA
HETATM    3  C8  UNL     1      23.211   4.624  52.704  1.00  0.00     0.238 A 
HETATM    4  N3  UNL     1      23.630   5.478  51.740  1.00  0.00    -0.215 NA
HETATM    5  C9  UNL     1      24.480   5.051  50.765  1.00  0.00     0.202 A 
HETATM    6  C10 UNL     1      24.883   3.753  50.803  1.00  0.00     0.129 A 
HETATM    7  N4  UNL     1      25.751   3.082  49.901  1.00  0.00    -0.379 N 
HETATM    8  C11 UNL     1      26.738   3.536  48.977  1.00  0.00     0.161 C 
HETATM    9  C12 UNL     1      26.931   5.006  48.947  1.00  0.00    -0.004 A 
HETATM   10  C13 UNL     1      28.199   5.265  48.440  1.00  0.00     0.054 A 
HETATM   11  C14 UNL     1      28.651   6.563  48.299  1.00  0.00     0.117 A 
HETATM   12  F2  UNL     1      29.888   6.819  47.805  1.00  0.00    -0.206 F 
HETATM   13  C15 UNL     1      27.887   7.656  48.644  1.00  0.00     0.045 A 
HETATM   14  C16 UNL     1      26.625   7.407  49.147  1.00  0.00     0.041 A 
HETATM   15  C17 UNL     1      26.143   6.101  49.301  1.00  0.00     0.086 A 
HETATM   16  O1  UNL     1      24.852   6.003  49.821  1.00  0.00    -0.289 OA
HETATM   17  H10 UNL     1      25.682   2.021  49.874  1.00  0.00     0.160 HD
ENDROOT
BRANCH   1  18
HETATM   18  N1  UNL     1      24.874   1.506  51.825  1.00  0.00    -0.341 N 
HETATM   19  H8  UNL     1      24.998   0.695  51.179  1.00  0.00     0.167 HD
BRANCH  18  20
HETATM   20  C5  UNL     1      25.240   1.154  53.163  1.00  0.00     0.024 C 
HETATM   21  C4  UNL     1      24.588   0.290  53.956  1.00  0.00     0.029 C 
BRANCH  21  22
HETATM   22  C3  UNL     1      23.408  -0.277  53.342  1.00  0.00     0.039 C 
HETATM   23  C2  UNL     1      22.561  -1.100  53.985  1.00  0.00     0.090 C 
HETATM   24  C1  UNL     1      23.156  -1.230  55.362  1.00  0.00     0.082 C 
HETATM   25  F1  UNL     1      21.455  -1.672  53.522  1.00  0.00    -0.211 F 
ENDBRANCH  21  22
BRANCH  20  26
HETATM   26  C6  UNL     1      26.474   1.863  53.574  1.00  0.00     0.171 C 
HETATM   27 CL1  UNL     1      27.582   0.719  54.378  1.00  0.00    -0.124 Cl
ENDBRANCH  20  26
ENDBRANCH  18  20
ENDBRANCH   1  18
TORSDOF 4
ENDMDL
MODEL 6
REMARK VINA RESULT:      -7.9      3.750      5.551
REMARK  4 active torsions:
REMARK  status: ('A' for Active; 'I' for Inactive)
REMARK    1  A    between atoms: C3_4  and  C4_5 
REMARK    2  A    between atoms: C5_6  and  C6_7 
REMARK    3  A    between atoms: C5_6  and  N1_9 
REMARK    4  A    between atoms: N1_9  and  C7_10 
ROOT
HETATM    1  C7  UNL     1      25.534   1.415  53.682  1.00  0.00     0.160 A 
HETATM    2  N2  UNL     1      26.285   1.008  54.694  1.00  0.00    -0.222 NA
HETATM    3  C8  UNL     1      26.024  -0.128  55.367  1.00  0.00     0.238 A 
HETATM    4  N3  UNL     1      24.967  -0.903  55.024  1.00  0.00    -0.215 NA
HETATM    5  C9  UNL     1      24.156  -0.540  53.993  1.00  0.00     0.202 A 
HETATM    6  C10 UNL     1      24.449   0.614  53.334  1.00  0.00     0.129 A 
HETATM    7  N4  UNL     1      23.761   1.189  52.232  1.00  0.00    -0.379 N 
HETATM    8  C11 UNL     1      22.439   1.036  51.720  1.00  0.00     0.161 C 
HETATM    9  C12 UNL     1      21.578   0.106  52.492  1.00  0.00    -0.004 A 
HETATM   10  C13 UNL     1      20.251   0.430  52.232  1.00  0.00     0.054 A 
HETATM   11  C14 UNL     1      19.224  -0.280  52.822  1.00  0.00     0.117 A 
HETATM   12  F2  UNL     1      17.928   0.033  52.570  1.00  0.00    -0.206 F 
HETATM   13  C15 UNL     1      19.447  -1.332  53.683  1.00  0.00     0.045 A 
HETATM   14  C16 UNL     1      20.763  -1.661  53.945  1.00  0.00     0.041 A 
HETATM   15  C17 UNL     1      21.824  -0.956  53.361  1.00  0.00     0.086 A 
HETATM   16  O1  UNL     1      23.098  -1.400  53.718  1.00  0.00    -0.289 OA
HETATM   17  H10 UNL     1      24.308   1.880  51.638  1.00  0.00     0.160 HD
ENDROOT
BRANCH   1  18
HETATM   18  N1  UNL     1      25.844   2.620  52.986  1.00  0.00    -0.341 N 
HETATM   19  H8  UNL     1      25.568   3.628  52.977  1.00  0.00     0.167 HD
BRANCH  18  20
HETATM   20  C5  UNL     1      26.852   2.358  52.006  1.00  0.00     0.024 C 
HETATM   21  C4  UNL     1      26.830   2.762  50.726  1.00  0.00     0.029 C 
BRANCH  21  22
HETATM   22  C3  UNL     1      25.638   3.502  50.377  1.00  0.00     0.039 C 
HETATM   23  C2  UNL     1      25.618   4.482  49.457  1.00  0.00     0.090 C 
HETATM   24  C1  UNL     1      27.042   4.556  48.974  1.00  0.00     0.082 C 
HETATM   25  F1  UNL     1      24.588   5.220  49.059  1.00  0.00    -0.211 F 
ENDBRANCH  21  22
BRANCH  20  26
HETATM   26  C6  UNL     1      27.968   1.582  52.594  1.00  0.00     0.171 C 
HETATM   27 CL1  UNL     1      28.955   2.644  53.633  1.00  0.00    -0.124 Cl
ENDBRANCH  20  26
ENDBRANCH  18  20
ENDBRANCH   1  18
TORSDOF 4
ENDMDL
MODEL 7
REMARK VINA RESULT:      -7.8      3.610      6.778
REMARK  4 active torsions:
REMARK  status: ('A' for Active; 'I' for Inactive)
REMARK    1  A    between atoms: C3_4  and  C4_5 
REMARK    2  A    between atoms: C5_6  and  C6_7 
REMARK    3  A    between atoms: C5_6  and  N1_9 
REMARK    4  A    between atoms: N1_9  and  C7_10 
ROOT
HETATM    1  C7  UNL     1      23.507   3.119  51.722  1.00  0.00     0.160 A 
HETATM    2  N2  UNL     1      22.576   3.765  52.408  1.00  0.00    -0.222 NA
HETATM    3  C8  UNL     1      22.235   5.037  52.129  1.00  0.00     0.238 A 
HETATM    4  N3  UNL     1      22.844   5.706  51.121  1.00  0.00    -0.215 NA
HETATM    5  C9  UNL     1      23.810   5.098  50.378  1.00  0.00     0.202 A 
HETATM    6  C10 UNL     1      24.129   3.813  50.687  1.00  0.00     0.129 A 
HETATM    7  N4  UNL     1      25.088   2.975  50.056  1.00  0.00    -0.379 N 
HETATM    8  C11 UNL     1      26.229   3.240  49.242  1.00  0.00     0.161 C 
HETATM    9  C12 UNL     1      26.505   4.679  49.010  1.00  0.00    -0.004 A 
HETATM   10  C13 UNL     1      27.849   4.812  48.679  1.00  0.00     0.054 A 
HETATM   11  C14 UNL     1      28.389   6.054  48.407  1.00  0.00     0.117 A 
HETATM   12  F2  UNL     1      29.699   6.187  48.084  1.00  0.00    -0.206 F 
HETATM   13  C15 UNL     1      27.643   7.212  48.445  1.00  0.00     0.045 A 
HETATM   14  C16 UNL     1      26.306   7.087  48.771  1.00  0.00     0.041 A 
HETATM   15  C17 UNL     1      25.734   5.840  49.052  1.00  0.00     0.086 A 
HETATM   16  O1  UNL     1      24.375   5.868  49.366  1.00  0.00    -0.289 OA
HETATM   17  H10 UNL     1      24.965   1.928  50.189  1.00  0.00     0.160 HD
ENDROOT
BRANCH   1  18
HETATM   18  N1  UNL     1      23.838   1.769  52.041  1.00  0.00    -0.341 N 
HETATM   19  H8  UNL     1      24.643   1.211  52.404  1.00  0.00     0.167 HD
BRANCH  18  20
HETATM   20  C5  UNL     1      22.707   0.930  51.789  1.00  0.00     0.024 C 
HETATM   21  C4  UNL     1      22.243  -0.031  52.602  1.00  0.00     0.029 C 
BRANCH  21  22
HETATM   22  C3  UNL     1      23.020  -0.187  53.811  1.00  0.00     0.039 C 
HETATM   23  C2  UNL     1      22.695  -1.043  54.795  1.00  0.00     0.090 C 
HETATM   24  C1  UNL     1      21.431  -1.697  54.306  1.00  0.00     0.082 C 
HETATM   25  F1  UNL     1      23.334  -1.268  55.938  1.00  0.00    -0.211 F 
ENDBRANCH  21  22
BRANCH  20  26
HETATM   26  C6  UNL     1      22.078   1.272  50.492  1.00  0.00     0.171 C 
HETATM   27 CL1  UNL     1      20.360   0.790  50.513  1.00  0.00    -0.124 Cl
ENDBRANCH  20  26
ENDBRANCH  18  20
ENDBRANCH   1  18
TORSDOF 4
ENDMDL
MODEL 8
REMARK VINA RESULT:      -7.8      1.903      2.534
REMARK  4 active torsions:
REMARK  status: ('A' for Active; 'I' for Inactive)
REMARK    1  A    between atoms: C3_4  and  C4_5 
REMARK    2  A    between atoms: C5_6  and  C6_7 
REMARK    3  A    between atoms: C5_6  and  N1_9 
REMARK    4  A    between atoms: N1_9  and  C7_10 
ROOT
HETATM    1  C7  UNL     1      23.975   4.626  50.103  1.00  0.00     0.160 A 
HETATM    2  N2  UNL     1      22.740   5.068  50.286  1.00  0.00    -0.222 NA
HETATM    3  C8  UNL     1      22.010   4.729  51.365  1.00  0.00     0.238 A 
HETATM    4  N3  UNL     1      22.526   3.911  52.314  1.00  0.00    -0.215 NA
HETATM    5  C9  UNL     1      23.791   3.423  52.185  1.00  0.00     0.202 A 
HETATM    6  C10 UNL     1      24.500   3.786  51.083  1.00  0.00     0.129 A 
HETATM    7  N4  UNL     1      25.826   3.415  50.736  1.00  0.00    -0.379 N 
HETATM    8  C11 UNL     1      26.672   2.336  51.129  1.00  0.00     0.161 C 
HETATM    9  C12 UNL     1      26.054   1.378  52.080  1.00  0.00    -0.004 A 
HETATM   10  C13 UNL     1      26.733   0.169  51.976  1.00  0.00     0.054 A 
HETATM   11  C14 UNL     1      26.368  -0.913  52.753  1.00  0.00     0.117 A 
HETATM   12  F2  UNL     1      27.028  -2.094  52.655  1.00  0.00    -0.206 F 
HETATM   13  C15 UNL     1      25.333  -0.860  53.660  1.00  0.00     0.045 A 
HETATM   14  C16 UNL     1      24.655   0.338  53.770  1.00  0.00     0.041 A 
HETATM   15  C17 UNL     1      25.003   1.450  52.993  1.00  0.00     0.086 A 
HETATM   16  O1  UNL     1      24.230   2.592  53.211  1.00  0.00    -0.289 OA
HETATM   17  H10 UNL     1      26.332   4.046  50.046  1.00  0.00     0.160 HD
ENDROOT
BRANCH   1  18
HETATM   18  N1  UNL     1      24.721   5.012  48.952  1.00  0.00    -0.341 N 
HETATM   19  H8  UNL     1      24.962   4.651  48.001  1.00  0.00     0.167 HD
BRANCH  18  20
HETATM   20  C5  UNL     1      25.312   6.296  49.175  1.00  0.00     0.024 C 
HETATM   21  C4  UNL     1      26.608   6.603  49.016  1.00  0.00     0.029 C 
BRANCH  21  22
HETATM   22  C3  UNL     1      27.420   5.481  48.602  1.00  0.00     0.039 C 
HETATM   23  C2  UNL     1      28.694   5.601  48.189  1.00  0.00     0.090 C 
HETATM   24  C1  UNL     1      28.968   7.079  48.278  1.00  0.00     0.082 C 
HETATM   25  F1  UNL     1      29.526   4.645  47.792  1.00  0.00    -0.211 F 
ENDBRANCH  21  22
BRANCH  20  26
HETATM   26  C6  UNL     1      24.288   7.280  49.596  1.00  0.00     0.171 C 
HETATM   27 CL1  UNL     1      25.082   8.803  50.077  1.00  0.00    -0.124 Cl
ENDBRANCH  20  26
ENDBRANCH  18  20
ENDBRANCH   1  18
TORSDOF 4
ENDMDL
MODEL 9
REMARK VINA RESULT:      -7.5      2.499      6.503
REMARK  4 active torsions:
REMARK  status: ('A' for Active; 'I' for Inactive)
REMARK    1  A    between atoms: C3_4  and  C4_5 
REMARK    2  A    between atoms: C5_6  and  C6_7 
REMARK    3  A    between atoms: C5_6  and  N1_9 
REMARK    4  A    between atoms: N1_9  and  C7_10 
ROOT
HETATM    1  C7  UNL     1      24.027   4.132  52.032  1.00  0.00     0.160 A 
HETATM    2  N2  UNL     1      22.887   4.655  52.457  1.00  0.00    -0.222 NA
HETATM    3  C8  UNL     1      22.201   5.560  51.734  1.00  0.00     0.238 A 
HETATM    4  N3  UNL     1      22.665   5.970  50.529  1.00  0.00    -0.215 NA
HETATM    5  C9  UNL     1      23.831   5.470  50.036  1.00  0.00     0.202 A 
HETATM    6  C10 UNL     1      24.498   4.557  50.792  1.00  0.00     0.129 A 
HETATM    7  N4  UNL     1      25.718   3.896  50.489  1.00  0.00    -0.379 N 
HETATM    8  C11 UNL     1      26.792   4.190  49.599  1.00  0.00     0.161 C 
HETATM    9  C12 UNL     1      26.637   5.452  48.835  1.00  0.00    -0.004 A 
HETATM   10  C13 UNL     1      27.901   5.872  48.434  1.00  0.00     0.054 A 
HETATM   11  C14 UNL     1      28.059   7.031  47.699  1.00  0.00     0.117 A 
HETATM   12  F2  UNL     1      29.289   7.443  47.306  1.00  0.00    -0.206 F 
HETATM   13  C15 UNL     1      26.996   7.824  47.326  1.00  0.00     0.045 A 
HETATM   14  C16 UNL     1      25.737   7.412  47.719  1.00  0.00     0.041 A 
HETATM   15  C17 UNL     1      25.549   6.242  48.466  1.00  0.00     0.086 A 
HETATM   16  O1  UNL     1      24.223   5.953  48.791  1.00  0.00    -0.289 OA
HETATM   17  H10 UNL     1      25.908   2.988  51.009  1.00  0.00     0.160 HD
ENDROOT
BRANCH   1  18
HETATM   18  N1  UNL     1      24.723   3.170  52.822  1.00  0.00    -0.341 N 
HETATM   19  H8  UNL     1      25.434   3.132  53.586  1.00  0.00     0.167 HD
BRANCH  18  20
HETATM   20  C5  UNL     1      24.304   1.854  52.447  1.00  0.00     0.024 C 
HETATM   21  C4  UNL     1      25.113   0.820  52.169  1.00  0.00     0.029 C 
BRANCH  21  22
HETATM   22  C3  UNL     1      26.518   1.149  52.255  1.00  0.00     0.039 C 
HETATM   23  C2  UNL     1      27.408   0.418  52.948  1.00  0.00     0.090 C 
HETATM   24  C1  UNL     1      26.586  -0.699  53.533  1.00  0.00     0.082 C 
HETATM   25  F1  UNL     1      28.713   0.625  53.091  1.00  0.00    -0.211 F 
ENDBRANCH  21  22
BRANCH  20  26
HETATM   26  C6  UNL     1      22.826   1.761  52.423  1.00  0.00     0.171 C 
HETATM   27 CL1  UNL     1      22.285   1.245  50.803  1.00  0.00    -0.124 Cl
ENDBRANCH  20  26
ENDBRANCH  18  20
ENDBRANCH   1  18
TORSDOF 4
ENDMDL
