MODEL 1
REMARK VINA RESULT:      -8.8      0.000      0.000
REMARK  6 active torsions:
REMARK  status: ('A' for Active; 'I' for Inactive)
REMARK    1  A    between atoms: C3_3  and  C4_4 
REMARK    2  A    between atoms: C4_4  and  N1_5 
REMARK    3  A    between atoms: C9_11  and  C10_12 
REMARK       I    between atoms: C10_12  and  N3_14 
REMARK    4  A    between atoms: N3_14  and  C11_15 
REMARK    5  A    between atoms: C14_18  and  N4_19 
REMARK    6  A    between atoms: N4_19  and  C15_20 
ROOT
HETATM    1  C1  UNL     1      21.155  -0.196  54.867  1.00  0.00     0.012 C 
HETATM    2  C2  UNL     1      22.014  -0.383  54.043  1.00  0.00    -0.116 C 
HETATM    3  C3  UNL     1      23.068  -0.590  53.019  1.00  0.00     0.112 C 
ENDROOT
BRANCH   3   4
HETATM    4  C4  UNL     1      24.367  -0.644  53.782  1.00  0.00     0.130 C 
BRANCH   4   5
HETATM    5  N1  UNL     1      25.483  -0.053  53.153  1.00  0.00    -0.396 N 
HETATM    6  C5  UNL     1      26.449  -0.895  52.554  1.00  0.00     0.148 C 
HETATM    7  C6  UNL     1      27.755  -1.007  53.282  1.00  0.00     0.291 C 
HETATM    8  N2  UNL     1      28.147   0.234  53.860  1.00  0.00     0.088 N 
HETATM    9  C7  UNL     1      29.570   0.444  53.842  1.00  0.00     0.310 C 
HETATM   10  C8  UNL     1      27.405   1.365  53.403  1.00  0.00     0.306 C 
HETATM   11  C9  UNL     1      25.909   1.220  53.614  1.00  0.00     0.200 C 
BRANCH  11  12
HETATM   12  C10 UNL     1      25.310   2.301  52.747  1.00  0.00     0.247 C 
HETATM   13  O1  UNL     1      24.668   3.194  53.349  1.00  0.00    -0.271 OA
HETATM   14  N3  UNL     1      25.443   2.341  51.352  1.00  0.00    -0.310 N 
HETATM   15  H16 UNL     1      26.000   1.537  51.000  1.00  0.00     0.170 HD
BRANCH  14  16
HETATM   16  C11 UNL     1      24.927   3.303  50.448  1.00  0.00     0.130 A 
HETATM   17  C12 UNL     1      25.485   4.485  50.080  1.00  0.00     0.068 A 
HETATM   18  C13 UNL     1      24.916   5.349  49.184  1.00  0.00     0.044 A 
HETATM   19  C14 UNL     1      25.539   6.532  48.857  1.00  0.00     0.142 A 
HETATM   20  C22 UNL     1      23.718   5.048  48.597  1.00  0.00     0.089 A 
HETATM   21  N5  UNL     1      24.953   7.352  47.975  1.00  0.00    -0.224 NA
HETATM   22  C21 UNL     1      23.773   7.040  47.405  1.00  0.00     0.236 A 
HETATM   23  N6  UNL     1      23.149   5.882  47.717  1.00  0.00    -0.240 NA
HETATM   24  C23 UNL     1      23.162   3.845  48.978  1.00  0.00     0.151 A 
HETATM   25  N7  UNL     1      23.753   3.033  49.858  1.00  0.00    -0.241 NA
BRANCH  19  26
HETATM   26  N4  UNL     1      26.803   6.930  49.432  1.00  0.00    -0.340 N 
HETATM   27  H18 UNL     1      26.830   7.118  50.459  1.00  0.00     0.167 HD
BRANCH  26  28
HETATM   28  C15 UNL     1      28.001   7.077  48.680  1.00  0.00     0.035 A 
HETATM   29  C16 UNL     1      28.725   5.980  48.256  1.00  0.00     0.032 A 
HETATM   30  C17 UNL     1      29.885   6.204  47.527  1.00  0.00     0.046 A 
HETATM   31  C18 UNL     1      30.360   7.462  47.200  1.00  0.00     0.138 A 
HETATM   32  F1  UNL     1      31.488   7.645  46.493  1.00  0.00    -0.204 F 
HETATM   33  C19 UNL     1      29.639   8.548  47.623  1.00  0.00     0.074 A 
HETATM   34 CL1  UNL     1      30.219  10.151  47.224  1.00  0.00    -0.081 Cl
HETATM   35  C20 UNL     1      28.474   8.338  48.353  1.00  0.00     0.056 A 
ENDBRANCH  26  28
ENDBRANCH  19  26
ENDBRANCH  14  16
ENDBRANCH  11  12
ENDBRANCH   4   5
ENDBRANCH   3   4
TORSDOF 6
ENDMDL
MODEL 2
REMARK VINA RESULT:      -8.7      2.384      2.788
REMARK  6 active torsions:
REMARK  status: ('A' for Active; 'I' for Inactive)
REMARK    1  A    between atoms: C3_3  and  C4_4 
REMARK    2  A    between atoms: C4_4  and  N1_5 
REMARK    3  A    between atoms: C9_11  and  C10_12 
REMARK       I    between atoms: C10_12  and  N3_14 
REMARK    4  A    between atoms: N3_14  and  C11_15 
REMARK    5  A    between atoms: C14_18  and  N4_19 
REMARK    6  A    between atoms: N4_19  and  C15_20 
ROOT
HETATM    1  C1  UNL     1      21.172  -1.646  54.586  1.00  0.00     0.012 C 
HETATM    2  C2  UNL     1      22.032  -1.281  53.826  1.00  0.00    -0.116 C 
HETATM    3  C3  UNL     1      23.080  -0.811  52.886  1.00  0.00     0.112 C 
ENDROOT
BRANCH   3   4
HETATM    4  C4  UNL     1      24.300  -0.560  53.734  1.00  0.00     0.130 C 
BRANCH   4   5
HETATM    5  N1  UNL     1      25.352   0.151  53.116  1.00  0.00    -0.396 N 
HETATM    6  C5  UNL     1      26.391  -0.580  52.495  1.00  0.00     0.148 C 
HETATM    7  C6  UNL     1      27.705  -0.585  53.216  1.00  0.00     0.291 C 
HETATM    8  N2  UNL     1      27.980   0.673  53.823  1.00  0.00     0.088 N 
HETATM    9  C7  UNL     1      29.376   1.019  53.806  1.00  0.00     0.310 C 
HETATM   10  C8  UNL     1      27.131   1.739  53.396  1.00  0.00     0.306 C 
HETATM   11  C9  UNL     1      25.657   1.446  53.608  1.00  0.00     0.200 C 
BRANCH  11  12
HETATM   12  C10 UNL     1      24.953   2.486  52.769  1.00  0.00     0.247 C 
HETATM   13  O1  UNL     1      25.617   2.967  51.820  1.00  0.00    -0.271 OA
HETATM   14  N3  UNL     1      23.638   2.914  53.002  1.00  0.00    -0.310 N 
HETATM   15  H16 UNL     1      23.220   2.426  53.820  1.00  0.00     0.170 HD
BRANCH  14  16
HETATM   16  C11 UNL     1      22.886   3.875  52.282  1.00  0.00     0.130 A 
HETATM   17  C12 UNL     1      23.290   5.097  51.852  1.00  0.00     0.068 A 
HETATM   18  C13 UNL     1      22.492   5.958  51.147  1.00  0.00     0.044 A 
HETATM   19  C14 UNL     1      22.968   7.184  50.741  1.00  0.00     0.142 A 
HETATM   20  C22 UNL     1      21.207   5.611  50.833  1.00  0.00     0.089 A 
HETATM   21  N5  UNL     1      22.159   7.999  50.052  1.00  0.00    -0.224 NA
HETATM   22  C21 UNL     1      20.895   7.641  49.750  1.00  0.00     0.236 A 
HETATM   23  N6  UNL     1      20.414   6.440  50.142  1.00  0.00    -0.240 NA
HETATM   24  C23 UNL     1      20.809   4.366  51.275  1.00  0.00     0.151 A 
HETATM   25  N7  UNL     1      21.622   3.560  51.961  1.00  0.00    -0.241 NA
BRANCH  19  26
HETATM   26  N4  UNL     1      24.310   7.632  51.033  1.00  0.00    -0.340 N 
HETATM   27  H18 UNL     1      24.496   8.014  51.987  1.00  0.00     0.167 HD
BRANCH  26  28
HETATM   28  C15 UNL     1      25.380   7.581  50.098  1.00  0.00     0.035 A 
HETATM   29  C16 UNL     1      25.838   8.718  49.463  1.00  0.00     0.032 A 
HETATM   30  C17 UNL     1      26.887   8.587  48.563  1.00  0.00     0.046 A 
HETATM   31  C18 UNL     1      27.501   7.385  48.263  1.00  0.00     0.138 A 
HETATM   32  F1  UNL     1      28.514   7.291  47.385  1.00  0.00    -0.204 F 
HETATM   33  C19 UNL     1      27.043   6.258  48.894  1.00  0.00     0.074 A 
HETATM   34 CL1  UNL     1      27.801   4.722  48.531  1.00  0.00    -0.081 Cl
HETATM   35  C20 UNL     1      25.993   6.374  49.800  1.00  0.00     0.056 A 
ENDBRANCH  26  28
ENDBRANCH  19  26
ENDBRANCH  14  16
ENDBRANCH  11  12
ENDBRANCH   4   5
ENDBRANCH   3   4
TORSDOF 6
ENDMDL
MODEL 3
REMARK VINA RESULT:      -8.5      3.840      8.692
REMARK  6 active torsions:
REMARK  status: ('A' for Active; 'I' for Inactive)
REMARK    1  A    between atoms: C3_3  and  C4_4 
REMARK    2  A    between atoms: C4_4  and  N1_5 
REMARK    3  A    between atoms: C9_11  and  C10_12 
REMARK       I    between atoms: C10_12  and  N3_14 
REMARK    4  A    between atoms: N3_14  and  C11_15 
REMARK    5  A    between atoms: C14_18  and  N4_19 
REMARK    6  A    between atoms: N4_19  and  C15_20 
ROOT
HETATM    1  C1  UNL     1      26.204   9.986  45.067  1.00  0.00     0.012 C 
HETATM    2  C2  UNL     1      27.212   9.761  45.686  1.00  0.00    -0.116 C 
HETATM    3  C3  UNL     1      28.462   9.509  46.447  1.00  0.00     0.112 C 
ENDROOT
BRANCH   3   4
HETATM    4  C4  UNL     1      28.020   9.160  47.845  1.00  0.00     0.130 C 
BRANCH   4   5
HETATM    5  N1  UNL     1      28.611   8.013  48.416  1.00  0.00    -0.396 N 
HETATM    6  C5  UNL     1      29.881   8.136  49.025  1.00  0.00     0.148 C 
HETATM    7  C6  UNL     1      31.027   7.536  48.268  1.00  0.00     0.291 C 
HETATM    8  N2  UNL     1      30.658   6.320  47.624  1.00  0.00     0.088 N 
HETATM    9  C7  UNL     1      31.718   5.349  47.594  1.00  0.00     0.310 C 
HETATM   10  C8  UNL     1      29.408   5.777  48.049  1.00  0.00     0.306 C 
HETATM   11  C9  UNL     1      28.251   6.747  47.886  1.00  0.00     0.200 C 
BRANCH  11  12
HETATM   12  C10 UNL     1      27.147   6.143  48.719  1.00  0.00     0.247 C 
HETATM   13  O1  UNL     1      26.449   6.952  49.376  1.00  0.00    -0.271 OA
HETATM   14  N3  UNL     1      26.882   4.767  48.781  1.00  0.00    -0.310 N 
HETATM   15  H16 UNL     1      27.541   4.227  48.184  1.00  0.00     0.170 HD
BRANCH  14  16
HETATM   16  C11 UNL     1      25.878   4.098  49.523  1.00  0.00     0.130 A 
HETATM   17  C12 UNL     1      25.981   3.553  50.762  1.00  0.00     0.068 A 
HETATM   18  C13 UNL     1      24.947   2.933  51.409  1.00  0.00     0.044 A 
HETATM   19  C14 UNL     1      25.122   2.402  52.667  1.00  0.00     0.142 A 
HETATM   20  C22 UNL     1      23.718   2.833  50.815  1.00  0.00     0.089 A 
HETATM   21  N5  UNL     1      24.086   1.805  53.270  1.00  0.00    -0.224 NA
HETATM   22  C21 UNL     1      22.883   1.715  52.671  1.00  0.00     0.236 A 
HETATM   23  N6  UNL     1      22.695   2.231  51.435  1.00  0.00    -0.240 NA
HETATM   24  C23 UNL     1      23.627   3.390  49.556  1.00  0.00     0.151 A 
HETATM   25  N7  UNL     1      24.664   3.984  48.963  1.00  0.00    -0.241 NA
BRANCH  19  26
HETATM   26  N4  UNL     1      26.385   2.461  53.366  1.00  0.00    -0.340 N 
HETATM   27  H18 UNL     1      26.623   3.349  53.862  1.00  0.00     0.167 HD
BRANCH  26  28
HETATM   28  C15 UNL     1      27.311   1.383  53.414  1.00  0.00     0.035 A 
HETATM   29  C16 UNL     1      28.611   1.569  53.840  1.00  0.00     0.032 A 
HETATM   30  C17 UNL     1      29.457   0.468  53.858  1.00  0.00     0.046 A 
HETATM   31  C18 UNL     1      29.075  -0.805  53.474  1.00  0.00     0.138 A 
HETATM   32  F1  UNL     1      29.919  -1.850  53.502  1.00  0.00    -0.204 F 
HETATM   33  C19 UNL     1      27.785  -0.985  53.051  1.00  0.00     0.074 A 
HETATM   34 CL1  UNL     1      27.276  -2.586  52.557  1.00  0.00    -0.081 Cl
HETATM   35  C20 UNL     1      26.925   0.109  53.029  1.00  0.00     0.056 A 
ENDBRANCH  26  28
ENDBRANCH  19  26
ENDBRANCH  14  16
ENDBRANCH  11  12
ENDBRANCH   4   5
ENDBRANCH   3   4
TORSDOF 6
ENDMDL
MODEL 4
REMARK VINA RESULT:      -8.4      4.502      6.507
REMARK  6 active torsions:
REMARK  status: ('A' for Active; 'I' for Inactive)
REMARK    1  A    between atoms: C3_3  and  C4_4 
REMARK    2  A    between atoms: C4_4  and  N1_5 
REMARK    3  A    between atoms: C9_11  and  C10_12 
REMARK       I    between atoms: C10_12  and  N3_14 
REMARK    4  A    between atoms: N3_14  and  C11_15 
REMARK    5  A    between atoms: C14_18  and  N4_19 
REMARK    6  A    between atoms: N4_19  and  C15_20 
ROOT
HETATM    1  C1  UNL     1      21.358  -1.996  54.268  1.00  0.00     0.012 C 
HETATM    2  C2  UNL     1      22.118  -1.129  53.920  1.00  0.00    -0.116 C 
HETATM    3  C3  UNL     1      23.045  -0.046  53.508  1.00  0.00     0.112 C 
ENDROOT
BRANCH   3   4
HETATM    4  C4  UNL     1      24.420  -0.516  53.908  1.00  0.00     0.130 C 
BRANCH   4   5
HETATM    5  N1  UNL     1      25.501   0.041  53.192  1.00  0.00    -0.396 N 
HETATM    6  C5  UNL     1      26.435  -0.832  52.589  1.00  0.00     0.148 C 
HETATM    7  C6  UNL     1      27.778  -0.909  53.252  1.00  0.00     0.291 C 
HETATM    8  N2  UNL     1      28.198   0.360  53.744  1.00  0.00     0.088 N 
HETATM    9  C7  UNL     1      29.618   0.567  53.642  1.00  0.00     0.310 C 
HETATM   10  C8  UNL     1      27.432   1.468  53.270  1.00  0.00     0.306 C 
HETATM   11  C9  UNL     1      25.949   1.335  53.565  1.00  0.00     0.200 C 
BRANCH  11  12
HETATM   12  C10 UNL     1      25.304   2.371  52.676  1.00  0.00     0.247 C 
HETATM   13  O1  UNL     1      24.509   3.160  53.240  1.00  0.00    -0.271 OA
HETATM   14  N3  UNL     1      25.554   2.479  51.300  1.00  0.00    -0.310 N 
HETATM   15  H16 UNL     1      26.232   1.759  50.980  1.00  0.00     0.170 HD
BRANCH  14  16
HETATM   16  C11 UNL     1      25.009   3.407  50.379  1.00  0.00     0.130 A 
HETATM   17  C12 UNL     1      23.979   3.218  49.515  1.00  0.00     0.068 A 
HETATM   18  C13 UNL     1      23.511   4.184  48.666  1.00  0.00     0.044 A 
HETATM   19  C14 UNL     1      22.460   3.922  47.816  1.00  0.00     0.142 A 
HETATM   20  C22 UNL     1      24.080   5.428  48.650  1.00  0.00     0.089 A 
HETATM   21  N5  UNL     1      22.027   4.892  47.000  1.00  0.00    -0.224 NA
HETATM   22  C21 UNL     1      22.599   6.113  46.998  1.00  0.00     0.236 A 
HETATM   23  N6  UNL     1      23.632   6.384  47.827  1.00  0.00    -0.240 NA
HETATM   24  C23 UNL     1      25.125   5.607  49.532  1.00  0.00     0.151 A 
HETATM   25  N7  UNL     1      25.549   4.635  50.342  1.00  0.00    -0.241 NA
BRANCH  19  26
HETATM   26  N4  UNL     1      21.803   2.637  47.765  1.00  0.00    -0.340 N 
HETATM   27  H18 UNL     1      22.256   1.884  47.200  1.00  0.00     0.167 HD
BRANCH  26  28
HETATM   28  C15 UNL     1      20.585   2.345  48.436  1.00  0.00     0.035 A 
HETATM   29  C16 UNL     1      19.392   2.925  48.051  1.00  0.00     0.032 A 
HETATM   30  C17 UNL     1      18.245   2.591  48.757  1.00  0.00     0.046 A 
HETATM   31  C18 UNL     1      18.224   1.711  49.825  1.00  0.00     0.138 A 
HETATM   32  F1  UNL     1      17.095   1.409  50.488  1.00  0.00    -0.204 F 
HETATM   33  C19 UNL     1      19.409   1.138  50.204  1.00  0.00     0.074 A 
HETATM   34 CL1  UNL     1      19.412   0.023  51.554  1.00  0.00    -0.081 Cl
HETATM   35  C20 UNL     1      20.568   1.463  49.506  1.00  0.00     0.056 A 
ENDBRANCH  26  28
ENDBRANCH  19  26
ENDBRANCH  14  16
ENDBRANCH  11  12
ENDBRANCH   4   5
ENDBRANCH   3   4
TORSDOF 6
ENDMDL
MODEL 5
REMARK VINA RESULT:      -8.4      4.234      8.997
REMARK  6 active torsions:
REMARK  status: ('A' for Active; 'I' for Inactive)
REMARK    1  A    between atoms: C3_3  and  C4_4 
REMARK    2  A    between atoms: C4_4  and  N1_5 
REMARK    3  A    between atoms: C9_11  and  C10_12 
REMARK       I    between atoms: C10_12  and  N3_14 
REMARK    4  A    between atoms: N3_14  and  C11_15 
REMARK    5  A    between atoms: C14_18  and  N4_19 
REMARK    6  A    between atoms: N4_19  and  C15_20 
ROOT
HETATM    1  C1  UNL     1      28.297  13.020  48.797  1.00  0.00     0.012 C 
HETATM    2  C2  UNL     1      29.199  12.294  48.466  1.00  0.00    -0.116 C 
HETATM    3  C3  UNL     1      30.317  11.397  48.082  1.00  0.00     0.112 C 
ENDROOT
BRANCH   3   4
HETATM    4  C4  UNL     1      29.668  10.163  47.511  1.00  0.00     0.130 C 
BRANCH   4   5
HETATM    5  N1  UNL     1      29.676   9.017  48.335  1.00  0.00    -0.396 N 
HETATM    6  C5  UNL     1      30.613   8.950  49.393  1.00  0.00     0.148 C 
HETATM    7  C6  UNL     1      31.755   8.000  49.192  1.00  0.00     0.291 C 
HETATM    8  N2  UNL     1      31.344   6.811  48.525  1.00  0.00     0.088 N 
HETATM    9  C7  UNL     1      32.040   5.636  48.975  1.00  0.00     0.310 C 
HETATM   10  C8  UNL     1      29.929   6.631  48.445  1.00  0.00     0.306 C 
HETATM   11  C9  UNL     1      29.218   7.796  47.778  1.00  0.00     0.200 C 
BRANCH  11  12
HETATM   12  C10 UNL     1      27.765   7.589  48.134  1.00  0.00     0.247 C 
HETATM   13  O1  UNL     1      26.936   7.858  47.232  1.00  0.00    -0.271 OA
HETATM   14  N3  UNL     1      27.329   7.125  49.383  1.00  0.00    -0.310 N 
HETATM   15  H16 UNL     1      28.130   6.946  50.022  1.00  0.00     0.170 HD
BRANCH  14  16
HETATM   16  C11 UNL     1      26.001   6.895  49.819  1.00  0.00     0.130 A 
HETATM   17  C12 UNL     1      25.363   5.704  49.956  1.00  0.00     0.068 A 
HETATM   18  C13 UNL     1      24.074   5.578  50.400  1.00  0.00     0.044 A 
HETATM   19  C14 UNL     1      23.489   4.337  50.515  1.00  0.00     0.142 A 
HETATM   20  C22 UNL     1      23.346   6.686  50.739  1.00  0.00     0.089 A 
HETATM   21  N5  UNL     1      22.227   4.253  50.955  1.00  0.00    -0.224 NA
HETATM   22  C21 UNL     1      21.525   5.354  51.286  1.00  0.00     0.236 A 
HETATM   23  N6  UNL     1      22.086   6.580  51.177  1.00  0.00    -0.240 NA
HETATM   24  C23 UNL     1      24.006   7.889  50.596  1.00  0.00     0.151 A 
HETATM   25  N7  UNL     1      25.264   7.964  50.158  1.00  0.00    -0.241 NA
BRANCH  19  26
HETATM   26  N4  UNL     1      24.183   3.117  50.176  1.00  0.00    -0.340 N 
HETATM   27  H18 UNL     1      24.298   2.891  49.163  1.00  0.00     0.167 HD
BRANCH  26  28
HETATM   28  C15 UNL     1      24.711   2.215  51.139  1.00  0.00     0.035 A 
HETATM   29  C16 UNL     1      26.069   2.128  51.377  1.00  0.00     0.032 A 
HETATM   30  C17 UNL     1      26.509   1.223  52.333  1.00  0.00     0.046 A 
HETATM   31  C18 UNL     1      25.669   0.401  53.062  1.00  0.00     0.138 A 
HETATM   32  F1  UNL     1      26.126  -0.466  53.981  1.00  0.00    -0.204 F 
HETATM   33  C19 UNL     1      24.322   0.490  52.824  1.00  0.00     0.074 A 
HETATM   34 CL1  UNL     1      23.236  -0.540  53.732  1.00  0.00    -0.081 Cl
HETATM   35  C20 UNL     1      23.866   1.394  51.869  1.00  0.00     0.056 A 
ENDBRANCH  26  28
ENDBRANCH  19  26
ENDBRANCH  14  16
ENDBRANCH  11  12
ENDBRANCH   4   5
ENDBRANCH   3   4
TORSDOF 6
ENDMDL
MODEL 6
REMARK VINA RESULT:      -8.3      3.571      8.557
REMARK  6 active torsions:
REMARK  status: ('A' for Active; 'I' for Inactive)
REMARK    1  A    between atoms: C3_3  and  C4_4 
REMARK    2  A    between atoms: C4_4  and  N1_5 
REMARK    3  A    between atoms: C9_11  and  C10_12 
REMARK       I    between atoms: C10_12  and  N3_14 
REMARK    4  A    between atoms: N3_14  and  C11_15 
REMARK    5  A    between atoms: C14_18  and  N4_19 
REMARK    6  A    between atoms: N4_19  and  C15_20 
ROOT
HETATM    1  C1  UNL     1      22.200   9.626  46.848  1.00  0.00     0.012 C 
HETATM    2  C2  UNL     1      22.726   8.575  47.110  1.00  0.00    -0.116 C 
HETATM    3  C3  UNL     1      23.395   7.288  47.424  1.00  0.00     0.112 C 
ENDROOT
BRANCH   3   4
HETATM    4  C4  UNL     1      23.413   7.198  48.928  1.00  0.00     0.130 C 
BRANCH   4   5
HETATM    5  N1  UNL     1      24.536   6.564  49.500  1.00  0.00    -0.396 N 
HETATM    6  C5  UNL     1      25.676   7.346  49.801  1.00  0.00     0.148 C 
HETATM    7  C6  UNL     1      26.857   7.151  48.898  1.00  0.00     0.291 C 
HETATM    8  N2  UNL     1      27.006   5.789  48.510  1.00  0.00     0.088 N 
HETATM    9  C7  UNL     1      28.379   5.383  48.376  1.00  0.00     0.310 C 
HETATM   10  C8  UNL     1      26.216   4.865  49.259  1.00  0.00     0.306 C 
HETATM   11  C9  UNL     1      24.733   5.186  49.226  1.00  0.00     0.200 C 
BRANCH  11  12
HETATM   12  C10 UNL     1      24.154   4.358  50.348  1.00  0.00     0.247 C 
HETATM   13  O1  UNL     1      24.559   4.637  51.502  1.00  0.00    -0.271 OA
HETATM   14  N3  UNL     1      23.218   3.332  50.155  1.00  0.00    -0.310 N 
HETATM   15  H16 UNL     1      22.981   3.220  49.148  1.00  0.00     0.170 HD
BRANCH  14  16
HETATM   16  C11 UNL     1      22.613   2.500  51.128  1.00  0.00     0.130 A 
HETATM   17  C12 UNL     1      23.119   1.374  51.693  1.00  0.00     0.068 A 
HETATM   18  C13 UNL     1      22.463   0.637  52.642  1.00  0.00     0.044 A 
HETATM   19  C14 UNL     1      23.038  -0.496  53.173  1.00  0.00     0.142 A 
HETATM   20  C22 UNL     1      21.223   1.017  53.079  1.00  0.00     0.089 A 
HETATM   21  N5  UNL     1      22.366  -1.191  54.101  1.00  0.00    -0.224 NA
HETATM   22  C21 UNL     1      21.146  -0.802  54.520  1.00  0.00     0.236 A 
HETATM   23  N6  UNL     1      20.569   0.308  54.007  1.00  0.00    -0.240 NA
HETATM   24  C23 UNL     1      20.720   2.162  52.497  1.00  0.00     0.151 A 
HETATM   25  N7  UNL     1      21.396   2.849  51.574  1.00  0.00    -0.241 NA
BRANCH  19  26
HETATM   26  N4  UNL     1      24.340  -0.970  52.767  1.00  0.00    -0.340 N 
HETATM   27  H18 UNL     1      24.382  -1.647  51.973  1.00  0.00     0.167 HD
BRANCH  26  28
HETATM   28  C15 UNL     1      25.555  -0.568  53.386  1.00  0.00     0.035 A 
HETATM   29  C16 UNL     1      25.577   0.399  54.371  1.00  0.00     0.032 A 
HETATM   30  C17 UNL     1      26.803   0.739  54.927  1.00  0.00     0.046 A 
HETATM   31  C18 UNL     1      28.005   0.166  54.552  1.00  0.00     0.138 A 
HETATM   32  F1  UNL     1      29.176   0.518  55.109  1.00  0.00    -0.204 F 
HETATM   33  C19 UNL     1      27.980  -0.793  53.574  1.00  0.00     0.074 A 
HETATM   34 CL1  UNL     1      29.487  -1.532  53.079  1.00  0.00    -0.081 Cl
HETATM   35  C20 UNL     1      26.758  -1.145  53.008  1.00  0.00     0.056 A 
ENDBRANCH  26  28
ENDBRANCH  19  26
ENDBRANCH  14  16
ENDBRANCH  11  12
ENDBRANCH   4   5
ENDBRANCH   3   4
TORSDOF 6
ENDMDL
MODEL 7
REMARK VINA RESULT:      -8.2      3.996      8.605
REMARK  6 active torsions:
REMARK  status: ('A' for Active; 'I' for Inactive)
REMARK    1  A    between atoms: C3_3  and  C4_4 
REMARK    2  A    between atoms: C4_4  and  N1_5 
REMARK    3  A    between atoms: C9_11  and  C10_12 
REMARK       I    between atoms: C10_12  and  N3_14 
REMARK    4  A    between atoms: N3_14  and  C11_15 
REMARK    5  A    between atoms: C14_18  and  N4_19 
REMARK    6  A    between atoms: N4_19  and  C15_20 
ROOT
HETATM    1  C1  UNL     1      30.279  11.886  48.958  1.00  0.00     0.012 C 
HETATM    2  C2  UNL     1      29.464  11.004  48.869  1.00  0.00    -0.116 C 
HETATM    3  C3  UNL     1      28.444   9.933  48.746  1.00  0.00     0.112 C 
ENDROOT
BRANCH   3   4
HETATM    4  C4  UNL     1      29.044   8.907  47.820  1.00  0.00     0.130 C 
BRANCH   4   5
HETATM    5  N1  UNL     1      29.509   7.719  48.424  1.00  0.00    -0.396 N 
HETATM    6  C5  UNL     1      30.610   7.795  49.309  1.00  0.00     0.148 C 
HETATM    7  C6  UNL     1      31.904   7.249  48.786  1.00  0.00     0.291 C 
HETATM    8  N2  UNL     1      31.705   6.085  47.990  1.00  0.00     0.088 N 
HETATM    9  C7  UNL     1      32.759   5.115  48.127  1.00  0.00     0.310 C 
HETATM   10  C8  UNL     1      30.399   5.514  48.085  1.00  0.00     0.306 C 
HETATM   11  C9  UNL     1      29.294   6.496  47.738  1.00  0.00     0.200 C 
BRANCH  11  12
HETATM   12  C10 UNL     1      28.041   5.835  48.258  1.00  0.00     0.247 C 
HETATM   13  O1  UNL     1      28.142   4.620  48.552  1.00  0.00    -0.271 OA
HETATM   14  N3  UNL     1      26.818   6.503  48.418  1.00  0.00    -0.310 N 
HETATM   15  H16 UNL     1      26.891   7.501  48.134  1.00  0.00     0.170 HD
BRANCH  14  16
HETATM   16  C11 UNL     1      25.590   5.984  48.895  1.00  0.00     0.130 A 
HETATM   17  C12 UNL     1      25.385   5.184  49.973  1.00  0.00     0.068 A 
HETATM   18  C13 UNL     1      24.152   4.740  50.368  1.00  0.00     0.044 A 
HETATM   19  C14 UNL     1      24.018   3.930  51.474  1.00  0.00     0.142 A 
HETATM   20  C22 UNL     1      23.031   5.096  49.669  1.00  0.00     0.089 A 
HETATM   21  N5  UNL     1      22.795   3.516  51.831  1.00  0.00    -0.224 NA
HETATM   22  C21 UNL     1      21.701   3.877  51.132  1.00  0.00     0.236 A 
HETATM   23  N6  UNL     1      21.817   4.672  50.044  1.00  0.00    -0.240 NA
HETATM   24  C23 UNL     1      23.252   5.909  48.577  1.00  0.00     0.151 A 
HETATM   25  N7  UNL     1      24.474   6.317  48.228  1.00  0.00    -0.241 NA
BRANCH  19  26
HETATM   26  N4  UNL     1      25.147   3.504  52.266  1.00  0.00    -0.340 N 
HETATM   27  H18 UNL     1      25.691   4.239  52.769  1.00  0.00     0.167 HD
BRANCH  26  28
HETATM   28  C15 UNL     1      25.554   2.147  52.395  1.00  0.00     0.035 A 
HETATM   29  C16 UNL     1      26.467   1.583  51.526  1.00  0.00     0.032 A 
HETATM   30  C17 UNL     1      26.814   0.252  51.716  1.00  0.00     0.046 A 
HETATM   31  C18 UNL     1      26.299  -0.543  52.724  1.00  0.00     0.138 A 
HETATM   32  F1  UNL     1      26.655  -1.829  52.880  1.00  0.00    -0.204 F 
HETATM   33  C19 UNL     1      25.394   0.020  53.584  1.00  0.00     0.074 A 
HETATM   34 CL1  UNL     1      24.724  -0.965  54.867  1.00  0.00    -0.081 Cl
HETATM   35  C20 UNL     1      25.037   1.353  53.406  1.00  0.00     0.056 A 
ENDBRANCH  26  28
ENDBRANCH  19  26
ENDBRANCH  14  16
ENDBRANCH  11  12
ENDBRANCH   4   5
ENDBRANCH   3   4
TORSDOF 6
ENDMDL
MODEL 8
REMARK VINA RESULT:      -8.2      3.646      8.677
REMARK  6 active torsions:
REMARK  status: ('A' for Active; 'I' for Inactive)
REMARK    1  A    between atoms: C3_3  and  C4_4 
REMARK    2  A    between atoms: C4_4  and  N1_5 
REMARK    3  A    between atoms: C9_11  and  C10_12 
REMARK       I    between atoms: C10_12  and  N3_14 
REMARK    4  A    between atoms: N3_14  and  C11_15 
REMARK    5  A    between atoms: C14_18  and  N4_19 
REMARK    6  A    between atoms: N4_19  and  C15_20 
ROOT
HETATM    1  C1  UNL     1      25.970   4.609  49.407  1.00  0.00     0.012 C 
HETATM    2  C2  UNL     1      26.085   5.742  49.016  1.00  0.00    -0.116 C 
HETATM    3  C3  UNL     1      26.222   7.130  48.509  1.00  0.00     0.112 C 
ENDROOT
BRANCH   3   4
HETATM    4  C4  UNL     1      25.022   7.873  49.036  1.00  0.00     0.130 C 
BRANCH   4   5
HETATM    5  N1  UNL     1      23.778   7.527  48.467  1.00  0.00    -0.396 N 
HETATM    6  C5  UNL     1      23.545   7.834  47.107  1.00  0.00     0.148 C 
HETATM    7  C6  UNL     1      22.599   8.967  46.846  1.00  0.00     0.291 C 
HETATM    8  N2  UNL     1      21.521   8.981  47.776  1.00  0.00     0.088 N 
HETATM    9  C7  UNL     1      20.278   9.418  47.199  1.00  0.00     0.310 C 
HETATM   10  C8  UNL     1      21.392   7.792  48.557  1.00  0.00     0.306 C 
HETATM   11  C9  UNL     1      22.653   7.448  49.329  1.00  0.00     0.200 C 
BRANCH  11  12
HETATM   12  C10 UNL     1      22.441   6.015  49.756  1.00  0.00     0.247 C 
HETATM   13  O1  UNL     1      22.312   5.180  48.829  1.00  0.00    -0.271 OA
HETATM   14  N3  UNL     1      22.387   5.602  51.094  1.00  0.00    -0.310 N 
HETATM   15  H16 UNL     1      22.510   6.405  51.744  1.00  0.00     0.170 HD
BRANCH  14  16
HETATM   16  C11 UNL     1      22.195   4.294  51.603  1.00  0.00     0.130 A 
HETATM   17  C12 UNL     1      23.109   3.294  51.698  1.00  0.00     0.068 A 
HETATM   18  C13 UNL     1      22.835   2.059  52.219  1.00  0.00     0.044 A 
HETATM   19  C14 UNL     1      23.812   1.091  52.285  1.00  0.00     0.142 A 
HETATM   20  C22 UNL     1      21.582   1.766  52.685  1.00  0.00     0.089 A 
HETATM   21  N5  UNL     1      23.507  -0.106  52.803  1.00  0.00    -0.224 NA
HETATM   22  C21 UNL     1      22.267  -0.377  53.259  1.00  0.00     0.236 A 
HETATM   23  N6  UNL     1      21.298   0.563  53.200  1.00  0.00    -0.240 NA
HETATM   24  C23 UNL     1      20.663   2.790  52.583  1.00  0.00     0.151 A 
HETATM   25  N7  UNL     1      20.976   3.980  52.066  1.00  0.00    -0.241 NA
BRANCH  19  26
HETATM   26  N4  UNL     1      25.159   1.313  51.814  1.00  0.00    -0.340 N 
HETATM   27  H18 UNL     1      25.284   1.932  50.981  1.00  0.00     0.167 HD
BRANCH  26  28
HETATM   28  C15 UNL     1      26.311   0.741  52.417  1.00  0.00     0.035 A 
HETATM   29  C16 UNL     1      26.555  -0.617  52.362  1.00  0.00     0.032 A 
HETATM   30  C17 UNL     1      27.702  -1.102  52.976  1.00  0.00     0.046 A 
HETATM   31  C18 UNL     1      28.616  -0.305  53.641  1.00  0.00     0.138 A 
HETATM   32  F1  UNL     1      29.717  -0.805  54.226  1.00  0.00    -0.204 F 
HETATM   33  C19 UNL     1      28.372   1.042  53.694  1.00  0.00     0.074 A 
HETATM   34 CL1  UNL     1      29.511   2.073  54.532  1.00  0.00    -0.081 Cl
HETATM   35  C20 UNL     1      27.226   1.543  53.082  1.00  0.00     0.056 A 
ENDBRANCH  26  28
ENDBRANCH  19  26
ENDBRANCH  14  16
ENDBRANCH  11  12
ENDBRANCH   4   5
ENDBRANCH   3   4
TORSDOF 6
ENDMDL
MODEL 9
REMARK VINA RESULT:      -8.1      4.035      8.637
REMARK  6 active torsions:
REMARK  status: ('A' for Active; 'I' for Inactive)
REMARK    1  A    between atoms: C3_3  and  C4_4 
REMARK    2  A    between atoms: C4_4  and  N1_5 
REMARK    3  A    between atoms: C9_11  and  C10_12 
REMARK       I    between atoms: C10_12  and  N3_14 
REMARK    4  A    between atoms: N3_14  and  C11_15 
REMARK    5  A    between atoms: C14_18  and  N4_19 
REMARK    6  A    between atoms: N4_19  and  C15_20 
ROOT
HETATM    1  C1  UNL     1      28.991  10.499  49.252  1.00  0.00     0.012 C 
HETATM    2  C2  UNL     1      30.018   9.961  48.927  1.00  0.00    -0.116 C 
HETATM    3  C3  UNL     1      31.296   9.317  48.532  1.00  0.00     0.112 C 
ENDROOT
BRANCH   3   4
HETATM    4  C4  UNL     1      31.529   8.226  49.545  1.00  0.00     0.130 C 
BRANCH   4   5
HETATM    5  N1  UNL     1      31.697   6.924  49.030  1.00  0.00    -0.396 N 
HETATM    6  C5  UNL     1      32.843   6.187  49.407  1.00  0.00     0.148 C 
HETATM    7  C6  UNL     1      33.891   6.025  48.348  1.00  0.00     0.291 C 
HETATM    8  N2  UNL     1      33.316   5.840  47.058  1.00  0.00     0.088 N 
HETATM    9  C7  UNL     1      34.069   4.945  46.222  1.00  0.00     0.310 C 
HETATM   10  C8  UNL     1      31.916   5.560  47.064  1.00  0.00     0.306 C 
HETATM   11  C9  UNL     1      31.099   6.622  47.778  1.00  0.00     0.200 C 
BRANCH  11  12
HETATM   12  C10 UNL     1      29.758   5.965  48.001  1.00  0.00     0.247 C 
HETATM   13  O1  UNL     1      29.728   4.719  47.865  1.00  0.00    -0.271 OA
HETATM   14  N3  UNL     1      28.594   6.669  48.342  1.00  0.00    -0.310 N 
HETATM   15  H16 UNL     1      28.777   7.690  48.419  1.00  0.00     0.170 HD
BRANCH  14  16
HETATM   16  C11 UNL     1      27.294   6.157  48.574  1.00  0.00     0.130 A 
HETATM   17  C12 UNL     1      26.954   4.987  49.173  1.00  0.00     0.068 A 
HETATM   18  C13 UNL     1      25.662   4.579  49.366  1.00  0.00     0.044 A 
HETATM   19  C14 UNL     1      25.389   3.378  49.983  1.00  0.00     0.142 A 
HETATM   20  C22 UNL     1      24.618   5.360  48.950  1.00  0.00     0.089 A 
HETATM   21  N5  UNL     1      24.112   3.013  50.157  1.00  0.00    -0.224 NA
HETATM   22  C21 UNL     1      23.097   3.795  49.741  1.00  0.00     0.236 A 
HETATM   23  N6  UNL     1      23.349   4.976  49.133  1.00  0.00    -0.240 NA
HETATM   24  C23 UNL     1      24.978   6.546  48.343  1.00  0.00     0.151 A 
HETATM   25  N7  UNL     1      26.252   6.903  48.175  1.00  0.00    -0.241 NA
BRANCH  19  26
HETATM   26  N4  UNL     1      26.428   2.491  50.450  1.00  0.00    -0.340 N 
HETATM   27  H18 UNL     1      27.244   2.326  49.819  1.00  0.00     0.167 HD
BRANCH  26  28
HETATM   28  C15 UNL     1      26.400   1.837  51.712  1.00  0.00     0.035 A 
HETATM   29  C16 UNL     1      25.242   1.268  52.204  1.00  0.00     0.032 A 
HETATM   30  C17 UNL     1      25.293   0.648  53.444  1.00  0.00     0.046 A 
HETATM   31  C18 UNL     1      26.436   0.565  54.219  1.00  0.00     0.138 A 
HETATM   32  F1  UNL     1      26.453  -0.042  55.418  1.00  0.00    -0.204 F 
HETATM   33  C19 UNL     1      27.584   1.131  53.729  1.00  0.00     0.074 A 
HETATM   34 CL1  UNL     1      29.044   1.044  54.690  1.00  0.00    -0.081 Cl
HETATM   35  C20 UNL     1      27.548   1.756  52.486  1.00  0.00     0.056 A 
ENDBRANCH  26  28
ENDBRANCH  19  26
ENDBRANCH  14  16
ENDBRANCH  11  12
ENDBRANCH   4   5
ENDBRANCH   3   4
TORSDOF 6
ENDMDL
