MODEL 1
REMARK VINA RESULT:      -7.3      0.000      0.000
REMARK  8 active torsions:
REMARK  status: ('A' for Active; 'I' for Inactive)
REMARK    1  A    between atoms: O1_2  and  C2_3 
REMARK    2  A    between atoms: C2_3  and  C3_4 
REMARK    3  A    between atoms: C3_4  and  N1_5 
REMARK    4  A    between atoms: N1_5  and  C5_7 
REMARK    5  A    between atoms: C5_7  and  C6_8 
REMARK    6  A    between atoms: C6_8  and  O2_9 
REMARK    7  A    between atoms: O2_9  and  C7_10 
REMARK    8  A    between atoms: C12_17  and  N4_18 
ROOT
HETATM    1  C7  UNL     1      23.149   0.672  52.502  1.00  0.00     0.075 C 
HETATM    2  C8  UNL     1      23.117   1.793  51.798  1.00  0.00     0.003 C 
HETATM    3  C9  UNL     1      22.355   1.665  50.456  1.00  0.00     0.100 C 
HETATM    4  C10 UNL     1      21.041   1.614  51.288  1.00  0.00     0.040 C 
HETATM    5  N2  UNL     1      20.462   2.807  51.330  1.00  0.00    -0.247 NA
HETATM    6  C11 UNL     1      21.227   3.987  51.900  1.00  0.00     0.229 C 
HETATM    7  N3  UNL     1      22.524   4.124  52.192  1.00  0.00    -0.252 NA
HETATM    8  C12 UNL     1      23.606   3.099  52.195  1.00  0.00     0.246 C 
HETATM    9  C18 UNL     1      20.806   0.296  51.951  1.00  0.00     0.030 C 
HETATM   10  C19 UNL     1      21.918  -0.168  52.599  1.00  0.00     0.039 C 
ENDROOT
BRANCH   1  11
HETATM   11  O2  UNL     1      24.393   0.522  53.037  1.00  0.00    -0.349 OA
BRANCH  11  12
HETATM   12  C6  UNL     1      24.742  -0.560  53.857  1.00  0.00     0.206 C 
BRANCH  12  13
HETATM   13  C5  UNL     1      26.184  -0.406  54.242  1.00  0.00     0.298 C 
BRANCH  13  14
HETATM   14  N1  UNL     1      27.110  -0.608  53.156  1.00  0.00     0.088 N 
HETATM   15  C4  UNL     1      26.975  -1.923  52.563  1.00  0.00     0.310 C 
BRANCH  14  16
HETATM   16  C3  UNL     1      28.451  -0.318  53.573  1.00  0.00     0.298 C 
BRANCH  16  17
HETATM   17  C2  UNL     1      28.532   0.529  54.812  1.00  0.00     0.197 C 
BRANCH  17  18
HETATM   18  O1  UNL     1      29.322   1.657  54.654  1.00  0.00    -0.394 OA
HETATM   19  C1  UNL     1      28.699   2.465  53.685  1.00  0.00     0.201 C 
ENDBRANCH  17  18
ENDBRANCH  16  17
ENDBRANCH  14  16
ENDBRANCH  13  14
ENDBRANCH  12  13
ENDBRANCH  11  12
ENDBRANCH   1  11
BRANCH   8  20
HETATM   20  N4  UNL     1      24.510   3.566  51.137  1.00  0.00    -0.338 N 
HETATM   21  C13 UNL     1      25.728   2.884  50.938  1.00  0.00     0.092 A 
HETATM   22  C14 UNL     1      26.569   3.270  49.997  1.00  0.00     0.033 A 
HETATM   23  C15 UNL     1      26.337   4.415  49.085  1.00  0.00     0.240 A 
HETATM   24  F1  UNL     1      27.417   5.293  49.190  1.00  0.00    -0.239 F 
HETATM   25  C16 UNL     1      25.056   5.089  49.335  1.00  0.00     0.065 A 
HETATM   26 CL1  UNL     1      24.640   6.464  48.334  1.00  0.00    -0.084 Cl
HETATM   27  C17 UNL     1      24.237   4.676  50.286  1.00  0.00     0.115 A 
ENDBRANCH   8  20
TORSDOF 8
ENDMDL
MODEL 2
REMARK VINA RESULT:      -7.0      1.270      1.620
REMARK  8 active torsions:
REMARK  status: ('A' for Active; 'I' for Inactive)
REMARK    1  A    between atoms: O1_2  and  C2_3 
REMARK    2  A    between atoms: C2_3  and  C3_4 
REMARK    3  A    between atoms: C3_4  and  N1_5 
REMARK    4  A    between atoms: N1_5  and  C5_7 
REMARK    5  A    between atoms: C5_7  and  C6_8 
REMARK    6  A    between atoms: C6_8  and  O2_9 
REMARK    7  A    between atoms: O2_9  and  C7_10 
REMARK    8  A    between atoms: C12_17  and  N4_18 
ROOT
HETATM    1  C7  UNL     1      23.308   1.284  52.209  1.00  0.00     0.075 C 
HETATM    2  C8  UNL     1      23.019   2.435  51.623  1.00  0.00     0.003 C 
HETATM    3  C9  UNL     1      22.417   2.279  50.205  1.00  0.00     0.100 C 
HETATM    4  C10 UNL     1      21.112   1.780  50.892  1.00  0.00     0.040 C 
HETATM    5  N2  UNL     1      20.228   2.764  50.996  1.00  0.00    -0.247 NA
HETATM    6  C11 UNL     1      20.599   4.023  51.757  1.00  0.00     0.229 C 
HETATM    7  N3  UNL     1      21.786   4.460  52.189  1.00  0.00    -0.252 NA
HETATM    8  C12 UNL     1      23.104   3.764  52.197  1.00  0.00     0.246 C 
HETATM    9  C18 UNL     1      21.201   0.375  51.391  1.00  0.00     0.030 C 
HETATM   10  C19 UNL     1      22.350   0.144  52.097  1.00  0.00     0.039 C 
ENDROOT
BRANCH   1  11
HETATM   11  O2  UNL     1      24.506   1.402  52.848  1.00  0.00    -0.349 OA
BRANCH  11  12
HETATM   12  C6  UNL     1      25.229   0.296  53.318  1.00  0.00     0.206 C 
BRANCH  12  13
HETATM   13  C5  UNL     1      26.243  -0.074  52.275  1.00  0.00     0.298 C 
BRANCH  13  14
HETATM   14  N1  UNL     1      27.421  -0.719  52.799  1.00  0.00     0.088 N 
HETATM   15  C4  UNL     1      27.337  -2.162  52.708  1.00  0.00     0.310 C 
BRANCH  14  16
HETATM   16  C3  UNL     1      27.700  -0.259  54.128  1.00  0.00     0.298 C 
BRANCH  16  17
HETATM   17  C2  UNL     1      29.061   0.358  54.285  1.00  0.00     0.197 C 
BRANCH  17  18
HETATM   18  O1  UNL     1      29.022   1.664  54.747  1.00  0.00    -0.394 OA
HETATM   19  C1  UNL     1      28.674   2.479  53.655  1.00  0.00     0.201 C 
ENDBRANCH  17  18
ENDBRANCH  16  17
ENDBRANCH  14  16
ENDBRANCH  13  14
ENDBRANCH  12  13
ENDBRANCH  11  12
ENDBRANCH   1  11
BRANCH   8  20
HETATM   20  N4  UNL     1      23.916   4.581  51.288  1.00  0.00    -0.338 N 
HETATM   21  C13 UNL     1      23.541   5.922  51.067  1.00  0.00     0.092 A 
HETATM   22  C14 UNL     1      24.244   6.693  50.257  1.00  0.00     0.033 A 
HETATM   23  C15 UNL     1      25.453   6.253  49.523  1.00  0.00     0.240 A 
HETATM   24  F1  UNL     1      25.258   6.493  48.162  1.00  0.00    -0.239 F 
HETATM   25  C16 UNL     1      25.799   4.850  49.789  1.00  0.00     0.065 A 
HETATM   26 CL1  UNL     1      27.208   4.184  48.989  1.00  0.00    -0.084 Cl
HETATM   27  C17 UNL     1      25.073   4.107  50.604  1.00  0.00     0.115 A 
ENDBRANCH   8  20
TORSDOF 8
ENDMDL
MODEL 3
REMARK VINA RESULT:      -7.0      3.215      4.970
REMARK  8 active torsions:
REMARK  status: ('A' for Active; 'I' for Inactive)
REMARK    1  A    between atoms: O1_2  and  C2_3 
REMARK    2  A    between atoms: C2_3  and  C3_4 
REMARK    3  A    between atoms: C3_4  and  N1_5 
REMARK    4  A    between atoms: N1_5  and  C5_7 
REMARK    5  A    between atoms: C5_7  and  C6_8 
REMARK    6  A    between atoms: C6_8  and  O2_9 
REMARK    7  A    between atoms: O2_9  and  C7_10 
REMARK    8  A    between atoms: C12_17  and  N4_18 
ROOT
HETATM    1  C7  UNL     1      24.374   3.592  50.779  1.00  0.00     0.075 C 
HETATM    2  C8  UNL     1      23.273   3.022  51.241  1.00  0.00     0.003 C 
HETATM    3  C9  UNL     1      22.593   3.815  52.384  1.00  0.00     0.100 C 
HETATM    4  C10 UNL     1      22.152   4.849  51.307  1.00  0.00     0.040 C 
HETATM    5  N2  UNL     1      20.902   4.625  50.922  1.00  0.00    -0.247 NA
HETATM    6  C11 UNL     1      20.535   3.278  50.327  1.00  0.00     0.229 C 
HETATM    7  N3  UNL     1      21.208   2.124  50.307  1.00  0.00    -0.252 NA
HETATM    8  C12 UNL     1      22.609   1.839  50.729  1.00  0.00     0.246 C 
HETATM    9  C18 UNL     1      23.254   5.753  50.862  1.00  0.00     0.030 C 
HETATM   10  C19 UNL     1      24.403   5.070  50.569  1.00  0.00     0.039 C 
ENDROOT
BRANCH   1  11
HETATM   11  O2  UNL     1      25.314   2.628  50.566  1.00  0.00    -0.349 OA
BRANCH  11  12
HETATM   12  C6  UNL     1      26.575   2.648  51.179  1.00  0.00     0.206 C 
BRANCH  12  13
HETATM   13  C5  UNL     1      26.830   1.288  51.762  1.00  0.00     0.298 C 
BRANCH  13  14
HETATM   14  N1  UNL     1      27.081   1.292  53.181  1.00  0.00     0.088 N 
HETATM   15  C4  UNL     1      26.262   2.265  53.876  1.00  0.00     0.310 C 
BRANCH  14  16
HETATM   16  C3  UNL     1      28.481   1.449  53.447  1.00  0.00     0.298 C 
BRANCH  16  17
HETATM   17  C2  UNL     1      29.044   0.409  54.374  1.00  0.00     0.197 C 
BRANCH  17  18
HETATM   18  O1  UNL     1      28.468  -0.841  54.211  1.00  0.00    -0.394 OA
HETATM   19  C1  UNL     1      29.336  -1.593  53.399  1.00  0.00     0.201 C 
ENDBRANCH  17  18
ENDBRANCH  16  17
ENDBRANCH  14  16
ENDBRANCH  13  14
ENDBRANCH  12  13
ENDBRANCH  11  12
ENDBRANCH   1  11
BRANCH   8  20
HETATM   20  N4  UNL     1      22.435   0.914  51.855  1.00  0.00    -0.338 N 
HETATM   21  C13 UNL     1      21.137   0.453  52.158  1.00  0.00     0.092 A 
HETATM   22  C14 UNL     1      20.936  -0.380  53.162  1.00  0.00     0.033 A 
HETATM   23  C15 UNL     1      22.005  -0.901  54.044  1.00  0.00     0.240 A 
HETATM   24  F1  UNL     1      21.673  -0.606  55.367  1.00  0.00    -0.239 F 
HETATM   25  C16 UNL     1      23.335  -0.391  53.686  1.00  0.00     0.065 A 
HETATM   26 CL1  UNL     1      24.704  -0.919  54.642  1.00  0.00    -0.084 Cl
HETATM   27  C17 UNL     1      23.501   0.443  52.675  1.00  0.00     0.115 A 
ENDBRANCH   8  20
TORSDOF 8
ENDMDL
MODEL 4
REMARK VINA RESULT:      -6.9      3.449      5.153
REMARK  8 active torsions:
REMARK  status: ('A' for Active; 'I' for Inactive)
REMARK    1  A    between atoms: O1_2  and  C2_3 
REMARK    2  A    between atoms: C2_3  and  C3_4 
REMARK    3  A    between atoms: C3_4  and  N1_5 
REMARK    4  A    between atoms: N1_5  and  C5_7 
REMARK    5  A    between atoms: C5_7  and  C6_8 
REMARK    6  A    between atoms: C6_8  and  O2_9 
REMARK    7  A    between atoms: O2_9  and  C7_10 
REMARK    8  A    between atoms: C12_17  and  N4_18 
ROOT
HETATM    1  C7  UNL     1      24.147   3.595  51.596  1.00  0.00     0.075 C 
HETATM    2  C8  UNL     1      23.063   2.835  51.583  1.00  0.00     0.003 C 
HETATM    3  C9  UNL     1      21.773   3.583  52.002  1.00  0.00     0.100 C 
HETATM    4  C10 UNL     1      21.834   4.310  50.627  1.00  0.00     0.040 C 
HETATM    5  N2  UNL     1      21.030   3.726  49.748  1.00  0.00    -0.247 NA
HETATM    6  C11 UNL     1      21.233   2.260  49.411  1.00  0.00     0.229 C 
HETATM    7  N3  UNL     1      21.969   1.322  50.016  1.00  0.00    -0.252 NA
HETATM    8  C12 UNL     1      22.952   1.463  51.129  1.00  0.00     0.246 C 
HETATM    9  C18 UNL     1      22.862   5.392  50.570  1.00  0.00     0.030 C 
HETATM   10  C19 UNL     1      24.073   4.988  51.063  1.00  0.00     0.039 C 
ENDROOT
BRANCH   1  11
HETATM   11  O2  UNL     1      25.181   2.881  52.124  1.00  0.00    -0.349 OA
BRANCH  11  12
HETATM   12  C6  UNL     1      26.337   2.566  51.396  1.00  0.00     0.206 C 
BRANCH  12  13
HETATM   13  C5  UNL     1      26.961   1.351  52.017  1.00  0.00     0.298 C 
BRANCH  13  14
HETATM   14  N1  UNL     1      27.348   1.525  53.395  1.00  0.00     0.088 N 
HETATM   15  C4  UNL     1      28.486   2.410  53.534  1.00  0.00     0.310 C 
BRANCH  14  16
HETATM   16  C3  UNL     1      27.547   0.255  54.029  1.00  0.00     0.298 C 
BRANCH  16  17
HETATM   17  C2  UNL     1      27.590  -0.903  53.072  1.00  0.00     0.197 C 
BRANCH  17  18
HETATM   18  O1  UNL     1      28.545  -1.852  53.401  1.00  0.00    -0.394 OA
HETATM   19  C1  UNL     1      29.745  -1.161  53.650  1.00  0.00     0.201 C 
ENDBRANCH  17  18
ENDBRANCH  16  17
ENDBRANCH  14  16
ENDBRANCH  13  14
ENDBRANCH  12  13
ENDBRANCH  11  12
ENDBRANCH   1  11
BRANCH   8  20
HETATM   20  N4  UNL     1      22.337   0.692  52.215  1.00  0.00    -0.338 N 
HETATM   21  C13 UNL     1      23.139   0.305  53.308  1.00  0.00     0.092 A 
HETATM   22  C14 UNL     1      22.625  -0.389  54.308  1.00  0.00     0.033 A 
HETATM   23  C15 UNL     1      21.210  -0.819  54.387  1.00  0.00     0.240 A 
HETATM   24  F1  UNL     1      21.176  -2.204  54.558  1.00  0.00    -0.239 F 
HETATM   25  C16 UNL     1      20.420  -0.391  53.225  1.00  0.00     0.065 A 
HETATM   26 CL1  UNL     1      18.725  -0.827  53.176  1.00  0.00    -0.084 Cl
HETATM   27  C17 UNL     1      20.966   0.302  52.242  1.00  0.00     0.115 A 
ENDBRANCH   8  20
TORSDOF 8
ENDMDL
MODEL 5
REMARK VINA RESULT:      -6.7      1.537      1.938
REMARK  8 active torsions:
REMARK  status: ('A' for Active; 'I' for Inactive)
REMARK    1  A    between atoms: O1_2  and  C2_3 
REMARK    2  A    between atoms: C2_3  and  C3_4 
REMARK    3  A    between atoms: C3_4  and  N1_5 
REMARK    4  A    between atoms: N1_5  and  C5_7 
REMARK    5  A    between atoms: C5_7  and  C6_8 
REMARK    6  A    between atoms: C6_8  and  O2_9 
REMARK    7  A    between atoms: O2_9  and  C7_10 
REMARK    8  A    between atoms: C12_17  and  N4_18 
ROOT
HETATM    1  C7  UNL     1      23.440   1.910  51.012  1.00  0.00     0.075 C 
HETATM    2  C8  UNL     1      23.627   3.110  50.487  1.00  0.00     0.003 C 
HETATM    3  C9  UNL     1      22.983   3.288  49.090  1.00  0.00     0.100 C 
HETATM    4  C10 UNL     1      21.603   3.317  49.809  1.00  0.00     0.040 C 
HETATM    5  N2  UNL     1      21.192   4.566  49.991  1.00  0.00    -0.247 NA
HETATM    6  C11 UNL     1      22.056   5.526  50.788  1.00  0.00     0.229 C 
HETATM    7  N3  UNL     1      23.327   5.425  51.189  1.00  0.00    -0.252 NA
HETATM    8  C12 UNL     1      24.253   4.259  51.113  1.00  0.00     0.246 C 
HETATM    9  C18 UNL     1      21.129   1.969  50.244  1.00  0.00     0.030 C 
HETATM   10  C19 UNL     1      22.102   1.258  50.891  1.00  0.00     0.039 C 
ENDROOT
BRANCH   1  11
HETATM   11  O2  UNL     1      24.596   1.501  51.605  1.00  0.00    -0.349 OA
BRANCH  11  12
HETATM   12  C6  UNL     1      24.689   1.216  52.975  1.00  0.00     0.206 C 
BRANCH  12  13
HETATM   13  C5  UNL     1      24.820  -0.271  53.133  1.00  0.00     0.298 C 
BRANCH  13  14
HETATM   14  N1  UNL     1      26.060  -0.693  53.735  1.00  0.00     0.088 N 
HETATM   15  C4  UNL     1      26.297  -0.043  55.008  1.00  0.00     0.310 C 
BRANCH  14  16
HETATM   16  C3  UNL     1      27.148  -0.533  52.815  1.00  0.00     0.298 C 
BRANCH  16  17
HETATM   17  C2  UNL     1      28.252   0.349  53.326  1.00  0.00     0.197 C 
BRANCH  17  18
HETATM   18  O1  UNL     1      28.295   1.589  52.708  1.00  0.00    -0.394 OA
HETATM   19  C1  UNL     1      28.729   2.517  53.672  1.00  0.00     0.201 C 
ENDBRANCH  17  18
ENDBRANCH  16  17
ENDBRANCH  14  16
ENDBRANCH  13  14
ENDBRANCH  12  13
ENDBRANCH  11  12
ENDBRANCH   1  11
BRANCH   8  20
HETATM   20  N4  UNL     1      25.306   4.730  50.206  1.00  0.00    -0.338 N 
HETATM   21  C13 UNL     1      26.331   3.835  49.837  1.00  0.00     0.092 A 
HETATM   22  C14 UNL     1      27.298   4.217  49.022  1.00  0.00     0.033 A 
HETATM   23  C15 UNL     1      27.407   5.571  48.432  1.00  0.00     0.240 A 
HETATM   24  F1  UNL     1      28.660   6.096  48.753  1.00  0.00    -0.239 F 
HETATM   25  C16 UNL     1      26.316   6.462  48.848  1.00  0.00     0.065 A 
HETATM   26 CL1  UNL     1      26.310   8.101  48.230  1.00  0.00    -0.084 Cl
HETATM   27  C17 UNL     1      25.365   6.047  49.665  1.00  0.00     0.115 A 
ENDBRANCH   8  20
TORSDOF 8
ENDMDL
MODEL 6
REMARK VINA RESULT:      -6.7      1.811      2.396
REMARK  8 active torsions:
REMARK  status: ('A' for Active; 'I' for Inactive)
REMARK    1  A    between atoms: O1_2  and  C2_3 
REMARK    2  A    between atoms: C2_3  and  C3_4 
REMARK    3  A    between atoms: C3_4  and  N1_5 
REMARK    4  A    between atoms: N1_5  and  C5_7 
REMARK    5  A    between atoms: C5_7  and  C6_8 
REMARK    6  A    between atoms: C6_8  and  O2_9 
REMARK    7  A    between atoms: O2_9  and  C7_10 
REMARK    8  A    between atoms: C12_17  and  N4_18 
ROOT
HETATM    1  C7  UNL     1      20.862   0.104  53.203  1.00  0.00     0.075 C 
HETATM    2  C8  UNL     1      20.839   1.069  52.298  1.00  0.00     0.003 C 
HETATM    3  C9  UNL     1      20.173   0.656  50.962  1.00  0.00     0.100 C 
HETATM    4  C10 UNL     1      18.809   0.703  51.711  1.00  0.00     0.040 C 
HETATM    5  N2  UNL     1      18.189   1.855  51.489  1.00  0.00    -0.247 NA
HETATM    6  C11 UNL     1      18.874   3.155  51.867  1.00  0.00     0.229 C 
HETATM    7  N3  UNL     1      20.144   3.404  52.203  1.00  0.00    -0.252 NA
HETATM    8  C12 UNL     1      21.257   2.447  52.466  1.00  0.00     0.246 C 
HETATM    9  C18 UNL     1      18.575  -0.476  52.598  1.00  0.00     0.030 C 
HETATM   10  C19 UNL     1      19.656  -0.758  53.387  1.00  0.00     0.039 C 
ENDROOT
BRANCH   1  11
HETATM   11  O2  UNL     1      22.072   0.114  53.829  1.00  0.00    -0.349 OA
BRANCH  11  12
HETATM   12  C6  UNL     1      23.135  -0.714  53.443  1.00  0.00     0.206 C 
BRANCH  12  13
HETATM   13  C5  UNL     1      24.237  -0.559  54.451  1.00  0.00     0.298 C 
BRANCH  13  14
HETATM   14  N1  UNL     1      25.426   0.072  53.933  1.00  0.00     0.088 N 
HETATM   15  C4  UNL     1      25.924  -0.597  52.749  1.00  0.00     0.310 C 
BRANCH  14  16
HETATM   16  C3  UNL     1      26.417   0.202  54.960  1.00  0.00     0.298 C 
BRANCH  16  17
HETATM   17  C2  UNL     1      27.800   0.474  54.439  1.00  0.00     0.197 C 
BRANCH  17  18
HETATM   18  O1  UNL     1      28.732  -0.471  54.839  1.00  0.00    -0.394 OA
HETATM   19  C1  UNL     1      29.645  -0.625  53.780  1.00  0.00     0.201 C 
ENDBRANCH  17  18
ENDBRANCH  16  17
ENDBRANCH  14  16
ENDBRANCH  13  14
ENDBRANCH  12  13
ENDBRANCH  11  12
ENDBRANCH   1  11
BRANCH   8  20
HETATM   20  N4  UNL     1      22.213   2.747  51.393  1.00  0.00    -0.338 N 
HETATM   21  C13 UNL     1      23.533   2.266  51.509  1.00  0.00     0.092 A 
HETATM   22  C14 UNL     1      24.425   2.512  50.566  1.00  0.00     0.033 A 
HETATM   23  C15 UNL     1      24.148   3.287  49.335  1.00  0.00     0.240 A 
HETATM   24  F1  UNL     1      25.064   4.337  49.256  1.00  0.00    -0.239 F 
HETATM   25  C16 UNL     1      22.760   3.764  49.264  1.00  0.00     0.065 A 
HETATM   26 CL1  UNL     1      22.282   4.699  47.863  1.00  0.00    -0.084 Cl
HETATM   27  C17 UNL     1      21.894   3.500  50.226  1.00  0.00     0.115 A 
ENDBRANCH   8  20
TORSDOF 8
ENDMDL
MODEL 7
REMARK VINA RESULT:      -6.6      1.888      3.127
REMARK  8 active torsions:
REMARK  status: ('A' for Active; 'I' for Inactive)
REMARK    1  A    between atoms: O1_2  and  C2_3 
REMARK    2  A    between atoms: C2_3  and  C3_4 
REMARK    3  A    between atoms: C3_4  and  N1_5 
REMARK    4  A    between atoms: N1_5  and  C5_7 
REMARK    5  A    between atoms: C5_7  and  C6_8 
REMARK    6  A    between atoms: C6_8  and  O2_9 
REMARK    7  A    between atoms: O2_9  and  C7_10 
REMARK    8  A    between atoms: C12_17  and  N4_18 
ROOT
HETATM    1  C7  UNL     1      23.849   1.919  51.461  1.00  0.00     0.075 C 
HETATM    2  C8  UNL     1      23.887   3.025  50.736  1.00  0.00     0.003 C 
HETATM    3  C9  UNL     1      23.329   2.850  49.302  1.00  0.00     0.100 C 
HETATM    4  C10 UNL     1      21.911   2.775  49.940  1.00  0.00     0.040 C 
HETATM    5  N2  UNL     1      21.301   3.951  49.872  1.00  0.00    -0.247 NA
HETATM    6  C11 UNL     1      21.944   5.163  50.519  1.00  0.00     0.229 C 
HETATM    7  N3  UNL     1      23.182   5.344  50.989  1.00  0.00    -0.252 NA
HETATM    8  C12 UNL     1      24.280   4.351  51.169  1.00  0.00     0.246 C 
HETATM    9  C18 UNL     1      21.620   1.463  50.591  1.00  0.00     0.030 C 
HETATM   10  C19 UNL     1      22.640   1.044  51.402  1.00  0.00     0.039 C 
ENDROOT
BRANCH   1  11
HETATM   11  O2  UNL     1      25.007   1.815  52.171  1.00  0.00    -0.349 OA
BRANCH  11  12
HETATM   12  C6  UNL     1      25.992   0.860  51.884  1.00  0.00     0.206 C 
BRANCH  12  13
HETATM   13  C5  UNL     1      25.792  -0.308  52.806  1.00  0.00     0.298 C 
BRANCH  13  14
HETATM   14  N1  UNL     1      25.628   0.056  54.192  1.00  0.00     0.088 N 
HETATM   15  C4  UNL     1      26.900   0.237  54.860  1.00  0.00     0.310 C 
BRANCH  14  16
HETATM   16  C3  UNL     1      24.773  -0.879  54.862  1.00  0.00     0.298 C 
BRANCH  16  17
HETATM   17  C2  UNL     1      23.339  -0.817  54.419  1.00  0.00     0.197 C 
BRANCH  17  18
HETATM   18  O1  UNL     1      22.489  -1.581  55.204  1.00  0.00    -0.394 OA
HETATM   19  C1  UNL     1      21.260  -1.664  54.523  1.00  0.00     0.201 C 
ENDBRANCH  17  18
ENDBRANCH  16  17
ENDBRANCH  14  16
ENDBRANCH  13  14
ENDBRANCH  12  13
ENDBRANCH  11  12
ENDBRANCH   1  11
BRANCH   8  20
HETATM   20  N4  UNL     1      25.312   4.826  50.240  1.00  0.00    -0.338 N 
HETATM   21  C13 UNL     1      26.332   3.934  49.849  1.00  0.00     0.092 A 
HETATM   22  C14 UNL     1      27.280   4.320  49.014  1.00  0.00     0.033 A 
HETATM   23  C15 UNL     1      27.373   5.674  48.422  1.00  0.00     0.240 A 
HETATM   24  F1  UNL     1      28.631   6.203  48.717  1.00  0.00    -0.239 F 
HETATM   25  C16 UNL     1      26.288   6.562  48.862  1.00  0.00     0.065 A 
HETATM   26 CL1  UNL     1      26.264   8.200  48.245  1.00  0.00    -0.084 Cl
HETATM   27  C17 UNL     1      25.356   6.143  49.699  1.00  0.00     0.115 A 
ENDBRANCH   8  20
TORSDOF 8
ENDMDL
MODEL 8
REMARK VINA RESULT:      -6.6      3.651      5.261
REMARK  8 active torsions:
REMARK  status: ('A' for Active; 'I' for Inactive)
REMARK    1  A    between atoms: O1_2  and  C2_3 
REMARK    2  A    between atoms: C2_3  and  C3_4 
REMARK    3  A    between atoms: C3_4  and  N1_5 
REMARK    4  A    between atoms: N1_5  and  C5_7 
REMARK    5  A    between atoms: C5_7  and  C6_8 
REMARK    6  A    between atoms: C6_8  and  O2_9 
REMARK    7  A    between atoms: O2_9  and  C7_10 
REMARK    8  A    between atoms: C12_17  and  N4_18 
ROOT
HETATM    1  C7  UNL     1      23.531   3.473  52.242  1.00  0.00     0.075 C 
HETATM    2  C8  UNL     1      22.461   2.840  51.788  1.00  0.00     0.003 C 
HETATM    3  C9  UNL     1      21.190   3.723  51.735  1.00  0.00     0.100 C 
HETATM    4  C10 UNL     1      21.835   4.454  50.521  1.00  0.00     0.040 C 
HETATM    5  N2  UNL     1      21.365   3.973  49.377  1.00  0.00    -0.247 NA
HETATM    6  C11 UNL     1      21.532   2.497  49.064  1.00  0.00     0.229 C 
HETATM    7  N3  UNL     1      21.889   1.476  49.850  1.00  0.00    -0.252 NA
HETATM    8  C12 UNL     1      22.391   1.494  51.254  1.00  0.00     0.246 C 
HETATM    9  C18 UNL     1      22.912   5.414  50.906  1.00  0.00     0.030 C 
HETATM   10  C19 UNL     1      23.802   4.871  51.793  1.00  0.00     0.039 C 
ENDROOT
BRANCH   1  11
HETATM   11  O2  UNL     1      24.214   2.642  53.078  1.00  0.00    -0.349 OA
BRANCH  11  12
HETATM   12  C6  UNL     1      25.580   2.367  52.928  1.00  0.00     0.206 C 
BRANCH  12  13
HETATM   13  C5  UNL     1      25.934   1.243  53.857  1.00  0.00     0.298 C 
BRANCH  13  14
HETATM   14  N1  UNL     1      25.458  -0.049  53.428  1.00  0.00     0.088 N 
HETATM   15  C4  UNL     1      24.886  -0.809  54.520  1.00  0.00     0.310 C 
BRANCH  14  16
HETATM   16  C3  UNL     1      26.488  -0.761  52.731  1.00  0.00     0.298 C 
BRANCH  16  17
HETATM   17  C2  UNL     1      27.880  -0.393  53.160  1.00  0.00     0.197 C 
BRANCH  17  18
HETATM   18  O1  UNL     1      28.577  -1.450  53.725  1.00  0.00    -0.394 OA
HETATM   19  C1  UNL     1      29.942  -1.109  53.692  1.00  0.00     0.201 C 
ENDBRANCH  17  18
ENDBRANCH  16  17
ENDBRANCH  14  16
ENDBRANCH  13  14
ENDBRANCH  12  13
ENDBRANCH  11  12
ENDBRANCH   1  11
BRANCH   8  20
HETATM   20  N4  UNL     1      21.339   0.785  51.991  1.00  0.00    -0.338 N 
HETATM   21  C13 UNL     1      21.588   0.405  53.326  1.00  0.00     0.092 A 
HETATM   22  C14 UNL     1      20.669  -0.233  54.027  1.00  0.00     0.033 A 
HETATM   23  C15 UNL     1      19.331  -0.605  53.510  1.00  0.00     0.240 A 
HETATM   24  F1  UNL     1      19.159  -1.980  53.671  1.00  0.00    -0.239 F 
HETATM   25  C16 UNL     1      19.124  -0.186  52.117  1.00  0.00     0.065 A 
HETATM   26 CL1  UNL     1      17.587  -0.556  51.366  1.00  0.00    -0.084 Cl
HETATM   27  C17 UNL     1      20.067   0.451  51.445  1.00  0.00     0.115 A 
ENDBRANCH   8  20
TORSDOF 8
ENDMDL
MODEL 9
REMARK VINA RESULT:      -6.4      2.456      3.569
REMARK  8 active torsions:
REMARK  status: ('A' for Active; 'I' for Inactive)
REMARK    1  A    between atoms: O1_2  and  C2_3 
REMARK    2  A    between atoms: C2_3  and  C3_4 
REMARK    3  A    between atoms: C3_4  and  N1_5 
REMARK    4  A    between atoms: N1_5  and  C5_7 
REMARK    5  A    between atoms: C5_7  and  C6_8 
REMARK    6  A    between atoms: C6_8  and  O2_9 
REMARK    7  A    between atoms: O2_9  and  C7_10 
REMARK    8  A    between atoms: C12_17  and  N4_18 
ROOT
HETATM    1  C7  UNL     1      20.124   0.560  52.808  1.00  0.00     0.075 C 
HETATM    2  C8  UNL     1      19.868   1.514  51.928  1.00  0.00     0.003 C 
HETATM    3  C9  UNL     1      19.336   0.985  50.573  1.00  0.00     0.100 C 
HETATM    4  C10 UNL     1      17.997   0.670  51.303  1.00  0.00     0.040 C 
HETATM    5  N2  UNL     1      17.111   1.637  51.102  1.00  0.00    -0.247 NA
HETATM    6  C11 UNL     1      17.448   3.056  51.523  1.00  0.00     0.229 C 
HETATM    7  N3  UNL     1      18.613   3.603  51.882  1.00  0.00    -0.252 NA
HETATM    8  C12 UNL     1      19.928   2.947  52.136  1.00  0.00     0.246 C 
HETATM    9  C18 UNL     1      18.058  -0.554  52.157  1.00  0.00     0.030 C 
HETATM   10  C19 UNL     1      19.170  -0.580  52.954  1.00  0.00     0.039 C 
ENDROOT
BRANCH   1  11
HETATM   11  O2  UNL     1      21.289   0.854  53.452  1.00  0.00    -0.349 OA
BRANCH  11  12
HETATM   12  C6  UNL     1      22.050  -0.112  54.125  1.00  0.00     0.206 C 
BRANCH  12  13
HETATM   13  C5  UNL     1      23.203  -0.494  53.243  1.00  0.00     0.298 C 
BRANCH  13  14
HETATM   14  N1  UNL     1      24.466   0.075  53.643  1.00  0.00     0.088 N 
HETATM   15  C4  UNL     1      24.693   1.372  53.040  1.00  0.00     0.310 C 
BRANCH  14  16
HETATM   16  C3  UNL     1      25.535  -0.848  53.401  1.00  0.00     0.298 C 
BRANCH  16  17
HETATM   17  C2  UNL     1      26.904  -0.246  53.550  1.00  0.00     0.197 C 
BRANCH  17  18
HETATM   18  O1  UNL     1      27.419  -0.363  54.832  1.00  0.00    -0.394 OA
HETATM   19  C1  UNL     1      28.727   0.153  54.800  1.00  0.00     0.201 C 
ENDBRANCH  17  18
ENDBRANCH  16  17
ENDBRANCH  14  16
ENDBRANCH  13  14
ENDBRANCH  12  13
ENDBRANCH  11  12
ENDBRANCH   1  11
BRANCH   8  20
HETATM   20  N4  UNL     1      20.786   3.506  51.085  1.00  0.00    -0.338 N 
HETATM   21  C13 UNL     1      20.239   4.459  50.200  1.00  0.00     0.092 A 
HETATM   22  C14 UNL     1      20.976   4.987  49.241  1.00  0.00     0.033 A 
HETATM   23  C15 UNL     1      22.398   4.652  48.997  1.00  0.00     0.240 A 
HETATM   24  F1  UNL     1      22.535   4.232  47.673  1.00  0.00    -0.239 F 
HETATM   25  C16 UNL     1      22.917   3.657  49.945  1.00  0.00     0.065 A 
HETATM   26 CL1  UNL     1      24.588   3.159  49.782  1.00  0.00    -0.084 Cl
HETATM   27  C17 UNL     1      22.151   3.148  50.893  1.00  0.00     0.115 A 
ENDBRANCH   8  20
TORSDOF 8
ENDMDL
