MODEL 1
REMARK VINA RESULT:      -7.9      0.000      0.000
REMARK  3 active torsions:
REMARK  status: ('A' for Active; 'I' for Inactive)
REMARK    1  A    between atoms: C2_2  and  N1_3 
REMARK    2  A    between atoms: C7_10  and  O1_11 
REMARK    3  A    between atoms: C15_19  and  C16_20 
ROOT
HETATM    1  N1  UNL     1      25.742   3.822  50.623  1.00  0.00    -0.273 N 
HETATM    2  N2  UNL     1      26.776   2.921  50.890  1.00  0.00    -0.169 NA
HETATM    3  C3  UNL     1      26.714   1.809  51.498  1.00  0.00     0.215 C 
HETATM    4  N3  UNL     1      25.690   1.061  52.109  1.00  0.00    -0.398 NA
HETATM    5  C4  UNL     1      25.608  -0.113  52.517  1.00  0.00     0.326 C 
HETATM    6  C5  UNL     1      24.307  -0.587  53.128  1.00  0.00     0.001 C 
HETATM    7  C6  UNL     1      23.051  -0.426  53.595  1.00  0.00     0.003 C 
HETATM    8  C7  UNL     1      22.108   0.657  53.770  1.00  0.00     0.144 C 
HETATM    9  C9  UNL     1      21.443   1.300  52.616  1.00  0.00     0.051 C 
HETATM   10  C10 UNL     1      22.408   1.953  51.645  1.00  0.00     0.008 A 
HETATM   11  C11 UNL     1      23.057   2.662  52.629  1.00  0.00    -0.013 A 
HETATM   12  C12 UNL     1      24.208   3.409  52.540  1.00  0.00     0.024 A 
HETATM   13  C13 UNL     1      24.573   3.279  51.219  1.00  0.00     0.036 A 
HETATM   14  C14 UNL     1      23.581   2.506  50.795  1.00  0.00     0.070 A 
HETATM   15  C15 UNL     1      22.650   1.744  50.257  1.00  0.00     0.097 A 
ENDROOT
BRANCH  15  16
HETATM   16  C16 UNL     1      21.556   0.897  49.829  1.00  0.00     0.398 C 
HETATM   17  F1  UNL     1      20.382   1.669  49.852  1.00  0.00    -0.170 F 
HETATM   18  F2  UNL     1      21.695   0.590  48.463  1.00  0.00    -0.170 F 
HETATM   19  F3  UNL     1      21.386  -0.267  50.526  1.00  0.00    -0.170 F 
ENDBRANCH  15  16
BRANCH   8  20
HETATM   20  O1  UNL     1      21.054   0.184  54.614  1.00  0.00    -0.387 OA
HETATM   21  C8  UNL     1      20.719  -1.094  54.135  1.00  0.00     0.202 C 
ENDBRANCH   8  20
BRANCH   1  22
HETATM   22  C2  UNL     1      25.415   5.091  50.040  1.00  0.00     0.147 C 
HETATM   23  C1  UNL     1      26.451   5.387  48.951  1.00  0.00     0.028 C 
ENDBRANCH   1  22
TORSDOF 3
ENDMDL
MODEL 2
REMARK VINA RESULT:      -7.6      2.365      3.698
REMARK  3 active torsions:
REMARK  status: ('A' for Active; 'I' for Inactive)
REMARK    1  A    between atoms: C2_2  and  N1_3 
REMARK    2  A    between atoms: C7_10  and  O1_11 
REMARK    3  A    between atoms: C15_19  and  C16_20 
ROOT
HETATM    1  N1  UNL     1      25.246   3.846  50.321  1.00  0.00    -0.273 N 
HETATM    2  N2  UNL     1      24.700   5.035  50.809  1.00  0.00    -0.169 NA
HETATM    3  C3  UNL     1      23.540   5.232  51.285  1.00  0.00     0.215 C 
HETATM    4  N3  UNL     1      22.405   4.431  51.511  1.00  0.00    -0.398 NA
HETATM    5  C4  UNL     1      21.355   4.592  52.162  1.00  0.00     0.326 C 
HETATM    6  C5  UNL     1      20.331   3.477  52.186  1.00  0.00     0.001 C 
HETATM    7  C6  UNL     1      19.817   2.287  51.810  1.00  0.00     0.003 C 
HETATM    8  C7  UNL     1      20.157   1.218  50.897  1.00  0.00     0.144 C 
HETATM    9  C9  UNL     1      21.295   0.309  51.156  1.00  0.00     0.051 C 
HETATM   10  C10 UNL     1      22.634   1.018  51.233  1.00  0.00     0.008 A 
HETATM   11  C11 UNL     1      22.455   1.675  50.039  1.00  0.00    -0.013 A 
HETATM   12  C12 UNL     1      23.218   2.672  49.477  1.00  0.00     0.024 A 
HETATM   13  C13 UNL     1      24.219   2.869  50.402  1.00  0.00     0.036 A 
HETATM   14  C14 UNL     1      23.862   1.963  51.304  1.00  0.00     0.070 A 
HETATM   15  C15 UNL     1      23.611   1.098  52.267  1.00  0.00     0.097 A 
ENDROOT
BRANCH  15  16
HETATM   16  C16 UNL     1      23.190   0.102  53.231  1.00  0.00     0.398 C 
HETATM   17  F1  UNL     1      24.210  -0.023  54.189  1.00  0.00    -0.170 F 
HETATM   18  F2  UNL     1      22.115   0.597  53.990  1.00  0.00    -0.170 F 
HETATM   19  F3  UNL     1      22.846  -1.120  52.724  1.00  0.00    -0.170 F 
ENDBRANCH  15  16
BRANCH   8  20
HETATM   20  O1  UNL     1      19.008   0.377  50.764  1.00  0.00    -0.387 OA
HETATM   21  C8  UNL     1      18.731  -0.107  52.053  1.00  0.00     0.202 C 
ENDBRANCH   8  20
BRANCH   1  22
HETATM   22  C2  UNL     1      26.404   3.247  49.722  1.00  0.00     0.147 C 
HETATM   23  C1  UNL     1      27.186   4.353  49.007  1.00  0.00     0.028 C 
ENDBRANCH   1  22
TORSDOF 3
ENDMDL
MODEL 3
REMARK VINA RESULT:      -7.4      2.856      4.701
REMARK  3 active torsions:
REMARK  status: ('A' for Active; 'I' for Inactive)
REMARK    1  A    between atoms: C2_2  and  N1_3 
REMARK    2  A    between atoms: C7_10  and  O1_11 
REMARK    3  A    between atoms: C15_19  and  C16_20 
ROOT
HETATM    1  N1  UNL     1      21.610   3.777  51.179  1.00  0.00    -0.273 N 
HETATM    2  N2  UNL     1      22.176   3.938  49.912  1.00  0.00    -0.169 NA
HETATM    3  C3  UNL     1      23.369   3.704  49.547  1.00  0.00     0.215 C 
HETATM    4  N3  UNL     1      24.532   3.230  50.182  1.00  0.00    -0.398 NA
HETATM    5  C4  UNL     1      25.631   2.816  49.766  1.00  0.00     0.326 C 
HETATM    6  C5  UNL     1      26.671   2.367  50.770  1.00  0.00     0.001 C 
HETATM    7  C6  UNL     1      27.171   2.194  52.012  1.00  0.00     0.003 C 
HETATM    8  C7  UNL     1      26.771   2.481  53.372  1.00  0.00     0.144 C 
HETATM    9  C9  UNL     1      25.675   1.739  54.032  1.00  0.00     0.051 C 
HETATM   10  C10 UNL     1      24.336   1.885  53.334  1.00  0.00     0.008 A 
HETATM   11  C11 UNL     1      24.402   3.259  53.304  1.00  0.00    -0.013 A 
HETATM   12  C12 UNL     1      23.578   4.150  52.659  1.00  0.00     0.024 A 
HETATM   13  C13 UNL     1      22.656   3.340  52.034  1.00  0.00     0.036 A 
HETATM   14  C14 UNL     1      23.103   2.156  52.433  1.00  0.00     0.070 A 
HETATM   15  C15 UNL     1      23.449   0.928  52.764  1.00  0.00     0.097 A 
ENDROOT
BRANCH  15  16
HETATM   16  C16 UNL     1      23.967  -0.348  53.214  1.00  0.00     0.398 C 
HETATM   17  F1  UNL     1      23.128  -1.354  52.706  1.00  0.00    -0.170 F 
HETATM   18  F2  UNL     1      25.192  -0.618  52.577  1.00  0.00    -0.170 F 
HETATM   19  F3  UNL     1      24.133  -0.489  54.564  1.00  0.00    -0.170 F 
ENDBRANCH  15  16
BRANCH   8  20
HETATM   20  O1  UNL     1      27.919   2.307  54.208  1.00  0.00    -0.387 OA
HETATM   21  C8  UNL     1      28.423   1.029  53.912  1.00  0.00     0.202 C 
ENDBRANCH   8  20
BRANCH   1  22
HETATM   22  C2  UNL     1      20.415   3.934  51.958  1.00  0.00     0.147 C 
HETATM   23  C1  UNL     1      19.610   2.636  51.847  1.00  0.00     0.028 C 
ENDBRANCH   1  22
TORSDOF 3
ENDMDL
MODEL 4
REMARK VINA RESULT:      -7.4      1.598      2.176
REMARK  3 active torsions:
REMARK  status: ('A' for Active; 'I' for Inactive)
REMARK    1  A    between atoms: C2_2  and  N1_3 
REMARK    2  A    between atoms: C7_10  and  O1_11 
REMARK    3  A    between atoms: C15_19  and  C16_20 
ROOT
HETATM    1  N1  UNL     1      26.386   4.093  49.888  1.00  0.00    -0.273 N 
HETATM    2  N2  UNL     1      27.024   3.151  50.698  1.00  0.00    -0.169 NA
HETATM    3  C3  UNL     1      26.499   2.311  51.492  1.00  0.00     0.215 C 
HETATM    4  N3  UNL     1      25.184   1.984  51.872  1.00  0.00    -0.398 NA
HETATM    5  C4  UNL     1      24.680   1.028  52.492  1.00  0.00     0.326 C 
HETATM    6  C5  UNL     1      23.183   1.006  52.713  1.00  0.00     0.001 C 
HETATM    7  C6  UNL     1      21.938   1.525  52.669  1.00  0.00     0.003 C 
HETATM    8  C7  UNL     1      21.309   2.758  52.249  1.00  0.00     0.144 C 
HETATM    9  C9  UNL     1      21.190   3.121  50.820  1.00  0.00     0.051 C 
HETATM   10  C10 UNL     1      22.525   3.258  50.114  1.00  0.00     0.008 A 
HETATM   11  C11 UNL     1      23.040   4.109  51.064  1.00  0.00    -0.013 A 
HETATM   12  C12 UNL     1      24.327   4.574  51.202  1.00  0.00     0.024 A 
HETATM   13  C13 UNL     1      24.996   3.979  50.157  1.00  0.00     0.036 A 
HETATM   14  C14 UNL     1      23.993   3.303  49.613  1.00  0.00     0.070 A 
HETATM   15  C15 UNL     1      23.079   2.590  48.984  1.00  0.00     0.097 A 
ENDROOT
BRANCH  15  16
HETATM   16  C16 UNL     1      21.962   1.861  48.420  1.00  0.00     0.398 C 
HETATM   17  F1  UNL     1      22.430   1.165  47.293  1.00  0.00    -0.170 F 
HETATM   18  F2  UNL     1      21.582   0.822  49.288  1.00  0.00    -0.170 F 
HETATM   19  F3  UNL     1      20.855   2.601  48.109  1.00  0.00    -0.170 F 
ENDBRANCH  15  16
BRANCH   8  20
HETATM   20  O1  UNL     1      19.976   2.766  52.766  1.00  0.00    -0.387 OA
HETATM   21  C8  UNL     1      19.231   1.918  51.929  1.00  0.00     0.202 C 
ENDBRANCH   8  20
BRANCH   1  22
HETATM   22  C2  UNL     1      26.587   5.157  48.946  1.00  0.00     0.147 C 
HETATM   23  C1  UNL     1      28.055   5.122  48.507  1.00  0.00     0.028 C 
ENDBRANCH   1  22
TORSDOF 3
ENDMDL
MODEL 5
REMARK VINA RESULT:      -7.3      2.019      3.240
REMARK  3 active torsions:
REMARK  status: ('A' for Active; 'I' for Inactive)
REMARK    1  A    between atoms: C2_2  and  N1_3 
REMARK    2  A    between atoms: C7_10  and  O1_11 
REMARK    3  A    between atoms: C15_19  and  C16_20 
ROOT
HETATM    1  N1  UNL     1      25.961   1.308  52.394  1.00  0.00    -0.273 N 
HETATM    2  N2  UNL     1      25.629   0.079  52.968  1.00  0.00    -0.169 NA
HETATM    3  C3  UNL     1      24.474  -0.401  53.187  1.00  0.00     0.215 C 
HETATM    4  N3  UNL     1      23.154   0.038  52.976  1.00  0.00    -0.398 NA
HETATM    5  C4  UNL     1      22.044  -0.526  53.009  1.00  0.00     0.326 C 
HETATM    6  C5  UNL     1      20.801   0.284  52.710  1.00  0.00     0.001 C 
HETATM    7  C6  UNL     1      20.121   1.422  52.457  1.00  0.00     0.003 C 
HETATM    8  C7  UNL     1      20.411   2.834  52.333  1.00  0.00     0.144 C 
HETATM    9  C9  UNL     1      21.158   3.374  51.177  1.00  0.00     0.051 C 
HETATM   10  C10 UNL     1      22.560   2.810  51.041  1.00  0.00     0.008 A 
HETATM   11  C11 UNL     1      22.893   3.088  52.346  1.00  0.00    -0.013 A 
HETATM   12  C12 UNL     1      24.012   2.712  53.051  1.00  0.00     0.024 A 
HETATM   13  C13 UNL     1      24.735   1.977  52.139  1.00  0.00     0.036 A 
HETATM   14  C14 UNL     1      23.922   2.070  51.094  1.00  0.00     0.070 A 
HETATM   15  C15 UNL     1      23.201   2.093  49.990  1.00  0.00     0.097 A 
ENDROOT
BRANCH  15  16
HETATM   16  C16 UNL     1      22.288   2.210  48.872  1.00  0.00     0.398 C 
HETATM   17  F1  UNL     1      22.959   1.759  47.723  1.00  0.00    -0.170 F 
HETATM   18  F2  UNL     1      21.245   1.276  49.006  1.00  0.00    -0.170 F 
HETATM   19  F3  UNL     1      21.746   3.448  48.664  1.00  0.00    -0.170 F 
ENDBRANCH  15  16
BRANCH   8  20
HETATM   20  O1  UNL     1      19.166   3.538  52.357  1.00  0.00    -0.387 OA
HETATM   21  C8  UNL     1      18.893   3.887  51.023  1.00  0.00     0.202 C 
ENDBRANCH   8  20
BRANCH   1  22
HETATM   22  C2  UNL     1      27.043   2.173  52.021  1.00  0.00     0.147 C 
HETATM   23  C1  UNL     1      27.995   2.275  53.218  1.00  0.00     0.028 C 
ENDBRANCH   1  22
TORSDOF 3
ENDMDL
MODEL 6
REMARK VINA RESULT:      -7.3      3.339      5.840
REMARK  3 active torsions:
REMARK  status: ('A' for Active; 'I' for Inactive)
REMARK    1  A    between atoms: C2_2  and  N1_3 
REMARK    2  A    between atoms: C7_10  and  O1_11 
REMARK    3  A    between atoms: C15_19  and  C16_20 
ROOT
HETATM    1  N1  UNL     1      20.958   0.440  52.934  1.00  0.00    -0.273 N 
HETATM    2  N2  UNL     1      20.362   0.179  51.698  1.00  0.00    -0.169 NA
HETATM    3  C3  UNL     1      20.694   0.621  50.556  1.00  0.00     0.215 C 
HETATM    4  N3  UNL     1      21.699   1.479  50.070  1.00  0.00    -0.398 NA
HETATM    5  C4  UNL     1      22.133   1.737  48.932  1.00  0.00     0.326 C 
HETATM    6  C5  UNL     1      23.263   2.735  48.788  1.00  0.00     0.001 C 
HETATM    7  C6  UNL     1      24.133   3.662  49.239  1.00  0.00     0.003 C 
HETATM    8  C7  UNL     1      24.442   4.316  50.492  1.00  0.00     0.144 C 
HETATM    9  C9  UNL     1      25.094   3.593  51.605  1.00  0.00     0.051 C 
HETATM   10  C10 UNL     1      24.288   2.416  52.120  1.00  0.00     0.008 A 
HETATM   11  C11 UNL     1      23.140   3.158  52.277  1.00  0.00    -0.013 A 
HETATM   12  C12 UNL     1      21.868   2.731  52.579  1.00  0.00     0.024 A 
HETATM   13  C13 UNL     1      22.007   1.365  52.688  1.00  0.00     0.036 A 
HETATM   14  C14 UNL     1      23.306   1.259  52.443  1.00  0.00     0.070 A 
HETATM   15  C15 UNL     1      24.585   1.027  52.217  1.00  0.00     0.097 A 
ENDROOT
BRANCH  15  16
HETATM   16  C16 UNL     1      26.004   0.947  51.941  1.00  0.00     0.398 C 
HETATM   17  F1  UNL     1      26.688   1.414  53.076  1.00  0.00    -0.170 F 
HETATM   18  F2  UNL     1      26.403  -0.400  51.875  1.00  0.00    -0.170 F 
HETATM   19  F3  UNL     1      26.436   1.590  50.814  1.00  0.00    -0.170 F 
ENDBRANCH  15  16
BRANCH   8  20
HETATM   20  O1  UNL     1      25.288   5.433  50.203  1.00  0.00    -0.387 OA
HETATM   21  C8  UNL     1      26.229   4.973  49.265  1.00  0.00     0.202 C 
ENDBRANCH   8  20
BRANCH   1  22
HETATM   22  C2  UNL     1      20.888   0.189  54.345  1.00  0.00     0.147 C 
HETATM   23  C1  UNL     1      21.554  -1.165  54.613  1.00  0.00     0.028 C 
ENDBRANCH   1  22
TORSDOF 3
ENDMDL
MODEL 7
REMARK VINA RESULT:      -6.7      2.739      4.381
REMARK  3 active torsions:
REMARK  status: ('A' for Active; 'I' for Inactive)
REMARK    1  A    between atoms: C2_2  and  N1_3 
REMARK    2  A    between atoms: C7_10  and  O1_11 
REMARK    3  A    between atoms: C15_19  and  C16_20 
ROOT
HETATM    1  N1  UNL     1      25.765   0.517  53.608  1.00  0.00    -0.273 N 
HETATM    2  N2  UNL     1      26.162   1.760  54.108  1.00  0.00    -0.169 NA
HETATM    3  C3  UNL     1      25.605   2.888  53.944  1.00  0.00     0.215 C 
HETATM    4  N3  UNL     1      24.462   3.348  53.263  1.00  0.00    -0.398 NA
HETATM    5  C4  UNL     1      23.821   4.416  53.283  1.00  0.00     0.326 C 
HETATM    6  C5  UNL     1      22.602   4.554  52.396  1.00  0.00     0.001 C 
HETATM    7  C6  UNL     1      21.744   4.154  51.434  1.00  0.00     0.003 C 
HETATM    8  C7  UNL     1      21.598   3.031  50.534  1.00  0.00     0.144 C 
HETATM    9  C9  UNL     1      21.209   1.691  51.024  1.00  0.00     0.051 C 
HETATM   10  C10 UNL     1      22.188   1.098  52.019  1.00  0.00     0.008 A 
HETATM   11  C11 UNL     1      23.278   1.314  51.208  1.00  0.00    -0.013 A 
HETATM   12  C12 UNL     1      24.614   1.168  51.498  1.00  0.00     0.024 A 
HETATM   13  C13 UNL     1      24.614   0.754  52.810  1.00  0.00     0.036 A 
HETATM   14  C14 UNL     1      23.305   0.727  53.029  1.00  0.00     0.070 A 
HETATM   15  C15 UNL     1      22.032   0.661  53.365  1.00  0.00     0.097 A 
ENDROOT
BRANCH  15  16
HETATM   16  C16 UNL     1      20.598   0.648  53.570  1.00  0.00     0.398 C 
HETATM   17  F1  UNL     1      20.364   0.457  54.942  1.00  0.00    -0.170 F 
HETATM   18  F2  UNL     1      20.072   1.932  53.344  1.00  0.00    -0.170 F 
HETATM   19  F3  UNL     1      19.891  -0.254  52.825  1.00  0.00    -0.170 F 
ENDBRANCH  15  16
BRANCH   8  20
HETATM   20  O1  UNL     1      20.622   3.386  49.550  1.00  0.00    -0.387 OA
HETATM   21  C8  UNL     1      19.693   2.332  49.529  1.00  0.00     0.202 C 
ENDBRANCH   8  20
BRANCH   1  22
HETATM   22  C2  UNL     1      26.094  -0.878  53.538  1.00  0.00     0.147 C 
HETATM   23  C1  UNL     1      27.412  -1.009  52.768  1.00  0.00     0.028 C 
ENDBRANCH   1  22
TORSDOF 3
ENDMDL
MODEL 8
REMARK VINA RESULT:      -6.6      3.545      5.001
REMARK  3 active torsions:
REMARK  status: ('A' for Active; 'I' for Inactive)
REMARK    1  A    between atoms: C2_2  and  N1_3 
REMARK    2  A    between atoms: C7_10  and  O1_11 
REMARK    3  A    between atoms: C15_19  and  C16_20 
ROOT
HETATM    1  N1  UNL     1      21.177   3.927  48.288  1.00  0.00    -0.273 N 
HETATM    2  N2  UNL     1      20.660   4.943  49.096  1.00  0.00    -0.169 NA
HETATM    3  C3  UNL     1      20.997   5.256  50.279  1.00  0.00     0.215 C 
HETATM    4  N3  UNL     1      21.938   4.777  51.209  1.00  0.00    -0.398 NA
HETATM    5  C4  UNL     1      22.394   5.223  52.279  1.00  0.00     0.326 C 
HETATM    6  C5  UNL     1      23.433   4.413  53.026  1.00  0.00     0.001 C 
HETATM    7  C6  UNL     1      24.195   3.324  53.252  1.00  0.00     0.003 C 
HETATM    8  C7  UNL     1      24.391   2.017  52.664  1.00  0.00     0.144 C 
HETATM    9  C9  UNL     1      25.059   1.847  51.356  1.00  0.00     0.051 C 
HETATM   10  C10 UNL     1      24.343   2.539  50.212  1.00  0.00     0.008 A 
HETATM   11  C11 UNL     1      23.127   1.972  50.514  1.00  0.00    -0.013 A 
HETATM   12  C12 UNL     1      21.888   2.249  49.985  1.00  0.00     0.024 A 
HETATM   13  C13 UNL     1      22.146   3.246  49.071  1.00  0.00     0.036 A 
HETATM   14  C14 UNL     1      23.459   3.351  49.230  1.00  0.00     0.070 A 
HETATM   15  C15 UNL     1      24.761   3.547  49.297  1.00  0.00     0.097 A 
ENDROOT
BRANCH  15  16
HETATM   16  C16 UNL     1      26.193   3.638  49.500  1.00  0.00     0.398 C 
HETATM   17  F1  UNL     1      26.775   2.473  48.973  1.00  0.00    -0.170 F 
HETATM   18  F2  UNL     1      26.728   4.647  48.678  1.00  0.00    -0.170 F 
HETATM   19  F3  UNL     1      26.607   3.852  50.785  1.00  0.00    -0.170 F 
ENDBRANCH  15  16
BRANCH   8  20
HETATM   20  O1  UNL     1      25.143   1.230  53.592  1.00  0.00    -0.387 OA
HETATM   21  C8  UNL     1      26.307   1.966  53.871  1.00  0.00     0.202 C 
ENDBRANCH   8  20
BRANCH   1  22
HETATM   22  C2  UNL     1      21.072   3.275  47.015  1.00  0.00     0.147 C 
HETATM   23  C1  UNL     1      21.907   4.073  46.009  1.00  0.00     0.028 C 
ENDBRANCH   1  22
TORSDOF 3
ENDMDL
MODEL 9
REMARK VINA RESULT:      -6.5      2.974      4.961
REMARK  3 active torsions:
REMARK  status: ('A' for Active; 'I' for Inactive)
REMARK    1  A    between atoms: C2_2  and  N1_3 
REMARK    2  A    between atoms: C7_10  and  O1_11 
REMARK    3  A    between atoms: C15_19  and  C16_20 
ROOT
HETATM    1  N1  UNL     1      24.960   2.260  52.647  1.00  0.00    -0.273 N 
HETATM    2  N2  UNL     1      24.520   3.337  53.421  1.00  0.00    -0.169 NA
HETATM    3  C3  UNL     1      23.770   4.301  53.074  1.00  0.00     0.215 C 
HETATM    4  N3  UNL     1      23.115   4.679  51.887  1.00  0.00    -0.398 NA
HETATM    5  C4  UNL     1      22.225   5.509  51.623  1.00  0.00     0.326 C 
HETATM    6  C5  UNL     1      21.746   5.639  50.193  1.00  0.00     0.001 C 
HETATM    7  C6  UNL     1      21.779   5.379  48.869  1.00  0.00     0.003 C 
HETATM    8  C7  UNL     1      22.582   4.596  47.955  1.00  0.00     0.144 C 
HETATM    9  C9  UNL     1      22.523   3.118  47.942  1.00  0.00     0.051 C 
HETATM   10  C10 UNL     1      22.934   2.482  49.256  1.00  0.00     0.008 A 
HETATM   11  C11 UNL     1      24.113   3.186  49.330  1.00  0.00    -0.013 A 
HETATM   12  C12 UNL     1      25.010   3.265  50.369  1.00  0.00     0.024 A 
HETATM   13  C13 UNL     1      24.446   2.468  51.340  1.00  0.00     0.036 A 
HETATM   14  C14 UNL     1      23.356   2.076  50.693  1.00  0.00     0.070 A 
HETATM   15  C15 UNL     1      22.244   1.617  50.153  1.00  0.00     0.097 A 
ENDROOT
BRANCH  15  16
HETATM   16  C16 UNL     1      21.063   1.213  49.419  1.00  0.00     0.398 C 
HETATM   17  F1  UNL     1      21.482   0.432  48.330  1.00  0.00    -0.170 F 
HETATM   18  F2  UNL     1      20.315   0.299  50.183  1.00  0.00    -0.170 F 
HETATM   19  F3  UNL     1      20.236   2.220  49.005  1.00  0.00    -0.170 F 
ENDBRANCH  15  16
BRANCH   8  20
HETATM   20  O1  UNL     1      22.257   5.011  46.626  1.00  0.00    -0.387 OA
HETATM   21  C8  UNL     1      21.787   3.864  45.965  1.00  0.00     0.202 C 
ENDBRANCH   8  20
BRANCH   1  22
HETATM   22  C2  UNL     1      25.767   1.074  52.642  1.00  0.00     0.147 C 
HETATM   23  C1  UNL     1      27.236   1.506  52.655  1.00  0.00     0.028 C 
ENDBRANCH   1  22
TORSDOF 3
ENDMDL
