MODEL 1
REMARK VINA RESULT:      -6.9      0.000      0.000
REMARK  7 active torsions:
REMARK  status: ('A' for Active; 'I' for Inactive)
REMARK    1  A    between atoms: O1_2  and  C2_3 
REMARK    2  A    between atoms: C4_5  and  C5_6 
REMARK    3  A    between atoms: C13_15  and  C14_16 
REMARK    4  A    between atoms: C14_16  and  C15_17 
REMARK    5  A    between atoms: C15_17  and  O2_18 
REMARK    6  A    between atoms: O2_18  and  C16_19 
REMARK    7  A    between atoms: C16_19  and  N2_20 
ROOT
HETATM    1  C2  UNL     1      24.177   3.421  51.204  1.00  0.00     0.181 C 
HETATM    2  C3  UNL     1      25.382   2.629  52.169  1.00  0.00     0.042 C 
HETATM    3  C4  UNL     1      26.598   2.341  51.754  1.00  0.00     0.067 C 
HETATM    4  N1  UNL     1      26.971   2.682  50.428  1.00  0.00    -0.245 NA
HETATM    5  C12 UNL     1      26.485   3.707  49.827  1.00  0.00     0.096 C 
HETATM    6  C13 UNL     1      25.394   4.259  50.295  1.00  0.00     0.007 C 
ENDROOT
BRANCH   3   7
HETATM    7  C5  UNL     1      27.471   1.683  52.691  1.00  0.00    -0.002 A 
HETATM    8  C6  UNL     1      28.358   2.347  53.498  1.00  0.00     0.014 A 
HETATM    9  C7  UNL     1      29.197   1.728  54.401  1.00  0.00     0.001 A 
HETATM   10  C8  UNL     1      29.105   0.339  54.469  1.00  0.00     0.001 A 
HETATM   11  C9  UNL     1      28.212  -0.299  53.654  1.00  0.00     0.007 A 
HETATM   12  C10 UNL     1      27.361   0.322  52.738  1.00  0.00    -0.050 A 
HETATM   13  C11 UNL     1      26.466  -0.564  51.955  1.00  0.00     0.049 C 
ENDBRANCH   3   7
BRANCH   1  14
HETATM   14  O1  UNL     1      23.990   4.385  52.041  1.00  0.00    -0.382 OA
HETATM   15  C1  UNL     1      22.803   4.754  52.575  1.00  0.00     0.202 C 
ENDBRANCH   1  14
BRANCH   6  16
HETATM   16  C14 UNL     1      25.147   5.654  50.060  1.00  0.00     0.036 C 
BRANCH  16  17
HETATM   17  C15 UNL     1      25.193   6.924  49.841  1.00  0.00     0.137 C 
BRANCH  17  18
HETATM   18  O2  UNL     1      25.640   8.196  50.150  1.00  0.00    -0.344 OA
BRANCH  18  19
HETATM   19  C16 UNL     1      26.980   8.592  49.885  1.00  0.00     0.289 C 
BRANCH  19  20
HETATM   20  N2  UNL     1      27.613   9.302  50.899  1.00  0.00    -0.410 N 
HETATM   21  H17 UNL     1      28.100   8.835  51.662  1.00  0.00     0.151 HD
HETATM   22  H18 UNL     1      27.383  10.295  51.030  1.00  0.00     0.151 HD
ENDBRANCH  19  20
ENDBRANCH  18  19
ENDBRANCH  17  18
ENDBRANCH  16  17
ENDBRANCH   6  16
TORSDOF 7
ENDMDL
MODEL 2
REMARK VINA RESULT:      -6.7      2.174      3.290
REMARK  7 active torsions:
REMARK  status: ('A' for Active; 'I' for Inactive)
REMARK    1  A    between atoms: O1_2  and  C2_3 
REMARK    2  A    between atoms: C4_5  and  C5_6 
REMARK    3  A    between atoms: C13_15  and  C14_16 
REMARK    4  A    between atoms: C14_16  and  C15_17 
REMARK    5  A    between atoms: C15_17  and  O2_18 
REMARK    6  A    between atoms: O2_18  and  C16_19 
REMARK    7  A    between atoms: C16_19  and  N2_20 
ROOT
HETATM    1  C2  UNL     1      23.614   0.459  52.197  1.00  0.00     0.181 C 
HETATM    2  C3  UNL     1      25.196  -0.012  52.730  1.00  0.00     0.042 C 
HETATM    3  C4  UNL     1      26.321   0.478  52.250  1.00  0.00     0.067 C 
HETATM    4  N1  UNL     1      26.263   1.450  51.217  1.00  0.00    -0.245 NA
HETATM    5  C12 UNL     1      25.293   2.286  51.125  1.00  0.00     0.096 C 
HETATM    6  C13 UNL     1      24.181   2.042  51.772  1.00  0.00     0.007 C 
ENDROOT
BRANCH   3   7
HETATM    7  C5  UNL     1      27.547  -0.026  52.812  1.00  0.00    -0.002 A 
HETATM    8  C6  UNL     1      27.903  -1.350  52.793  1.00  0.00     0.014 A 
HETATM    9  C7  UNL     1      29.075  -1.845  53.326  1.00  0.00     0.001 A 
HETATM   10  C8  UNL     1      29.925  -0.908  53.910  1.00  0.00     0.001 A 
HETATM   11  C9  UNL     1      29.547   0.406  53.916  1.00  0.00     0.007 A 
HETATM   12  C10 UNL     1      28.362   0.912  53.379  1.00  0.00    -0.050 A 
HETATM   13  C11 UNL     1      28.154   2.376  53.490  1.00  0.00     0.049 C 
ENDBRANCH   3   7
BRANCH   1  14
HETATM   14  O1  UNL     1      23.207   0.806  53.371  1.00  0.00    -0.382 OA
HETATM   15  C1  UNL     1      22.130   0.304  54.018  1.00  0.00     0.202 C 
ENDBRANCH   1  14
BRANCH   6  16
HETATM   16  C14 UNL     1      23.341   3.135  52.176  1.00  0.00     0.036 C 
BRANCH  16  17
HETATM   17  C15 UNL     1      22.790   4.268  52.449  1.00  0.00     0.137 C 
BRANCH  17  18
HETATM   18  O2  UNL     1      22.592   5.615  52.204  1.00  0.00    -0.344 OA
BRANCH  18  19
HETATM   19  C16 UNL     1      23.394   6.320  51.265  1.00  0.00     0.289 C 
BRANCH  19  20
HETATM   20  N2  UNL     1      24.455   7.043  51.799  1.00  0.00    -0.410 N 
HETATM   21  H17 UNL     1      25.102   6.635  52.471  1.00  0.00     0.151 HD
HETATM   22  H18 UNL     1      24.451   8.067  51.716  1.00  0.00     0.151 HD
ENDBRANCH  19  20
ENDBRANCH  18  19
ENDBRANCH  17  18
ENDBRANCH  16  17
ENDBRANCH   6  16
TORSDOF 7
ENDMDL
MODEL 3
REMARK VINA RESULT:      -6.6      3.721      5.756
REMARK  7 active torsions:
REMARK  status: ('A' for Active; 'I' for Inactive)
REMARK    1  A    between atoms: O1_2  and  C2_3 
REMARK    2  A    between atoms: C4_5  and  C5_6 
REMARK    3  A    between atoms: C13_15  and  C14_16 
REMARK    4  A    between atoms: C14_16  and  C15_17 
REMARK    5  A    between atoms: C15_17  and  O2_18 
REMARK    6  A    between atoms: O2_18  and  C16_19 
REMARK    7  A    between atoms: C16_19  and  N2_20 
ROOT
HETATM    1  C2  UNL     1      24.179   2.259  52.513  1.00  0.00     0.181 C 
HETATM    2  C3  UNL     1      25.748   1.543  52.694  1.00  0.00     0.042 C 
HETATM    3  C4  UNL     1      26.013   0.511  53.469  1.00  0.00     0.067 C 
HETATM    4  N1  UNL     1      24.961  -0.067  54.226  1.00  0.00    -0.245 NA
HETATM    5  C12 UNL     1      23.747  -0.073  53.808  1.00  0.00     0.096 C 
HETATM    6  C13 UNL     1      23.403   0.744  52.845  1.00  0.00     0.007 C 
ENDROOT
BRANCH   3   7
HETATM    7  C5  UNL     1      27.374   0.045  53.496  1.00  0.00    -0.002 A 
HETATM    8  C6  UNL     1      28.416   0.774  54.010  1.00  0.00     0.014 A 
HETATM    9  C7  UNL     1      29.724   0.337  54.045  1.00  0.00     0.001 A 
HETATM   10  C8  UNL     1      29.961  -0.930  53.515  1.00  0.00     0.001 A 
HETATM   11  C9  UNL     1      28.904  -1.636  53.010  1.00  0.00     0.007 A 
HETATM   12  C10 UNL     1      27.579  -1.199  52.972  1.00  0.00    -0.050 A 
HETATM   13  C11 UNL     1      26.589  -2.131  52.381  1.00  0.00     0.049 C 
ENDBRANCH   3   7
BRANCH   1  14
HETATM   14  O1  UNL     1      24.146   2.114  51.231  1.00  0.00    -0.382 OA
HETATM   15  C1  UNL     1      23.979   3.104  50.325  1.00  0.00     0.202 C 
ENDBRANCH   1  14
BRANCH   6  16
HETATM   16  C14 UNL     1      22.309   0.400  51.980  1.00  0.00     0.036 C 
BRANCH  16  17
HETATM   17  C15 UNL     1      21.178   0.215  51.389  1.00  0.00     0.137 C 
BRANCH  17  18
HETATM   18  O2  UNL     1      19.829  -0.090  51.413  1.00  0.00    -0.344 OA
BRANCH  18  19
HETATM   19  C16 UNL     1      19.052   0.089  52.590  1.00  0.00     0.289 C 
BRANCH  19  20
HETATM   20  N2  UNL     1      19.221  -0.873  53.579  1.00  0.00    -0.410 N 
HETATM   21  H17 UNL     1      18.751  -1.776  53.541  1.00  0.00     0.151 HD
HETATM   22  H18 UNL     1      19.621  -0.593  54.484  1.00  0.00     0.151 HD
ENDBRANCH  19  20
ENDBRANCH  18  19
ENDBRANCH  17  18
ENDBRANCH  16  17
ENDBRANCH   6  16
TORSDOF 7
ENDMDL
MODEL 4
REMARK VINA RESULT:      -6.6      3.850      5.200
REMARK  7 active torsions:
REMARK  status: ('A' for Active; 'I' for Inactive)
REMARK    1  A    between atoms: O1_2  and  C2_3 
REMARK    2  A    between atoms: C4_5  and  C5_6 
REMARK    3  A    between atoms: C13_15  and  C14_16 
REMARK    4  A    between atoms: C14_16  and  C15_17 
REMARK    5  A    between atoms: C15_17  and  O2_18 
REMARK    6  A    between atoms: O2_18  and  C16_19 
REMARK    7  A    between atoms: C16_19  and  N2_20 
ROOT
HETATM    1  C2  UNL     1      23.835   2.029  52.948  1.00  0.00     0.181 C 
HETATM    2  C3  UNL     1      25.455   1.423  53.079  1.00  0.00     0.042 C 
HETATM    3  C4  UNL     1      25.784   0.296  53.675  1.00  0.00     0.067 C 
HETATM    4  N1  UNL     1      24.763  -0.491  54.270  1.00  0.00    -0.245 NA
HETATM    5  C12 UNL     1      23.569  -0.522  53.800  1.00  0.00     0.096 C 
HETATM    6  C13 UNL     1      23.186   0.421  52.977  1.00  0.00     0.007 C 
ENDROOT
BRANCH   3   7
HETATM    7  C5  UNL     1      27.180  -0.055  53.687  1.00  0.00    -0.002 A 
HETATM    8  C6  UNL     1      28.144   0.686  54.320  1.00  0.00     0.014 A 
HETATM    9  C7  UNL     1      29.484   0.358  54.341  1.00  0.00     0.001 A 
HETATM   10  C8  UNL     1      29.840  -0.807  53.666  1.00  0.00     0.001 A 
HETATM   11  C9  UNL     1      28.859  -1.529  53.044  1.00  0.00     0.007 A 
HETATM   12  C10 UNL     1      27.502  -1.202  53.019  1.00  0.00    -0.050 A 
HETATM   13  C11 UNL     1      26.608  -2.131  52.286  1.00  0.00     0.049 C 
ENDBRANCH   3   7
BRANCH   1  14
HETATM   14  O1  UNL     1      23.857   2.110  51.661  1.00  0.00    -0.382 OA
HETATM   15  C1  UNL     1      23.576   3.213  50.930  1.00  0.00     0.202 C 
ENDBRANCH   1  14
BRANCH   6  16
HETATM   16  C14 UNL     1      22.156   0.147  52.014  1.00  0.00     0.036 C 
BRANCH  16  17
HETATM   17  C15 UNL     1      21.152   0.151  51.205  1.00  0.00     0.137 C 
BRANCH  17  18
HETATM   18  O2  UNL     1      20.133   0.804  50.535  1.00  0.00    -0.344 OA
BRANCH  18  19
HETATM   19  C16 UNL     1      20.372   1.479  49.306  1.00  0.00     0.289 C 
BRANCH  19  20
HETATM   20  N2  UNL     1      21.536   1.123  48.636  1.00  0.00    -0.410 N 
HETATM   21  H17 UNL     1      21.524   0.522  47.814  1.00  0.00     0.151 HD
HETATM   22  H18 UNL     1      22.441   1.252  49.107  1.00  0.00     0.151 HD
ENDBRANCH  19  20
ENDBRANCH  18  19
ENDBRANCH  17  18
ENDBRANCH  16  17
ENDBRANCH   6  16
TORSDOF 7
ENDMDL
MODEL 5
REMARK VINA RESULT:      -6.6      3.247      7.342
REMARK  7 active torsions:
REMARK  status: ('A' for Active; 'I' for Inactive)
REMARK    1  A    between atoms: O1_2  and  C2_3 
REMARK    2  A    between atoms: C4_5  and  C5_6 
REMARK    3  A    between atoms: C13_15  and  C14_16 
REMARK    4  A    between atoms: C14_16  and  C15_17 
REMARK    5  A    between atoms: C15_17  and  O2_18 
REMARK    6  A    between atoms: O2_18  and  C16_19 
REMARK    7  A    between atoms: C16_19  and  N2_20 
ROOT
HETATM    1  C2  UNL     1      24.462   1.845  52.770  1.00  0.00     0.181 C 
HETATM    2  C3  UNL     1      23.712   2.377  51.299  1.00  0.00     0.042 C 
HETATM    3  C4  UNL     1      24.347   2.976  50.313  1.00  0.00     0.067 C 
HETATM    4  N1  UNL     1      25.738   3.226  50.441  1.00  0.00    -0.245 NA
HETATM    5  C12 UNL     1      26.508   2.448  51.111  1.00  0.00     0.096 C 
HETATM    6  C13 UNL     1      25.977   1.606  51.961  1.00  0.00     0.007 C 
ENDROOT
BRANCH   3   7
HETATM    7  C5  UNL     1      23.565   3.348  49.162  1.00  0.00    -0.002 A 
HETATM    8  C6  UNL     1      22.864   2.451  48.399  1.00  0.00     0.014 A 
HETATM    9  C7  UNL     1      22.110   2.795  47.296  1.00  0.00     0.001 A 
HETATM   10  C8  UNL     1      22.084   4.149  46.970  1.00  0.00     0.001 A 
HETATM   11  C9  UNL     1      22.792   5.024  47.748  1.00  0.00     0.007 A 
HETATM   12  C10 UNL     1      23.557   4.681  48.864  1.00  0.00    -0.050 A 
HETATM   13  C11 UNL     1      24.243   5.793  49.566  1.00  0.00     0.049 C 
ENDBRANCH   3   7
BRANCH   1  14
HETATM   14  O1  UNL     1      24.081   0.619  52.644  1.00  0.00    -0.382 OA
HETATM   15  C1  UNL     1      23.352  -0.082  53.542  1.00  0.00     0.202 C 
ENDBRANCH   1  14
BRANCH   6  16
HETATM   16  C14 UNL     1      26.667   0.386  52.276  1.00  0.00     0.036 C 
BRANCH  16  17
HETATM   17  C15 UNL     1      27.380  -0.570  52.766  1.00  0.00     0.137 C 
BRANCH  17  18
HETATM   18  O2  UNL     1      28.320  -1.050  53.660  1.00  0.00    -0.344 OA
BRANCH  18  19
HETATM   19  C16 UNL     1      29.190  -2.120  53.312  1.00  0.00     0.289 C 
BRANCH  19  20
HETATM   20  N2  UNL     1      28.581  -3.352  53.102  1.00  0.00    -0.410 N 
HETATM   21  H17 UNL     1      28.616  -3.825  52.201  1.00  0.00     0.151 HD
HETATM   22  H18 UNL     1      27.877  -3.680  53.775  1.00  0.00     0.151 HD
ENDBRANCH  19  20
ENDBRANCH  18  19
ENDBRANCH  17  18
ENDBRANCH  16  17
ENDBRANCH   6  16
TORSDOF 7
ENDMDL
MODEL 6
REMARK VINA RESULT:      -6.3      3.797      6.875
REMARK  7 active torsions:
REMARK  status: ('A' for Active; 'I' for Inactive)
REMARK    1  A    between atoms: O1_2  and  C2_3 
REMARK    2  A    between atoms: C4_5  and  C5_6 
REMARK    3  A    between atoms: C13_15  and  C14_16 
REMARK    4  A    between atoms: C14_16  and  C15_17 
REMARK    5  A    between atoms: C15_17  and  O2_18 
REMARK    6  A    between atoms: O2_18  and  C16_19 
REMARK    7  A    between atoms: C16_19  and  N2_20 
ROOT
HETATM    1  C2  UNL     1      21.968   3.032  50.026  1.00  0.00     0.181 C 
HETATM    2  C3  UNL     1      23.383   3.832  49.418  1.00  0.00     0.042 C 
HETATM    3  C4  UNL     1      24.287   4.423  50.172  1.00  0.00     0.067 C 
HETATM    4  N1  UNL     1      24.110   4.431  51.580  1.00  0.00    -0.245 NA
HETATM    5  C12 UNL     1      23.518   3.471  52.196  1.00  0.00     0.096 C 
HETATM    6  C13 UNL     1      22.775   2.640  51.510  1.00  0.00     0.007 C 
ENDROOT
BRANCH   3   7
HETATM    7  C5  UNL     1      25.401   5.036  49.498  1.00  0.00    -0.002 A 
HETATM    8  C6  UNL     1      25.398   6.332  49.050  1.00  0.00     0.014 A 
HETATM    9  C7  UNL     1      26.460   6.931  48.406  1.00  0.00     0.001 A 
HETATM   10  C8  UNL     1      27.590   6.137  48.218  1.00  0.00     0.001 A 
HETATM   11  C9  UNL     1      27.567   4.848  48.675  1.00  0.00     0.007 A 
HETATM   12  C10 UNL     1      26.495   4.237  49.327  1.00  0.00    -0.050 A 
HETATM   13  C11 UNL     1      26.687   2.826  49.743  1.00  0.00     0.049 C 
ENDBRANCH   3   7
BRANCH   1  14
HETATM   14  O1  UNL     1      22.235   1.904  49.460  1.00  0.00    -0.382 OA
HETATM   15  C1  UNL     1      21.436   1.242  48.592  1.00  0.00     0.202 C 
ENDBRANCH   1  14
BRANCH   6  16
HETATM   16  C14 UNL     1      22.587   1.298  51.987  1.00  0.00     0.036 C 
BRANCH  16  17
HETATM   17  C15 UNL     1      22.236   0.206  52.576  1.00  0.00     0.137 C 
BRANCH  17  18
HETATM   18  O2  UNL     1      22.523  -0.907  53.345  1.00  0.00    -0.344 OA
BRANCH  18  19
HETATM   19  C16 UNL     1      21.812  -1.178  54.546  1.00  0.00     0.289 C 
BRANCH  19  20
HETATM   20  N2  UNL     1      20.484  -1.560  54.390  1.00  0.00    -0.410 N 
HETATM   21  H17 UNL     1      20.153  -2.485  54.660  1.00  0.00     0.151 HD
HETATM   22  H18 UNL     1      19.877  -1.009  53.770  1.00  0.00     0.151 HD
ENDBRANCH  19  20
ENDBRANCH  18  19
ENDBRANCH  17  18
ENDBRANCH  16  17
ENDBRANCH   6  16
TORSDOF 7
ENDMDL
MODEL 7
REMARK VINA RESULT:      -6.2      3.242      4.476
REMARK  7 active torsions:
REMARK  status: ('A' for Active; 'I' for Inactive)
REMARK    1  A    between atoms: O1_2  and  C2_3 
REMARK    2  A    between atoms: C4_5  and  C5_6 
REMARK    3  A    between atoms: C13_15  and  C14_16 
REMARK    4  A    between atoms: C14_16  and  C15_17 
REMARK    5  A    between atoms: C15_17  and  O2_18 
REMARK    6  A    between atoms: O2_18  and  C16_19 
REMARK    7  A    between atoms: C16_19  and  N2_20 
ROOT
HETATM    1  C2  UNL     1      23.892   3.017  50.188  1.00  0.00     0.181 C 
HETATM    2  C3  UNL     1      23.045   1.837  51.136  1.00  0.00     0.042 C 
HETATM    3  C4  UNL     1      23.125   1.737  52.447  1.00  0.00     0.067 C 
HETATM    4  N1  UNL     1      23.963   2.637  53.155  1.00  0.00    -0.245 NA
HETATM    5  C12 UNL     1      24.170   3.837  52.748  1.00  0.00     0.096 C 
HETATM    6  C13 UNL     1      23.888   4.143  51.507  1.00  0.00     0.007 C 
ENDROOT
BRANCH   3   7
HETATM    7  C5  UNL     1      22.350   0.698  53.072  1.00  0.00    -0.002 A 
HETATM    8  C6  UNL     1      20.984   0.733  53.185  1.00  0.00     0.014 A 
HETATM    9  C7  UNL     1      20.230  -0.258  53.779  1.00  0.00     0.001 A 
HETATM   10  C8  UNL     1      20.938  -1.347  54.284  1.00  0.00     0.001 A 
HETATM   11  C9  UNL     1      22.300  -1.357  54.159  1.00  0.00     0.007 A 
HETATM   12  C10 UNL     1      23.067  -0.358  53.559  1.00  0.00    -0.050 A 
HETATM   13  C11 UNL     1      24.534  -0.575  53.528  1.00  0.00     0.049 C 
ENDBRANCH   3   7
BRANCH   1  14
HETATM   14  O1  UNL     1      22.826   3.494  49.639  1.00  0.00    -0.382 OA
HETATM   15  C1  UNL     1      22.581   3.566  48.311  1.00  0.00     0.202 C 
ENDBRANCH   1  14
BRANCH   6  16
HETATM   16  C14 UNL     1      23.547   5.497  51.170  1.00  0.00     0.036 C 
BRANCH  16  17
HETATM   17  C15 UNL     1      23.495   6.764  50.938  1.00  0.00     0.137 C 
BRANCH  17  18
HETATM   18  O2  UNL     1      24.098   8.002  50.804  1.00  0.00    -0.344 OA
BRANCH  18  19
HETATM   19  C16 UNL     1      25.257   8.175  49.998  1.00  0.00     0.289 C 
BRANCH  19  20
HETATM   20  N2  UNL     1      26.475   8.073  50.661  1.00  0.00    -0.410 N 
HETATM   21  H17 UNL     1      26.921   8.877  51.098  1.00  0.00     0.151 HD
HETATM   22  H18 UNL     1      27.060   7.243  50.503  1.00  0.00     0.151 HD
ENDBRANCH  19  20
ENDBRANCH  18  19
ENDBRANCH  17  18
ENDBRANCH  16  17
ENDBRANCH   6  16
TORSDOF 7
ENDMDL
MODEL 8
REMARK VINA RESULT:      -6.1      3.247      6.851
REMARK  7 active torsions:
REMARK  status: ('A' for Active; 'I' for Inactive)
REMARK    1  A    between atoms: O1_2  and  C2_3 
REMARK    2  A    between atoms: C4_5  and  C5_6 
REMARK    3  A    between atoms: C13_15  and  C14_16 
REMARK    4  A    between atoms: C14_16  and  C15_17 
REMARK    5  A    between atoms: C15_17  and  O2_18 
REMARK    6  A    between atoms: O2_18  and  C16_19 
REMARK    7  A    between atoms: C16_19  and  N2_20 
ROOT
HETATM    1  C2  UNL     1      25.439   1.270  51.723  1.00  0.00     0.181 C 
HETATM    2  C3  UNL     1      25.996   2.769  51.049  1.00  0.00     0.042 C 
HETATM    3  C4  UNL     1      25.375   3.434  50.096  1.00  0.00     0.067 C 
HETATM    4  N1  UNL     1      24.172   2.904  49.559  1.00  0.00    -0.245 NA
HETATM    5  C12 UNL     1      23.362   2.204  50.268  1.00  0.00     0.096 C 
HETATM    6  C13 UNL     1      23.788   1.684  51.392  1.00  0.00     0.007 C 
ENDROOT
BRANCH   3   7
HETATM    7  C5  UNL     1      25.978   4.664  49.657  1.00  0.00    -0.002 A 
HETATM    8  C6  UNL     1      27.091   4.721  48.858  1.00  0.00     0.014 A 
HETATM    9  C7  UNL     1      27.676   5.894  48.428  1.00  0.00     0.001 A 
HETATM   10  C8  UNL     1      27.069   7.074  48.854  1.00  0.00     0.001 A 
HETATM   11  C9  UNL     1      25.961   6.989  49.651  1.00  0.00     0.007 A 
HETATM   12  C10 UNL     1      25.364   5.806  50.088  1.00  0.00    -0.050 A 
HETATM   13  C11 UNL     1      24.162   5.945  50.945  1.00  0.00     0.049 C 
ENDBRANCH   3   7
BRANCH   1  14
HETATM   14  O1  UNL     1      25.415   1.705  52.937  1.00  0.00    -0.382 OA
HETATM   15  C1  UNL     1      26.133   1.212  53.972  1.00  0.00     0.202 C 
ENDBRANCH   1  14
BRANCH   6  16
HETATM   16  C14 UNL     1      22.854   1.420  52.450  1.00  0.00     0.036 C 
BRANCH  16  17
HETATM   17  C15 UNL     1      21.838   1.165  53.201  1.00  0.00     0.137 C 
BRANCH  17  18
HETATM   18  O2  UNL     1      21.244   0.501  54.259  1.00  0.00    -0.344 OA
BRANCH  18  19
HETATM   19  C16 UNL     1      21.340  -0.912  54.392  1.00  0.00     0.289 C 
BRANCH  19  20
HETATM   20  N2  UNL     1      20.146  -1.613  54.273  1.00  0.00    -0.410 N 
HETATM   21  H17 UNL     1      19.773  -2.178  55.034  1.00  0.00     0.151 HD
HETATM   22  H18 UNL     1      19.754  -1.774  53.337  1.00  0.00     0.151 HD
ENDBRANCH  19  20
ENDBRANCH  18  19
ENDBRANCH  17  18
ENDBRANCH  16  17
ENDBRANCH   6  16
TORSDOF 7
ENDMDL
MODEL 9
REMARK VINA RESULT:      -6.0      5.757      7.404
REMARK  7 active torsions:
REMARK  status: ('A' for Active; 'I' for Inactive)
REMARK    1  A    between atoms: O1_2  and  C2_3 
REMARK    2  A    between atoms: C4_5  and  C5_6 
REMARK    3  A    between atoms: C13_15  and  C14_16 
REMARK    4  A    between atoms: C14_16  and  C15_17 
REMARK    5  A    between atoms: C15_17  and  O2_18 
REMARK    6  A    between atoms: O2_18  and  C16_19 
REMARK    7  A    between atoms: C16_19  and  N2_20 
ROOT
HETATM    1  C2  UNL     1      19.615   1.393  50.189  1.00  0.00     0.181 C 
HETATM    2  C3  UNL     1      20.865   0.714  51.181  1.00  0.00     0.042 C 
HETATM    3  C4  UNL     1      21.698   1.420  51.919  1.00  0.00     0.067 C 
HETATM    4  N1  UNL     1      21.593   2.836  51.910  1.00  0.00    -0.245 NA
HETATM    5  C12 UNL     1      20.468   3.433  51.742  1.00  0.00     0.096 C 
HETATM    6  C13 UNL     1      19.462   2.761  51.243  1.00  0.00     0.007 C 
ENDROOT
BRANCH   3   7
HETATM    7  C5  UNL     1      22.674   0.691  52.684  1.00  0.00    -0.002 A 
HETATM    8  C6  UNL     1      24.007   0.646  52.368  1.00  0.00     0.014 A 
HETATM    9  C7  UNL     1      24.953  -0.047  53.095  1.00  0.00     0.001 A 
HETATM   10  C8  UNL     1      24.484  -0.732  54.215  1.00  0.00     0.001 A 
HETATM   11  C9  UNL     1      23.149  -0.671  54.508  1.00  0.00     0.007 A 
HETATM   12  C10 UNL     1      22.188   0.028  53.776  1.00  0.00    -0.050 A 
HETATM   13  C11 UNL     1      20.794  -0.037  54.276  1.00  0.00     0.049 C 
ENDBRANCH   3   7
BRANCH   1  14
HETATM   14  O1  UNL     1      18.664   0.724  50.747  1.00  0.00    -0.382 OA
HETATM   15  C1  UNL     1      17.691   0.039  50.104  1.00  0.00     0.202 C 
ENDBRANCH   1  14
BRANCH   6  16
HETATM   16  C14 UNL     1      18.118   3.155  51.564  1.00  0.00     0.036 C 
BRANCH  16  17
HETATM   17  C15 UNL     1      17.007   3.757  51.823  1.00  0.00     0.137 C 
BRANCH  17  18
HETATM   18  O2  UNL     1      16.205   4.526  52.645  1.00  0.00    -0.344 OA
BRANCH  18  19
HETATM   19  C16 UNL     1      14.965   4.034  53.138  1.00  0.00     0.289 C 
BRANCH  19  20
HETATM   20  N2  UNL     1      14.559   4.541  54.367  1.00  0.00    -0.410 N 
HETATM   21  H17 UNL     1      13.834   4.091  54.924  1.00  0.00     0.151 HD
HETATM   22  H18 UNL     1      14.802   5.509  54.611  1.00  0.00     0.151 HD
ENDBRANCH  19  20
ENDBRANCH  18  19
ENDBRANCH  17  18
ENDBRANCH  16  17
ENDBRANCH   6  16
TORSDOF 7
ENDMDL
