MODEL 1
REMARK VINA RESULT:      -7.1      0.000      0.000
REMARK  6 active torsions:
REMARK  status: ('A' for Active; 'I' for Inactive)
REMARK    1  A    between atoms: C5_5  and  N1_6 
REMARK    2  A    between atoms: N1_6  and  N2_7 
REMARK    3  A    between atoms: N2_7  and  C6_8 
REMARK    4  A    between atoms: C6_8  and  N3_9 
REMARK    5  A    between atoms: C8_12  and  C9_13 
REMARK    6  A    between atoms: C12_16  and  O1_17 
ROOT
HETATM    1  C1  UNL     1      20.938  -0.891  53.892  1.00  0.00     0.043 C 
HETATM    2  C2  UNL     1      21.362   0.193  53.294  1.00  0.00    -0.049 A 
HETATM    3  C3  UNL     1      20.834   1.365  52.625  1.00  0.00     0.006 A 
HETATM    4  C4  UNL     1      21.799   2.145  52.186  1.00  0.00     0.005 A 
HETATM    5  C5  UNL     1      23.125   1.591  52.502  1.00  0.00     0.155 A 
HETATM    6  C7  UNL     1      22.816   0.344  53.224  1.00  0.00    -0.023 A 
HETATM    7  C8  UNL     1      23.809  -0.421  53.700  1.00  0.00     0.021 C 
ENDROOT
BRANCH   5   8
HETATM    8  N1  UNL     1      24.049   2.460  53.130  1.00  0.00    -0.321 N 
HETATM    9  H6  UNL     1      24.689   2.046  53.814  1.00  0.00     0.181 HD
BRANCH   8  10
HETATM   10  N2  UNL     1      24.471   3.558  52.431  1.00  0.00    -0.280 N 
HETATM   11  H7  UNL     1      24.031   4.416  52.874  1.00  0.00     0.189 HD
BRANCH  10  12
HETATM   12  C6  UNL     1      25.355   3.238  51.347  1.00  0.00     0.183 C 
HETATM   13  S1  UNL     1      25.063   3.422  49.753  1.00  0.00    -0.040 SA
BRANCH  12  14
HETATM   14  N3  UNL     1      26.572   2.718  51.866  1.00  0.00    -0.375 N 
HETATM   15  H8  UNL     1      27.485   2.233  52.006  1.00  0.00     0.158 HD
HETATM   16  H9  UNL     1      26.715   3.012  52.878  1.00  0.00     0.158 HD
ENDBRANCH  12  14
ENDBRANCH  10  12
ENDBRANCH   8  10
ENDBRANCH   5   8
BRANCH   7  17
HETATM   17  C9  UNL     1      25.253  -0.375  53.693  1.00  0.00    -0.035 A 
HETATM   18  C10 UNL     1      25.903   0.172  54.811  1.00  0.00     0.014 A 
HETATM   19  C11 UNL     1      27.249   0.273  54.940  1.00  0.00     0.037 A 
HETATM   20  C12 UNL     1      27.974  -0.203  53.886  1.00  0.00     0.068 A 
HETATM   21  C14 UNL     1      27.456  -0.759  52.740  1.00  0.00     0.037 A 
HETATM   22  C15 UNL     1      26.083  -0.823  52.691  1.00  0.00     0.014 A 
BRANCH  20  23
HETATM   23  O1  UNL     1      29.362  -0.137  53.940  1.00  0.00    -0.356 OA
HETATM   24  C13 UNL     1      30.123  -1.268  53.635  1.00  0.00     0.210 C 
ENDBRANCH  20  23
ENDBRANCH   7  17
TORSDOF 6
ENDMDL
MODEL 2
REMARK VINA RESULT:      -7.0      3.385      6.255
REMARK  6 active torsions:
REMARK  status: ('A' for Active; 'I' for Inactive)
REMARK    1  A    between atoms: C5_5  and  N1_6 
REMARK    2  A    between atoms: N1_6  and  N2_7 
REMARK    3  A    between atoms: N2_7  and  C6_8 
REMARK    4  A    between atoms: C6_8  and  N3_9 
REMARK    5  A    between atoms: C8_12  and  C9_13 
REMARK    6  A    between atoms: C12_16  and  O1_17 
ROOT
HETATM    1  C1  UNL     1      29.986   0.013  53.723  1.00  0.00     0.043 C 
HETATM    2  C2  UNL     1      29.018  -0.771  53.319  1.00  0.00    -0.049 A 
HETATM    3  C3  UNL     1      28.746  -2.181  53.125  1.00  0.00     0.006 A 
HETATM    4  C4  UNL     1      27.533  -2.377  52.651  1.00  0.00     0.005 A 
HETATM    5  C5  UNL     1      26.820  -1.106  52.456  1.00  0.00     0.155 A 
HETATM    6  C7  UNL     1      27.790  -0.092  52.904  1.00  0.00    -0.023 A 
HETATM    7  C8  UNL     1      27.458   1.207  52.895  1.00  0.00     0.021 C 
ENDROOT
BRANCH   5   8
HETATM    8  N1  UNL     1      25.520  -1.010  53.009  1.00  0.00    -0.321 N 
HETATM    9  H6  UNL     1      24.743  -1.354  52.438  1.00  0.00     0.181 HD
BRANCH   8  10
HETATM   10  N2  UNL     1      25.399  -1.070  54.371  1.00  0.00    -0.280 N 
HETATM   11  H7  UNL     1      26.375  -1.122  54.784  1.00  0.00     0.189 HD
BRANCH  10  12
HETATM   12  C6  UNL     1      24.037  -1.045  54.823  1.00  0.00     0.183 C 
HETATM   13  S1  UNL     1      22.738  -0.494  54.004  1.00  0.00    -0.040 SA
BRANCH  12  14
HETATM   14  N3  UNL     1      23.965  -1.587  56.136  1.00  0.00    -0.375 N 
HETATM   15  H8  UNL     1      24.137  -1.854  57.129  1.00  0.00     0.158 HD
HETATM   16  H9  UNL     1      23.094  -2.185  56.256  1.00  0.00     0.158 HD
ENDBRANCH  12  14
ENDBRANCH  10  12
ENDBRANCH   8  10
ENDBRANCH   5   8
BRANCH   7  17
HETATM   17  C9  UNL     1      26.299   1.983  52.516  1.00  0.00    -0.035 A 
HETATM   18  C10 UNL     1      26.168   2.363  51.172  1.00  0.00     0.014 A 
HETATM   19  C11 UNL     1      25.132   3.086  50.679  1.00  0.00     0.037 A 
HETATM   20  C12 UNL     1      24.181   3.440  51.591  1.00  0.00     0.068 A 
HETATM   21  C14 UNL     1      24.195   3.129  52.930  1.00  0.00     0.037 A 
HETATM   22  C15 UNL     1      25.281   2.394  53.347  1.00  0.00     0.014 A 
BRANCH  20  23
HETATM   23  O1  UNL     1      23.084   4.182  51.165  1.00  0.00    -0.356 OA
HETATM   24  C13 UNL     1      22.347   4.925  52.091  1.00  0.00     0.210 C 
ENDBRANCH  20  23
ENDBRANCH   7  17
TORSDOF 6
ENDMDL
MODEL 3
REMARK VINA RESULT:      -7.0      2.556      5.409
REMARK  6 active torsions:
REMARK  status: ('A' for Active; 'I' for Inactive)
REMARK    1  A    between atoms: C5_5  and  N1_6 
REMARK    2  A    between atoms: N1_6  and  N2_7 
REMARK    3  A    between atoms: N2_7  and  C6_8 
REMARK    4  A    between atoms: C6_8  and  N3_9 
REMARK    5  A    between atoms: C8_12  and  C9_13 
REMARK    6  A    between atoms: C12_16  and  O1_17 
ROOT
HETATM    1  C1  UNL     1      28.449  -1.129  53.172  1.00  0.00     0.043 C 
HETATM    2  C2  UNL     1      28.097   0.115  53.378  1.00  0.00    -0.049 A 
HETATM    3  C3  UNL     1      28.703   1.417  53.569  1.00  0.00     0.006 A 
HETATM    4  C4  UNL     1      27.792   2.349  53.760  1.00  0.00     0.005 A 
HETATM    5  C5  UNL     1      26.433   1.787  53.727  1.00  0.00     0.155 A 
HETATM    6  C7  UNL     1      26.657   0.354  53.468  1.00  0.00    -0.023 A 
HETATM    7  C8  UNL     1      25.613  -0.477  53.340  1.00  0.00     0.021 C 
ENDROOT
BRANCH   5   8
HETATM    8  N1  UNL     1      25.495   2.432  52.885  1.00  0.00    -0.321 N 
HETATM    9  H6  UNL     1      25.184   1.920  52.054  1.00  0.00     0.181 HD
BRANCH   8  10
HETATM   10  N2  UNL     1      24.628   3.323  53.458  1.00  0.00    -0.280 N 
HETATM   11  H7  UNL     1      24.691   3.209  54.511  1.00  0.00     0.189 HD
BRANCH  10  12
HETATM   12  C6  UNL     1      23.917   4.121  52.501  1.00  0.00     0.183 C 
HETATM   13  S1  UNL     1      23.313   3.633  51.067  1.00  0.00    -0.040 SA
BRANCH  12  14
HETATM   14  N3  UNL     1      23.800   5.452  52.989  1.00  0.00    -0.375 N 
HETATM   15  H8  UNL     1      23.953   6.453  53.238  1.00  0.00     0.158 HD
HETATM   16  H9  UNL     1      22.875   5.596  53.492  1.00  0.00     0.158 HD
ENDBRANCH  12  14
ENDBRANCH  10  12
ENDBRANCH   8  10
ENDBRANCH   5   8
BRANCH   7  17
HETATM   17  C9  UNL     1      24.173  -0.359  53.406  1.00  0.00    -0.035 A 
HETATM   18  C10 UNL     1      23.527  -0.788  54.575  1.00  0.00     0.014 A 
HETATM   19  C11 UNL     1      22.187  -0.731  54.773  1.00  0.00     0.037 A 
HETATM   20  C12 UNL     1      21.465  -0.213  53.738  1.00  0.00     0.068 A 
HETATM   21  C14 UNL     1      21.980   0.241  52.546  1.00  0.00     0.037 A 
HETATM   22  C15 UNL     1      23.347   0.146  52.427  1.00  0.00     0.014 A 
BRANCH  20  23
HETATM   23  O1  UNL     1      20.083  -0.119  53.862  1.00  0.00    -0.356 OA
HETATM   24  C13 UNL     1      19.277  -0.187  52.722  1.00  0.00     0.210 C 
ENDBRANCH  20  23
ENDBRANCH   7  17
TORSDOF 6
ENDMDL
MODEL 4
REMARK VINA RESULT:      -6.7      2.990      5.736
REMARK  6 active torsions:
REMARK  status: ('A' for Active; 'I' for Inactive)
REMARK    1  A    between atoms: C5_5  and  N1_6 
REMARK    2  A    between atoms: N1_6  and  N2_7 
REMARK    3  A    between atoms: N2_7  and  C6_8 
REMARK    4  A    between atoms: C6_8  and  N3_9 
REMARK    5  A    between atoms: C8_12  and  C9_13 
REMARK    6  A    between atoms: C12_16  and  O1_17 
ROOT
HETATM    1  C1  UNL     1      24.573   6.720  50.427  1.00  0.00     0.043 C 
HETATM    2  C2  UNL     1      25.327   5.737  50.005  1.00  0.00    -0.049 A 
HETATM    3  C3  UNL     1      26.509   5.521  49.195  1.00  0.00     0.006 A 
HETATM    4  C4  UNL     1      26.804   4.240  49.105  1.00  0.00     0.005 A 
HETATM    5  C5  UNL     1      25.842   3.414  49.850  1.00  0.00     0.155 A 
HETATM    6  C7  UNL     1      24.912   4.399  50.428  1.00  0.00    -0.023 A 
HETATM    7  C8  UNL     1      23.904   3.993  51.212  1.00  0.00     0.021 C 
ENDROOT
BRANCH   5   8
HETATM    8  N1  UNL     1      26.378   2.462  50.751  1.00  0.00    -0.321 N 
HETATM    9  H6  UNL     1      26.545   1.519  50.389  1.00  0.00     0.181 HD
BRANCH   8  10
HETATM   10  N2  UNL     1      27.181   2.919  51.760  1.00  0.00    -0.280 N 
HETATM   11  H7  UNL     1      27.469   3.913  51.524  1.00  0.00     0.189 HD
BRANCH  10  12
HETATM   12  C6  UNL     1      27.388   1.956  52.804  1.00  0.00     0.183 C 
HETATM   13  S1  UNL     1      27.123   0.349  52.726  1.00  0.00    -0.040 SA
BRANCH  12  14
HETATM   14  N3  UNL     1      27.879   2.615  53.965  1.00  0.00    -0.375 N 
HETATM   15  H8  UNL     1      28.379   2.878  54.842  1.00  0.00     0.158 HD
HETATM   16  H9  UNL     1      27.431   3.572  54.081  1.00  0.00     0.158 HD
ENDBRANCH  12  14
ENDBRANCH  10  12
ENDBRANCH   8  10
ENDBRANCH   5   8
BRANCH   7  17
HETATM   17  C9  UNL     1      23.404   2.725  51.693  1.00  0.00    -0.035 A 
HETATM   18  C10 UNL     1      22.546   1.993  50.858  1.00  0.00     0.014 A 
HETATM   19  C11 UNL     1      22.009   0.790  51.179  1.00  0.00     0.037 A 
HETATM   20  C12 UNL     1      22.358   0.303  52.405  1.00  0.00     0.068 A 
HETATM   21  C14 UNL     1      23.188   0.923  53.311  1.00  0.00     0.037 A 
HETATM   22  C15 UNL     1      23.688   2.139  52.906  1.00  0.00     0.014 A 
BRANCH  20  23
HETATM   23  O1  UNL     1      21.850  -0.927  52.811  1.00  0.00    -0.356 OA
HETATM   24  C13 UNL     1      21.650  -1.181  54.170  1.00  0.00     0.210 C 
ENDBRANCH  20  23
ENDBRANCH   7  17
TORSDOF 6
ENDMDL
MODEL 5
REMARK VINA RESULT:      -6.7      2.617      3.593
REMARK  6 active torsions:
REMARK  status: ('A' for Active; 'I' for Inactive)
REMARK    1  A    between atoms: C5_5  and  N1_6 
REMARK    2  A    between atoms: N1_6  and  N2_7 
REMARK    3  A    between atoms: N2_7  and  C6_8 
REMARK    4  A    between atoms: C6_8  and  N3_9 
REMARK    5  A    between atoms: C8_12  and  C9_13 
REMARK    6  A    between atoms: C12_16  and  O1_17 
ROOT
HETATM    1  C1  UNL     1      21.466   1.706  49.672  1.00  0.00     0.043 C 
HETATM    2  C2  UNL     1      22.372   2.618  49.421  1.00  0.00    -0.049 A 
HETATM    3  C3  UNL     1      22.604   3.724  48.515  1.00  0.00     0.006 A 
HETATM    4  C4  UNL     1      23.770   4.295  48.740  1.00  0.00     0.005 A 
HETATM    5  C5  UNL     1      24.488   3.634  49.841  1.00  0.00     0.155 A 
HETATM    6  C7  UNL     1      23.564   2.569  50.268  1.00  0.00    -0.023 A 
HETATM    7  C8  UNL     1      23.887   1.770  51.295  1.00  0.00     0.021 C 
ENDROOT
BRANCH   5   8
HETATM    8  N1  UNL     1      24.993   4.468  50.867  1.00  0.00    -0.321 N 
HETATM    9  H6  UNL     1      25.381   4.006  51.695  1.00  0.00     0.181 HD
BRANCH   8  10
HETATM   10  N2  UNL     1      25.499   5.688  50.510  1.00  0.00    -0.280 N 
HETATM   11  H7  UNL     1      26.386   5.523  49.952  1.00  0.00     0.189 HD
BRANCH  10  12
HETATM   12  C6  UNL     1      24.709   6.791  50.976  1.00  0.00     0.183 C 
HETATM   13  S1  UNL     1      24.213   8.082  50.112  1.00  0.00    -0.040 SA
BRANCH  12  14
HETATM   14  N3  UNL     1      24.401   6.604  52.352  1.00  0.00    -0.375 N 
HETATM   15  H8  UNL     1      23.979   6.320  53.263  1.00  0.00     0.158 HD
HETATM   16  H9  UNL     1      25.086   7.127  52.974  1.00  0.00     0.158 HD
ENDBRANCH  12  14
ENDBRANCH  10  12
ENDBRANCH   8  10
ENDBRANCH   5   8
BRANCH   7  17
HETATM   17  C9  UNL     1      25.013   1.630  52.191  1.00  0.00    -0.035 A 
HETATM   18  C10 UNL     1      26.040   0.745  51.830  1.00  0.00     0.014 A 
HETATM   19  C11 UNL     1      27.152   0.520  52.572  1.00  0.00     0.037 A 
HETATM   20  C12 UNL     1      27.230   1.227  53.736  1.00  0.00     0.068 A 
HETATM   21  C14 UNL     1      26.294   2.122  54.198  1.00  0.00     0.037 A 
HETATM   22  C15 UNL     1      25.196   2.290  53.385  1.00  0.00     0.014 A 
BRANCH  20  23
HETATM   23  O1  UNL     1      28.342   1.055  54.555  1.00  0.00    -0.356 OA
HETATM   24  C13 UNL     1      29.338   0.145  54.190  1.00  0.00     0.210 C 
ENDBRANCH  20  23
ENDBRANCH   7  17
TORSDOF 6
ENDMDL
MODEL 6
REMARK VINA RESULT:      -6.5      2.466      4.702
REMARK  6 active torsions:
REMARK  status: ('A' for Active; 'I' for Inactive)
REMARK    1  A    between atoms: C5_5  and  N1_6 
REMARK    2  A    between atoms: N1_6  and  N2_7 
REMARK    3  A    between atoms: N2_7  and  C6_8 
REMARK    4  A    between atoms: C6_8  and  N3_9 
REMARK    5  A    between atoms: C8_12  and  C9_13 
REMARK    6  A    between atoms: C12_16  and  O1_17 
ROOT
HETATM    1  C1  UNL     1      27.446   4.622  48.832  1.00  0.00     0.043 C 
HETATM    2  C2  UNL     1      26.191   4.569  49.204  1.00  0.00    -0.049 A 
HETATM    3  C3  UNL     1      24.923   5.204  48.905  1.00  0.00     0.006 A 
HETATM    4  C4  UNL     1      23.954   4.720  49.655  1.00  0.00     0.005 A 
HETATM    5  C5  UNL     1      24.452   3.684  50.574  1.00  0.00     0.155 A 
HETATM    6  C7  UNL     1      25.887   3.598  50.255  1.00  0.00    -0.023 A 
HETATM    7  C8  UNL     1      26.666   2.713  50.893  1.00  0.00     0.021 C 
ENDROOT
BRANCH   5   8
HETATM    8  N1  UNL     1      23.746   2.457  50.597  1.00  0.00    -0.321 N 
HETATM    9  H6  UNL     1      24.244   1.639  50.958  1.00  0.00     0.181 HD
BRANCH   8  10
HETATM   10  N2  UNL     1      22.386   2.504  50.745  1.00  0.00    -0.280 N 
HETATM   11  H7  UNL     1      21.968   2.819  49.822  1.00  0.00     0.189 HD
BRANCH  10  12
HETATM   12  C6  UNL     1      21.942   2.126  52.056  1.00  0.00     0.183 C 
HETATM   13  S1  UNL     1      22.562   0.953  53.005  1.00  0.00    -0.040 SA
BRANCH  12  14
HETATM   14  N3  UNL     1      20.843   2.945  52.438  1.00  0.00    -0.375 N 
HETATM   15  H8  UNL     1      20.138   3.707  52.536  1.00  0.00     0.158 HD
HETATM   16  H9  UNL     1      20.263   2.479  53.197  1.00  0.00     0.158 HD
ENDBRANCH  12  14
ENDBRANCH  10  12
ENDBRANCH   8  10
ENDBRANCH   5   8
BRANCH   7  17
HETATM   17  C9  UNL     1      26.482   1.721  51.928  1.00  0.00    -0.035 A 
HETATM   18  C10 UNL     1      26.369   2.162  53.255  1.00  0.00     0.014 A 
HETATM   19  C11 UNL     1      26.190   1.344  54.321  1.00  0.00     0.037 A 
HETATM   20  C12 UNL     1      26.121   0.012  54.030  1.00  0.00     0.068 A 
HETATM   21  C14 UNL     1      26.218  -0.543  52.775  1.00  0.00     0.037 A 
HETATM   22  C15 UNL     1      26.399   0.358  51.751  1.00  0.00     0.014 A 
BRANCH  20  23
HETATM   23  O1  UNL     1      25.937  -0.895  55.068  1.00  0.00    -0.356 OA
HETATM   24  C13 UNL     1      24.643  -1.236  55.471  1.00  0.00     0.210 C 
ENDBRANCH  20  23
ENDBRANCH   7  17
TORSDOF 6
ENDMDL
MODEL 7
REMARK VINA RESULT:      -6.3      2.593      3.928
REMARK  6 active torsions:
REMARK  status: ('A' for Active; 'I' for Inactive)
REMARK    1  A    between atoms: C5_5  and  N1_6 
REMARK    2  A    between atoms: N1_6  and  N2_7 
REMARK    3  A    between atoms: N2_7  and  C6_8 
REMARK    4  A    between atoms: C6_8  and  N3_9 
REMARK    5  A    between atoms: C8_12  and  C9_13 
REMARK    6  A    between atoms: C12_16  and  O1_17 
ROOT
HETATM    1  C1  UNL     1      23.038   4.831  50.845  1.00  0.00     0.043 C 
HETATM    2  C2  UNL     1      22.384   3.865  51.440  1.00  0.00    -0.049 A 
HETATM    3  C3  UNL     1      21.020   3.460  51.714  1.00  0.00     0.006 A 
HETATM    4  C4  UNL     1      20.980   2.343  52.411  1.00  0.00     0.005 A 
HETATM    5  C5  UNL     1      22.333   1.845  52.706  1.00  0.00     0.155 A 
HETATM    6  C7  UNL     1      23.214   2.833  52.062  1.00  0.00    -0.023 A 
HETATM    7  C8  UNL     1      24.545   2.675  52.102  1.00  0.00     0.021 C 
ENDROOT
BRANCH   5   8
HETATM    8  N1  UNL     1      22.595   0.487  52.404  1.00  0.00    -0.321 N 
HETATM    9  H6  UNL     1      23.577   0.208  52.322  1.00  0.00     0.181 HD
BRANCH   8  10
HETATM   10  N2  UNL     1      21.688  -0.448  52.823  1.00  0.00    -0.280 N 
HETATM   11  H7  UNL     1      21.143  -0.778  51.975  1.00  0.00     0.189 HD
BRANCH  10  12
HETATM   12  C6  UNL     1      21.741  -0.699  54.235  1.00  0.00     0.183 C 
HETATM   13  S1  UNL     1      23.004  -1.283  55.084  1.00  0.00    -0.040 SA
BRANCH  12  14
HETATM   14  N3  UNL     1      20.492  -0.356  54.823  1.00  0.00    -0.375 N 
HETATM   15  H8  UNL     1      19.713  -0.127  55.478  1.00  0.00     0.158 HD
HETATM   16  H9  UNL     1      19.746  -0.207  54.080  1.00  0.00     0.158 HD
ENDBRANCH  12  14
ENDBRANCH  10  12
ENDBRANCH   8  10
ENDBRANCH   5   8
BRANCH   7  17
HETATM   17  C9  UNL     1      25.462   1.715  52.673  1.00  0.00    -0.035 A 
HETATM   18  C10 UNL     1      26.050   0.771  51.816  1.00  0.00     0.014 A 
HETATM   19  C11 UNL     1      26.928  -0.182  52.216  1.00  0.00     0.037 A 
HETATM   20  C12 UNL     1      27.228  -0.179  53.547  1.00  0.00     0.068 A 
HETATM   21  C14 UNL     1      26.721   0.691  54.484  1.00  0.00     0.037 A 
HETATM   22  C15 UNL     1      25.837   1.625  53.994  1.00  0.00     0.014 A 
BRANCH  20  23
HETATM   23  O1  UNL     1      28.123  -1.124  54.037  1.00  0.00    -0.356 OA
HETATM   24  C13 UNL     1      29.383  -1.259  53.447  1.00  0.00     0.210 C 
ENDBRANCH  20  23
ENDBRANCH   7  17
TORSDOF 6
ENDMDL
MODEL 8
REMARK VINA RESULT:      -6.2      6.854      8.683
REMARK  6 active torsions:
REMARK  status: ('A' for Active; 'I' for Inactive)
REMARK    1  A    between atoms: C5_5  and  N1_6 
REMARK    2  A    between atoms: N1_6  and  N2_7 
REMARK    3  A    between atoms: N2_7  and  C6_8 
REMARK    4  A    between atoms: C6_8  and  N3_9 
REMARK    5  A    between atoms: C8_12  and  C9_13 
REMARK    6  A    between atoms: C12_16  and  O1_17 
ROOT
HETATM    1  C1  UNL     1      24.126   4.536  49.342  1.00  0.00     0.043 C 
HETATM    2  C2  UNL     1      24.357   5.760  49.745  1.00  0.00    -0.049 A 
HETATM    3  C3  UNL     1      23.725   6.804  50.525  1.00  0.00     0.006 A 
HETATM    4  C4  UNL     1      24.470   7.889  50.572  1.00  0.00     0.005 A 
HETATM    5  C5  UNL     1      25.719   7.717  49.814  1.00  0.00     0.155 A 
HETATM    6  C7  UNL     1      25.627   6.338  49.304  1.00  0.00    -0.023 A 
HETATM    7  C8  UNL     1      26.630   5.821  48.580  1.00  0.00     0.021 C 
ENDROOT
BRANCH   5   8
HETATM    8  N1  UNL     1      26.923   8.055  50.478  1.00  0.00    -0.321 N 
HETATM    9  H6  UNL     1      27.708   7.405  50.381  1.00  0.00     0.181 HD
BRANCH   8  10
HETATM   10  N2  UNL     1      27.200   9.382  50.663  1.00  0.00    -0.280 N 
HETATM   11  H7  UNL     1      26.637   9.720  51.496  1.00  0.00     0.189 HD
BRANCH  10  12
HETATM   12  C6  UNL     1      28.138   9.906  49.712  1.00  0.00     0.183 C 
HETATM   13  S1  UNL     1      27.840  10.989  48.530  1.00  0.00    -0.040 SA
BRANCH  12  14
HETATM   14  N3  UNL     1      29.418   9.332  49.945  1.00  0.00    -0.375 N 
HETATM   15  H8  UNL     1      30.214   8.712  50.210  1.00  0.00     0.158 HD
HETATM   16  H9  UNL     1      30.195   9.988  49.634  1.00  0.00     0.158 HD
ENDBRANCH  12  14
ENDBRANCH  10  12
ENDBRANCH   8  10
ENDBRANCH   5   8
BRANCH   7  17
HETATM   17  C9  UNL     1      27.909   6.285  48.091  1.00  0.00    -0.035 A 
HETATM   18  C10 UNL     1      27.920   7.344  47.170  1.00  0.00     0.014 A 
HETATM   19  C11 UNL     1      29.044   7.880  46.634  1.00  0.00     0.037 A 
HETATM   20  C12 UNL     1      30.215   7.319  47.053  1.00  0.00     0.068 A 
HETATM   21  C14 UNL     1      30.336   6.282  47.948  1.00  0.00     0.037 A 
HETATM   22  C15 UNL     1      29.146   5.796  48.442  1.00  0.00     0.014 A 
BRANCH  20  23
HETATM   23  O1  UNL     1      31.415   7.813  46.551  1.00  0.00    -0.356 OA
HETATM   24  C13 UNL     1      32.025   8.910  47.165  1.00  0.00     0.210 C 
ENDBRANCH  20  23
ENDBRANCH   7  17
TORSDOF 6
ENDMDL
MODEL 9
REMARK VINA RESULT:      -6.0      8.092      9.757
REMARK  6 active torsions:
REMARK  status: ('A' for Active; 'I' for Inactive)
REMARK    1  A    between atoms: C5_5  and  N1_6 
REMARK    2  A    between atoms: N1_6  and  N2_7 
REMARK    3  A    between atoms: N2_7  and  C6_8 
REMARK    4  A    between atoms: C6_8  and  N3_9 
REMARK    5  A    between atoms: C8_12  and  C9_13 
REMARK    6  A    between atoms: C12_16  and  O1_17 
ROOT
HETATM    1  C1  UNL     1      26.486   5.453  48.938  1.00  0.00     0.043 C 
HETATM    2  C2  UNL     1      26.910   6.472  48.233  1.00  0.00    -0.049 A 
HETATM    3  C3  UNL     1      26.386   7.644  47.561  1.00  0.00     0.006 A 
HETATM    4  C4  UNL     1      27.344   8.329  46.971  1.00  0.00     0.005 A 
HETATM    5  C5  UNL     1      28.657   7.696  47.168  1.00  0.00     0.155 A 
HETATM    6  C7  UNL     1      28.352   6.514  47.991  1.00  0.00    -0.023 A 
HETATM    7  C8  UNL     1      29.340   5.704  48.397  1.00  0.00     0.021 C 
ENDROOT
BRANCH   5   8
HETATM    8  N1  UNL     1      29.704   8.527  47.637  1.00  0.00    -0.321 N 
HETATM    9  H6  UNL     1      30.663   8.200  47.484  1.00  0.00     0.181 HD
BRANCH   8  10
HETATM   10  N2  UNL     1      29.479   9.876  47.682  1.00  0.00    -0.280 N 
HETATM   11  H7  UNL     1      28.921  10.143  46.820  1.00  0.00     0.189 HD
BRANCH  10  12
HETATM   12  C6  UNL     1      30.042  10.509  48.840  1.00  0.00     0.183 C 
HETATM   13  S1  UNL     1      30.597  12.038  48.954  1.00  0.00    -0.040 SA
BRANCH  12  14
HETATM   14  N3  UNL     1      30.053   9.588  49.924  1.00  0.00    -0.375 N 
HETATM   15  H8  UNL     1      29.883   9.078  50.818  1.00  0.00     0.158 HD
HETATM   16  H9  UNL     1      30.736   8.793  49.745  1.00  0.00     0.158 HD
ENDBRANCH  12  14
ENDBRANCH  10  12
ENDBRANCH   8  10
ENDBRANCH   5   8
BRANCH   7  17
HETATM   17  C9  UNL     1      30.774   5.644  48.226  1.00  0.00    -0.035 A 
HETATM   18  C10 UNL     1      31.585   6.102  49.276  1.00  0.00     0.014 A 
HETATM   19  C11 UNL     1      32.941   6.100  49.252  1.00  0.00     0.037 A 
HETATM   20  C12 UNL     1      33.504   5.609  48.110  1.00  0.00     0.068 A 
HETATM   21  C14 UNL     1      32.820   5.133  47.016  1.00  0.00     0.037 A 
HETATM   22  C15 UNL     1      31.449   5.171  47.124  1.00  0.00     0.014 A 
BRANCH  20  23
HETATM   23  O1  UNL     1      34.891   5.572  48.006  1.00  0.00    -0.356 OA
HETATM   24  C13 UNL     1      35.667   6.453  48.763  1.00  0.00     0.210 C 
ENDBRANCH  20  23
ENDBRANCH   7  17
TORSDOF 6
ENDMDL
