MODEL 1
REMARK VINA RESULT:      -6.9      0.000      0.000
REMARK  7 active torsions:
REMARK  status: ('A' for Active; 'I' for Inactive)
REMARK    1  A    between atoms: C2_2  and  N1_3 
REMARK    2  A    between atoms: N1_3  and  C3_4 
REMARK       I    between atoms: N1_3  and  C11_15 
REMARK    3  A    between atoms: C3_4  and  C4_5 
REMARK    4  A    between atoms: C8_9  and  O1_10 
REMARK    5  A    between atoms: C11_15  and  C12_17 
REMARK    6  A    between atoms: C13_18  and  C14_19 
REMARK    7  A    between atoms: C14_19  and  N4_20 
ROOT
HETATM    1  N1  UNL     1      23.126   3.083  50.830  1.00  0.00    -0.345 N 
HETATM    2  C11 UNL     1      24.326   3.743  51.285  1.00  0.00     0.243 C 
HETATM    3  O2  UNL     1      24.286   4.480  52.325  1.00  0.00    -0.268 OA
ENDROOT
BRANCH   1   4
HETATM    4  C2  UNL     1      23.036   2.214  49.648  1.00  0.00     0.122 C 
HETATM    5  C1  UNL     1      22.584   2.950  48.422  1.00  0.00     0.026 C 
ENDBRANCH   1   4
BRANCH   1   6
HETATM    6  C3  UNL     1      21.903   3.294  51.611  1.00  0.00     0.167 C 
BRANCH   6   7
HETATM    7  C4  UNL     1      21.509   2.100  52.387  1.00  0.00    -0.012 C 
HETATM    8  C5  UNL     1      22.448   1.386  52.991  1.00  0.00    -0.020 C 
HETATM    9  C6  UNL     1      22.059   0.303  53.649  1.00  0.00    -0.009 C 
HETATM   10  C7  UNL     1      21.105  -0.425  52.763  1.00  0.00     0.083 C 
HETATM   11  C8  UNL     1      19.734  -0.587  53.270  1.00  0.00     0.245 C 
HETATM   12  N2  UNL     1      18.643  -0.657  52.368  1.00  0.00    -0.251 NA
HETATM   13  C9  UNL     1      18.586   0.205  51.371  1.00  0.00     0.229 C 
HETATM   14  N3  UNL     1      19.736   0.860  51.674  1.00  0.00    -0.254 NA
HETATM   15  C10 UNL     1      20.074   1.742  52.469  1.00  0.00     0.127 C 
BRANCH  11  16
HETATM   16  O1  UNL     1      19.575  -1.636  54.223  1.00  0.00    -0.375 OA
HETATM   17  H12 UNL     1      19.276  -1.290  55.076  1.00  0.00     0.212 HD
ENDBRANCH  11  16
ENDBRANCH   6   7
ENDBRANCH   1   6
BRANCH   2  18
HETATM   18  C12 UNL     1      25.569   3.560  50.549  1.00  0.00     0.072 C 
HETATM   19  C13 UNL     1      26.449   2.617  50.763  1.00  0.00     0.008 C 
BRANCH  19  20
HETATM   20  C14 UNL     1      26.625   1.465  51.680  1.00  0.00     0.300 C 
BRANCH  20  21
HETATM   21  N4  UNL     1      27.172   1.843  52.947  1.00  0.00     0.096 N 
HETATM   22  C15 UNL     1      28.415   1.210  53.262  1.00  0.00     0.299 C 
HETATM   23  C16 UNL     1      28.335   0.515  54.630  1.00  0.00     0.198 C 
HETATM   24  O3  UNL     1      27.268  -0.355  54.670  1.00  0.00    -0.388 OA
HETATM   25  C17 UNL     1      26.069   0.168  54.262  1.00  0.00     0.198 C 
HETATM   26  C18 UNL     1      26.206   1.641  53.992  1.00  0.00     0.299 C 
ENDBRANCH  20  21
ENDBRANCH  19  20
ENDBRANCH   2  18
TORSDOF 7
ENDMDL
MODEL 2
REMARK VINA RESULT:      -6.9      0.883      1.280
REMARK  7 active torsions:
REMARK  status: ('A' for Active; 'I' for Inactive)
REMARK    1  A    between atoms: C2_2  and  N1_3 
REMARK    2  A    between atoms: N1_3  and  C3_4 
REMARK       I    between atoms: N1_3  and  C11_15 
REMARK    3  A    between atoms: C3_4  and  C4_5 
REMARK    4  A    between atoms: C8_9  and  O1_10 
REMARK    5  A    between atoms: C11_15  and  C12_17 
REMARK    6  A    between atoms: C13_18  and  C14_19 
REMARK    7  A    between atoms: C14_19  and  N4_20 
ROOT
HETATM    1  N1  UNL     1      22.848   2.722  50.976  1.00  0.00    -0.345 N 
HETATM    2  C11 UNL     1      24.106   3.380  51.236  1.00  0.00     0.243 C 
HETATM    3  O2  UNL     1      24.174   4.279  52.138  1.00  0.00    -0.268 OA
ENDROOT
BRANCH   1   4
HETATM    4  C2  UNL     1      22.634   1.678  49.965  1.00  0.00     0.122 C 
HETATM    5  C1  UNL     1      22.156   2.230  48.655  1.00  0.00     0.026 C 
ENDBRANCH   1   4
BRANCH   1   6
HETATM    6  C3  UNL     1      21.696   3.127  51.788  1.00  0.00     0.167 C 
BRANCH   6   7
HETATM    7  C4  UNL     1      21.072   1.991  52.499  1.00  0.00    -0.012 C 
HETATM    8  C5  UNL     1      21.811   1.267  53.326  1.00  0.00    -0.020 C 
HETATM    9  C6  UNL     1      21.223   0.236  53.918  1.00  0.00    -0.009 C 
HETATM   10  C7  UNL     1      20.454  -0.490  52.867  1.00  0.00     0.083 C 
HETATM   11  C8  UNL     1      18.998  -0.565  53.055  1.00  0.00     0.245 C 
HETATM   12  N2  UNL     1      18.135  -0.629  51.933  1.00  0.00    -0.251 NA
HETATM   13  C9  UNL     1      18.351   0.185  50.918  1.00  0.00     0.229 C 
HETATM   14  N3  UNL     1      19.438   0.801  51.449  1.00  0.00    -0.254 NA
HETATM   15  C10 UNL     1      19.637   1.704  52.266  1.00  0.00     0.127 C 
BRANCH  11  16
HETATM   16  O1  UNL     1      18.571  -1.557  53.986  1.00  0.00    -0.375 OA
HETATM   17  H12 UNL     1      18.928  -1.385  54.870  1.00  0.00     0.212 HD
ENDBRANCH  11  16
ENDBRANCH   6   7
ENDBRANCH   1   6
BRANCH   2  18
HETATM   18  C12 UNL     1      25.283   3.010  50.463  1.00  0.00     0.072 C 
HETATM   19  C13 UNL     1      26.336   2.390  50.929  1.00  0.00     0.008 C 
BRANCH  19  20
HETATM   20  C14 UNL     1      26.807   1.844  52.225  1.00  0.00     0.300 C 
BRANCH  20  21
HETATM   21  N4  UNL     1      26.508   0.453  52.383  1.00  0.00     0.096 N 
HETATM   22  C15 UNL     1      25.253   0.190  53.016  1.00  0.00     0.299 C 
HETATM   23  C16 UNL     1      25.444  -0.739  54.225  1.00  0.00     0.198 C 
HETATM   24  O3  UNL     1      26.381  -0.222  55.091  1.00  0.00    -0.388 OA
HETATM   25  C17 UNL     1      27.564   0.160  54.515  1.00  0.00     0.198 C 
HETATM   26  C18 UNL     1      27.584  -0.218  53.060  1.00  0.00     0.299 C 
ENDBRANCH  20  21
ENDBRANCH  19  20
ENDBRANCH   2  18
TORSDOF 7
ENDMDL
MODEL 3
REMARK VINA RESULT:      -6.7      2.912      6.394
REMARK  7 active torsions:
REMARK  status: ('A' for Active; 'I' for Inactive)
REMARK    1  A    between atoms: C2_2  and  N1_3 
REMARK    2  A    between atoms: N1_3  and  C3_4 
REMARK       I    between atoms: N1_3  and  C11_15 
REMARK    3  A    between atoms: C3_4  and  C4_5 
REMARK    4  A    between atoms: C8_9  and  O1_10 
REMARK    5  A    between atoms: C11_15  and  C12_17 
REMARK    6  A    between atoms: C13_18  and  C14_19 
REMARK    7  A    between atoms: C14_19  and  N4_20 
ROOT
HETATM    1  N1  UNL     1      23.645   2.832  51.520  1.00  0.00    -0.345 N 
HETATM    2  C11 UNL     1      23.796   4.217  51.140  1.00  0.00     0.243 C 
HETATM    3  O2  UNL     1      24.079   5.088  52.027  1.00  0.00    -0.268 OA
ENDROOT
BRANCH   1   4
HETATM    4  C2  UNL     1      23.318   1.735  50.599  1.00  0.00     0.122 C 
HETATM    5  C1  UNL     1      21.929   1.205  50.802  1.00  0.00     0.026 C 
ENDBRANCH   1   4
BRANCH   1   6
HETATM    6  C3  UNL     1      23.839   2.497  52.934  1.00  0.00     0.167 C 
BRANCH   6   7
HETATM    7  C4  UNL     1      24.854   1.442  53.137  1.00  0.00    -0.012 C 
HETATM    8  C5  UNL     1      24.483   0.286  53.667  1.00  0.00    -0.020 C 
HETATM    9  C6  UNL     1      25.430  -0.622  53.865  1.00  0.00    -0.009 C 
HETATM   10  C7  UNL     1      26.586   0.083  54.490  1.00  0.00     0.083 C 
HETATM   11  C8  UNL     1      27.844   0.080  53.729  1.00  0.00     0.245 C 
HETATM   12  N2  UNL     1      28.756   1.158  53.852  1.00  0.00    -0.251 NA
HETATM   13  C9  UNL     1      28.289   2.391  53.819  1.00  0.00     0.229 C 
HETATM   14  N3  UNL     1      26.983   2.053  53.670  1.00  0.00    -0.254 NA
HETATM   15  C10 UNL     1      26.254   1.712  52.735  1.00  0.00     0.127 C 
BRANCH  11  16
HETATM   16  O1  UNL     1      28.591  -1.131  53.826  1.00  0.00    -0.375 OA
HETATM   17  H12 UNL     1      29.391  -1.007  54.356  1.00  0.00     0.212 HD
ENDBRANCH  11  16
ENDBRANCH   6   7
ENDBRANCH   1   6
BRANCH   2  18
HETATM   18  C12 UNL     1      23.622   4.602  49.747  1.00  0.00     0.072 C 
HETATM   19  C13 UNL     1      24.560   5.065  48.961  1.00  0.00     0.008 C 
BRANCH  19  20
HETATM   20  C14 UNL     1      26.005   5.384  49.046  1.00  0.00     0.300 C 
BRANCH  20  21
HETATM   21  N4  UNL     1      26.357   6.564  48.315  1.00  0.00     0.096 N 
HETATM   22  C15 UNL     1      27.747   6.895  48.369  1.00  0.00     0.299 C 
HETATM   23  C16 UNL     1      27.937   8.344  48.846  1.00  0.00     0.198 C 
HETATM   24  O3  UNL     1      27.293   8.548  50.046  1.00  0.00    -0.388 OA
HETATM   25  C17 UNL     1      25.987   8.136  50.088  1.00  0.00     0.198 C 
HETATM   26  C18 UNL     1      25.540   7.673  48.729  1.00  0.00     0.299 C 
ENDBRANCH  20  21
ENDBRANCH  19  20
ENDBRANCH   2  18
TORSDOF 7
ENDMDL
MODEL 4
REMARK VINA RESULT:      -6.7      2.120      6.769
REMARK  7 active torsions:
REMARK  status: ('A' for Active; 'I' for Inactive)
REMARK    1  A    between atoms: C2_2  and  N1_3 
REMARK    2  A    between atoms: N1_3  and  C3_4 
REMARK       I    between atoms: N1_3  and  C11_15 
REMARK    3  A    between atoms: C3_4  and  C4_5 
REMARK    4  A    between atoms: C8_9  and  O1_10 
REMARK    5  A    between atoms: C11_15  and  C12_17 
REMARK    6  A    between atoms: C13_18  and  C14_19 
REMARK    7  A    between atoms: C14_19  and  N4_20 
ROOT
HETATM    1  N1  UNL     1      25.477   2.849  51.234  1.00  0.00    -0.345 N 
HETATM    2  C11 UNL     1      24.127   3.301  51.471  1.00  0.00     0.243 C 
HETATM    3  O2  UNL     1      23.677   3.346  52.663  1.00  0.00    -0.268 OA
ENDROOT
BRANCH   1   4
HETATM    4  C2  UNL     1      26.114   2.746  49.914  1.00  0.00     0.122 C 
HETATM    5  C1  UNL     1      26.820   4.007  49.512  1.00  0.00     0.026 C 
ENDBRANCH   1   4
BRANCH   1   6
HETATM    6  C3  UNL     1      26.275   2.468  52.404  1.00  0.00     0.167 C 
BRANCH   6   7
HETATM    7  C4  UNL     1      26.578   1.022  52.442  1.00  0.00    -0.012 C 
HETATM    8  C5  UNL     1      25.581   0.160  52.577  1.00  0.00    -0.020 C 
HETATM    9  C6  UNL     1      25.896  -1.126  52.642  1.00  0.00    -0.009 C 
HETATM   10  C7  UNL     1      27.042  -1.246  53.588  1.00  0.00     0.083 C 
HETATM   11  C8  UNL     1      28.296  -1.778  53.034  1.00  0.00     0.245 C 
HETATM   12  N2  UNL     1      29.543  -1.374  53.572  1.00  0.00    -0.251 NA
HETATM   13  C9  UNL     1      29.744  -0.094  53.819  1.00  0.00     0.229 C 
HETATM   14  N3  UNL     1      28.522   0.331  53.407  1.00  0.00    -0.254 NA
HETATM   15  C10 UNL     1      27.988   0.584  52.324  1.00  0.00     0.127 C 
BRANCH  11  16
HETATM   16  O1  UNL     1      28.325  -3.197  52.892  1.00  0.00    -0.375 OA
HETATM   17  H12 UNL     1      28.912  -3.602  53.547  1.00  0.00     0.212 HD
ENDBRANCH  11  16
ENDBRANCH   6   7
ENDBRANCH   1   6
BRANCH   2  18
HETATM   18  C12 UNL     1      23.295   3.698  50.345  1.00  0.00     0.072 C 
HETATM   19  C13 UNL     1      22.359   2.968  49.793  1.00  0.00     0.008 C 
BRANCH  19  20
HETATM   20  C14 UNL     1      21.765   1.622  49.976  1.00  0.00     0.300 C 
BRANCH  20  21
HETATM   21  N4  UNL     1      20.360   1.668  50.244  1.00  0.00     0.096 N 
HETATM   22  C15 UNL     1      19.809   2.987  50.264  1.00  0.00     0.299 C 
HETATM   23  C16 UNL     1      19.052   3.235  51.579  1.00  0.00     0.198 C 
HETATM   24  O3  UNL     1      19.864   2.979  52.661  1.00  0.00    -0.388 OA
HETATM   25  C17 UNL     1      20.514   1.773  52.635  1.00  0.00     0.198 C 
HETATM   26  C18 UNL     1      20.056   0.958  51.457  1.00  0.00     0.299 C 
ENDBRANCH  20  21
ENDBRANCH  19  20
ENDBRANCH   2  18
TORSDOF 7
ENDMDL
MODEL 5
REMARK VINA RESULT:      -6.6      3.355      7.187
REMARK  7 active torsions:
REMARK  status: ('A' for Active; 'I' for Inactive)
REMARK    1  A    between atoms: C2_2  and  N1_3 
REMARK    2  A    between atoms: N1_3  and  C3_4 
REMARK       I    between atoms: N1_3  and  C11_15 
REMARK    3  A    between atoms: C3_4  and  C4_5 
REMARK    4  A    between atoms: C8_9  and  O1_10 
REMARK    5  A    between atoms: C11_15  and  C12_17 
REMARK    6  A    between atoms: C13_18  and  C14_19 
REMARK    7  A    between atoms: C14_19  and  N4_20 
ROOT
HETATM    1  N1  UNL     1      24.760   2.911  50.617  1.00  0.00    -0.345 N 
HETATM    2  C11 UNL     1      23.382   2.669  50.261  1.00  0.00     0.243 C 
HETATM    3  O2  UNL     1      22.533   2.399  51.172  1.00  0.00    -0.268 OA
ENDROOT
BRANCH   1   4
HETATM    4  C2  UNL     1      25.835   3.228  49.667  1.00  0.00     0.122 C 
HETATM    5  C1  UNL     1      26.119   4.698  49.584  1.00  0.00     0.026 C 
ENDBRANCH   1   4
BRANCH   1   6
HETATM    6  C3  UNL     1      25.110   2.840  52.039  1.00  0.00     0.167 C 
BRANCH   6   7
HETATM    7  C4  UNL     1      25.913   1.644  52.370  1.00  0.00    -0.012 C 
HETATM    8  C5  UNL     1      25.297   0.484  52.544  1.00  0.00    -0.020 C 
HETATM    9  C6  UNL     1      26.048  -0.558  52.874  1.00  0.00    -0.009 C 
HETATM   10  C7  UNL     1      26.977  -0.103  53.949  1.00  0.00     0.083 C 
HETATM   11  C8  UNL     1      28.414  -0.165  53.642  1.00  0.00     0.245 C 
HETATM   12  N2  UNL     1      29.311   0.758  54.235  1.00  0.00    -0.251 NA
HETATM   13  C9  UNL     1      28.980   2.034  54.270  1.00  0.00     0.229 C 
HETATM   14  N3  UNL     1      27.778   1.893  53.654  1.00  0.00    -0.254 NA
HETATM   15  C10 UNL     1      27.383   1.782  52.490  1.00  0.00     0.127 C 
BRANCH  11  16
HETATM   16  O1  UNL     1      28.988  -1.465  53.761  1.00  0.00    -0.375 OA
HETATM   17  H12 UNL     1      28.585  -2.084  53.135  1.00  0.00     0.212 HD
ENDBRANCH  11  16
ENDBRANCH   6   7
ENDBRANCH   1   6
BRANCH   2  18
HETATM   18  C12 UNL     1      22.980   2.736  48.863  1.00  0.00     0.072 C 
HETATM   19  C13 UNL     1      22.683   3.829  48.207  1.00  0.00     0.008 C 
BRANCH  19  20
HETATM   20  C14 UNL     1      22.607   5.285  48.475  1.00  0.00     0.300 C 
BRANCH  20  21
HETATM   21  N4  UNL     1      21.277   5.726  48.770  1.00  0.00     0.096 N 
HETATM   22  C15 UNL     1      21.038   7.105  48.477  1.00  0.00     0.299 C 
HETATM   23  C16 UNL     1      20.479   7.829  49.712  1.00  0.00     0.198 C 
HETATM   24  O3  UNL     1      21.308   7.649  50.796  1.00  0.00    -0.388 OA
HETATM   25  C17 UNL     1      21.668   6.352  51.051  1.00  0.00     0.198 C 
HETATM   26  C18 UNL     1      20.935   5.416  50.131  1.00  0.00     0.299 C 
ENDBRANCH  20  21
ENDBRANCH  19  20
ENDBRANCH   2  18
TORSDOF 7
ENDMDL
MODEL 6
REMARK VINA RESULT:      -6.6      2.406      7.617
REMARK  7 active torsions:
REMARK  status: ('A' for Active; 'I' for Inactive)
REMARK    1  A    between atoms: C2_2  and  N1_3 
REMARK    2  A    between atoms: N1_3  and  C3_4 
REMARK       I    between atoms: N1_3  and  C11_15 
REMARK    3  A    between atoms: C3_4  and  C4_5 
REMARK    4  A    between atoms: C8_9  and  O1_10 
REMARK    5  A    between atoms: C11_15  and  C12_17 
REMARK    6  A    between atoms: C13_18  and  C14_19 
REMARK    7  A    between atoms: C14_19  and  N4_20 
ROOT
HETATM    1  N1  UNL     1      22.689   1.550  52.069  1.00  0.00    -0.345 N 
HETATM    2  C11 UNL     1      21.899   1.906  50.914  1.00  0.00     0.243 C 
HETATM    3  O2  UNL     1      21.839   3.124  50.541  1.00  0.00    -0.268 OA
ENDROOT
BRANCH   1   4
HETATM    4  C2  UNL     1      22.837   0.190  52.604  1.00  0.00     0.122 C 
HETATM    5  C1  UNL     1      22.176   0.018  53.939  1.00  0.00     0.026 C 
ENDBRANCH   1   4
BRANCH   1   6
HETATM    6  C3  UNL     1      23.401   2.632  52.757  1.00  0.00     0.167 C 
BRANCH   6   7
HETATM    7  C4  UNL     1      24.870   2.505  52.652  1.00  0.00    -0.012 C 
HETATM    8  C5  UNL     1      25.440   2.611  51.461  1.00  0.00    -0.020 C 
HETATM    9  C6  UNL     1      26.756   2.457  51.403  1.00  0.00    -0.009 C 
HETATM   10  C7  UNL     1      27.091   1.257  52.222  1.00  0.00     0.083 C 
HETATM   11  C8  UNL     1      27.961   1.480  53.387  1.00  0.00     0.245 C 
HETATM   12  N2  UNL     1      27.845   0.656  54.534  1.00  0.00    -0.251 NA
HETATM   13  C9  UNL     1      26.642   0.380  54.999  1.00  0.00     0.229 C 
HETATM   14  N3  UNL     1      25.955   1.085  54.064  1.00  0.00    -0.254 NA
HETATM   15  C10 UNL     1      25.656   2.268  53.885  1.00  0.00     0.127 C 
BRANCH  11  16
HETATM   16  O1  UNL     1      29.347   1.596  53.075  1.00  0.00    -0.375 OA
HETATM   17  H12 UNL     1      29.717   0.744  52.803  1.00  0.00     0.212 HD
ENDBRANCH  11  16
ENDBRANCH   6   7
ENDBRANCH   1   6
BRANCH   2  18
HETATM   18  C12 UNL     1      21.178   0.869  50.191  1.00  0.00     0.072 C 
HETATM   19  C13 UNL     1      19.905   0.595  50.318  1.00  0.00     0.008 C 
BRANCH  19  20
HETATM   20  C14 UNL     1      18.749   1.086  51.105  1.00  0.00     0.300 C 
BRANCH  20  21
HETATM   21  N4  UNL     1      18.147   2.254  50.536  1.00  0.00     0.096 N 
HETATM   22  C15 UNL     1      18.283   3.432  51.335  1.00  0.00     0.299 C 
HETATM   23  C16 UNL     1      16.909   4.071  51.592  1.00  0.00     0.198 C 
HETATM   24  O3  UNL     1      16.042   3.152  52.139  1.00  0.00    -0.388 OA
HETATM   25  C17 UNL     1      15.962   1.954  51.478  1.00  0.00     0.198 C 
HETATM   26  C18 UNL     1      16.770   2.002  50.210  1.00  0.00     0.299 C 
ENDBRANCH  20  21
ENDBRANCH  19  20
ENDBRANCH   2  18
TORSDOF 7
ENDMDL
MODEL 7
REMARK VINA RESULT:      -6.5      2.540      7.213
REMARK  7 active torsions:
REMARK  status: ('A' for Active; 'I' for Inactive)
REMARK    1  A    between atoms: C2_2  and  N1_3 
REMARK    2  A    between atoms: N1_3  and  C3_4 
REMARK       I    between atoms: N1_3  and  C11_15 
REMARK    3  A    between atoms: C3_4  and  C4_5 
REMARK    4  A    between atoms: C8_9  and  O1_10 
REMARK    5  A    between atoms: C11_15  and  C12_17 
REMARK    6  A    between atoms: C13_18  and  C14_19 
REMARK    7  A    between atoms: C14_19  and  N4_20 
ROOT
HETATM    1  N1  UNL     1      24.418   3.015  51.427  1.00  0.00    -0.345 N 
HETATM    2  C11 UNL     1      23.260   2.327  50.908  1.00  0.00     0.243 C 
HETATM    3  O2  UNL     1      22.581   1.567  51.673  1.00  0.00    -0.268 OA
ENDROOT
BRANCH   1   4
HETATM    4  C2  UNL     1      25.286   3.913  50.653  1.00  0.00     0.122 C 
HETATM    5  C1  UNL     1      26.212   3.172  49.734  1.00  0.00     0.026 C 
ENDBRANCH   1   4
BRANCH   1   6
HETATM    6  C3  UNL     1      24.750   2.802  52.840  1.00  0.00     0.167 C 
BRANCH   6   7
HETATM    7  C4  UNL     1      25.636   1.638  53.049  1.00  0.00    -0.012 C 
HETATM    8  C5  UNL     1      25.105   0.489  53.442  1.00  0.00    -0.020 C 
HETATM    9  C6  UNL     1      25.937  -0.522  53.653  1.00  0.00    -0.009 C 
HETATM   10  C7  UNL     1      27.083   0.013  54.443  1.00  0.00     0.083 C 
HETATM   11  C8  UNL     1      28.407  -0.062  53.808  1.00  0.00     0.245 C 
HETATM   12  N2  UNL     1      29.398   0.906  54.107  1.00  0.00    -0.251 NA
HETATM   13  C9  UNL     1      29.055   2.179  54.135  1.00  0.00     0.229 C 
HETATM   14  N3  UNL     1      27.746   1.988  53.833  1.00  0.00    -0.254 NA
HETATM   15  C10 UNL     1      27.089   1.793  52.807  1.00  0.00     0.127 C 
BRANCH  11  16
HETATM   16  O1  UNL     1      29.023  -1.346  53.873  1.00  0.00    -0.375 OA
HETATM   17  H12 UNL     1      29.033  -1.774  53.005  1.00  0.00     0.212 HD
ENDBRANCH  11  16
ENDBRANCH   6   7
ENDBRANCH   1   6
BRANCH   2  18
HETATM   18  C12 UNL     1      22.882   2.511  49.514  1.00  0.00     0.072 C 
HETATM   19  C13 UNL     1      21.923   3.287  49.080  1.00  0.00     0.008 C 
BRANCH  19  20
HETATM   20  C14 UNL     1      20.910   4.207  49.652  1.00  0.00     0.300 C 
BRANCH  20  21
HETATM   21  N4  UNL     1      19.572   3.720  49.503  1.00  0.00     0.096 N 
HETATM   22  C15 UNL     1      18.560   4.695  49.769  1.00  0.00     0.299 C 
HETATM   23  C16 UNL     1      17.568   4.170  50.819  1.00  0.00     0.198 C 
HETATM   24  O3  UNL     1      18.234   3.767  51.955  1.00  0.00    -0.388 OA
HETATM   25  C17 UNL     1      19.293   2.923  51.747  1.00  0.00     0.198 C 
HETATM   26  C18 UNL     1      19.377   2.537  50.296  1.00  0.00     0.299 C 
ENDBRANCH  20  21
ENDBRANCH  19  20
ENDBRANCH   2  18
TORSDOF 7
ENDMDL
MODEL 8
REMARK VINA RESULT:      -6.5      2.156      4.999
REMARK  7 active torsions:
REMARK  status: ('A' for Active; 'I' for Inactive)
REMARK    1  A    between atoms: C2_2  and  N1_3 
REMARK    2  A    between atoms: N1_3  and  C3_4 
REMARK       I    between atoms: N1_3  and  C11_15 
REMARK    3  A    between atoms: C3_4  and  C4_5 
REMARK    4  A    between atoms: C8_9  and  O1_10 
REMARK    5  A    between atoms: C11_15  and  C12_17 
REMARK    6  A    between atoms: C13_18  and  C14_19 
REMARK    7  A    between atoms: C14_19  and  N4_20 
ROOT
HETATM    1  N1  UNL     1      22.101   1.109  52.348  1.00  0.00    -0.345 N 
HETATM    2  C11 UNL     1      23.400   0.976  52.964  1.00  0.00     0.243 C 
HETATM    3  O2  UNL     1      24.037   2.020  53.326  1.00  0.00    -0.268 OA
ENDROOT
BRANCH   1   4
HETATM    4  C2  UNL     1      21.268  -0.009  51.884  1.00  0.00     0.122 C 
HETATM    5  C1  UNL     1      19.801   0.291  51.964  1.00  0.00     0.026 C 
ENDBRANCH   1   4
BRANCH   1   6
HETATM    6  C3  UNL     1      21.572   2.466  52.179  1.00  0.00     0.167 C 
BRANCH   6   7
HETATM    7  C4  UNL     1      22.133   3.154  50.998  1.00  0.00    -0.012 C 
HETATM    8  C5  UNL     1      22.500   2.433  49.948  1.00  0.00    -0.020 C 
HETATM    9  C6  UNL     1      23.031   3.083  48.921  1.00  0.00    -0.009 C 
HETATM   10  C7  UNL     1      24.028   4.041  49.481  1.00  0.00     0.083 C 
HETATM   11  C8  UNL     1      23.773   5.469  49.237  1.00  0.00     0.245 C 
HETATM   12  N2  UNL     1      24.211   6.441  50.170  1.00  0.00    -0.251 NA
HETATM   13  C9  UNL     1      24.006   6.228  51.455  1.00  0.00     0.229 C 
HETATM   14  N3  UNL     1      23.397   5.023  51.311  1.00  0.00    -0.254 NA
HETATM   15  C10 UNL     1      22.263   4.629  51.025  1.00  0.00     0.127 C 
BRANCH  11  16
HETATM   16  O1  UNL     1      24.139   5.921  47.936  1.00  0.00    -0.375 OA
HETATM   17  H12 UNL     1      23.907   5.268  47.260  1.00  0.00     0.212 HD
ENDBRANCH  11  16
ENDBRANCH   6   7
ENDBRANCH   1   6
BRANCH   2  18
HETATM   18  C12 UNL     1      23.968  -0.350  53.163  1.00  0.00     0.072 C 
HETATM   19  C13 UNL     1      25.056  -0.620  53.838  1.00  0.00     0.008 C 
BRANCH  19  20
HETATM   20  C14 UNL     1      26.086   0.122  54.603  1.00  0.00     0.300 C 
BRANCH  20  21
HETATM   21  N4  UNL     1      27.382   0.057  53.997  1.00  0.00     0.096 N 
HETATM   22  C15 UNL     1      28.466   0.261  54.907  1.00  0.00     0.299 C 
HETATM   23  C16 UNL     1      29.388   1.382  54.403  1.00  0.00     0.198 C 
HETATM   24  O3  UNL     1      28.668   2.532  54.163  1.00  0.00    -0.388 OA
HETATM   25  C17 UNL     1      27.546   2.371  53.393  1.00  0.00     0.198 C 
HETATM   26  C18 UNL     1      27.461   0.960  52.881  1.00  0.00     0.299 C 
ENDBRANCH  20  21
ENDBRANCH  19  20
ENDBRANCH   2  18
TORSDOF 7
ENDMDL
MODEL 9
REMARK VINA RESULT:      -6.5      3.214      6.186
REMARK  7 active torsions:
REMARK  status: ('A' for Active; 'I' for Inactive)
REMARK    1  A    between atoms: C2_2  and  N1_3 
REMARK    2  A    between atoms: N1_3  and  C3_4 
REMARK       I    between atoms: N1_3  and  C11_15 
REMARK    3  A    between atoms: C3_4  and  C4_5 
REMARK    4  A    between atoms: C8_9  and  O1_10 
REMARK    5  A    between atoms: C11_15  and  C12_17 
REMARK    6  A    between atoms: C13_18  and  C14_19 
REMARK    7  A    between atoms: C14_19  and  N4_20 
ROOT
HETATM    1  N1  UNL     1      23.051   3.130  50.938  1.00  0.00    -0.345 N 
HETATM    2  C11 UNL     1      23.263   3.624  49.598  1.00  0.00     0.243 C 
HETATM    3  O2  UNL     1      23.799   2.867  48.724  1.00  0.00    -0.268 OA
ENDROOT
BRANCH   1   4
HETATM    4  C2  UNL     1      22.449   3.898  52.037  1.00  0.00     0.122 C 
HETATM    5  C1  UNL     1      23.448   4.752  52.760  1.00  0.00     0.026 C 
ENDBRANCH   1   4
BRANCH   1   6
HETATM    6  C3  UNL     1      23.464   1.752  51.221  1.00  0.00     0.167 C 
BRANCH   6   7
HETATM    7  C4  UNL     1      24.729   1.680  51.983  1.00  0.00    -0.012 C 
HETATM    8  C5  UNL     1      25.862   2.006  51.379  1.00  0.00    -0.020 C 
HETATM    9  C6  UNL     1      26.979   1.896  52.085  1.00  0.00    -0.009 C 
HETATM   10  C7  UNL     1      26.925   0.579  52.783  1.00  0.00     0.083 C 
HETATM   11  C8  UNL     1      26.933   0.615  54.253  1.00  0.00     0.245 C 
HETATM   12  N2  UNL     1      26.280  -0.400  54.996  1.00  0.00    -0.251 NA
HETATM   13  C9  UNL     1      25.073  -0.781  54.627  1.00  0.00     0.229 C 
HETATM   14  N3  UNL     1      24.968   0.060  53.566  1.00  0.00    -0.254 NA
HETATM   15  C10 UNL     1      24.686   1.250  53.399  1.00  0.00     0.127 C 
BRANCH  11  16
HETATM   16  O1  UNL     1      28.220   0.817  54.833  1.00  0.00    -0.375 OA
HETATM   17  H12 UNL     1      28.454   1.756  54.848  1.00  0.00     0.212 HD
ENDBRANCH  11  16
ENDBRANCH   6   7
ENDBRANCH   1   6
BRANCH   2  18
HETATM   18  C12 UNL     1      22.862   4.983  49.264  1.00  0.00     0.072 C 
HETATM   19  C13 UNL     1      23.643   6.033  49.278  1.00  0.00     0.008 C 
BRANCH  19  20
HETATM   20  C14 UNL     1      25.060   6.344  49.582  1.00  0.00     0.300 C 
BRANCH  20  21
HETATM   21  N4  UNL     1      25.894   6.327  48.419  1.00  0.00     0.096 N 
HETATM   22  C15 UNL     1      27.162   5.697  48.615  1.00  0.00     0.299 C 
HETATM   23  C16 UNL     1      28.303   6.636  48.192  1.00  0.00     0.198 C 
HETATM   24  O3  UNL     1      28.201   7.846  48.843  1.00  0.00    -0.388 OA
HETATM   25  C17 UNL     1      26.967   8.439  48.789  1.00  0.00     0.198 C 
HETATM   26  C18 UNL     1      26.049   7.656  47.892  1.00  0.00     0.299 C 
ENDBRANCH  20  21
ENDBRANCH  19  20
ENDBRANCH   2  18
TORSDOF 7
ENDMDL
