MODEL 1
REMARK VINA RESULT:      -7.4      0.000      0.000
REMARK  10 active torsions:
REMARK  status: ('A' for Active; 'I' for Inactive)
REMARK    1  A    between atoms: O1_2  and  C2_3 
REMARK    2  A    between atoms: C2_3  and  C3_4 
REMARK    3  A    between atoms: C3_4  and  O2_5 
REMARK    4  A    between atoms: O2_5  and  C4_6 
REMARK    5  A    between atoms: C8_12  and  N3_13 
REMARK    6  A    between atoms: N3_13  and  C9_14 
REMARK    7  A    between atoms: C18_23  and  O3_24 
REMARK    8  A    between atoms: O3_24  and  C19_25 
REMARK    9  A    between atoms: C19_25  and  C20_26 
REMARK   10  A    between atoms: C20_26  and  O4_27 
ROOT
HETATM    1  C4  UNL     1      21.952   1.939  51.576  1.00  0.00     0.104 A 
HETATM    2  C5  UNL     1      22.924   2.452  50.751  1.00  0.00     0.072 A 
HETATM    3  C6  UNL     1      24.274   2.453  51.036  1.00  0.00     0.075 A 
HETATM    4  N1  UNL     1      25.212   2.962  50.210  1.00  0.00    -0.241 NA
HETATM    5  C7  UNL     1      26.538   2.940  50.539  1.00  0.00     0.236 A 
HETATM    6  N2  UNL     1      26.932   2.392  51.728  1.00  0.00    -0.224 NA
HETATM    7  C8  UNL     1      26.022   1.876  52.574  1.00  0.00     0.142 A 
HETATM    8  C16 UNL     1      24.692   1.905  52.232  1.00  0.00     0.042 A 
HETATM    9  C17 UNL     1      23.730   1.386  53.072  1.00  0.00     0.057 A 
HETATM   10  C18 UNL     1      22.367   1.374  52.805  1.00  0.00     0.103 A 
ENDROOT
BRANCH   7  11
HETATM   11  N3  UNL     1      26.492   1.321  53.792  1.00  0.00    -0.339 N 
HETATM   12  H10 UNL     1      26.377   1.578  54.770  1.00  0.00     0.167 HD
BRANCH  11  13
HETATM   13  C9  UNL     1      27.306   0.154  53.715  1.00  0.00     0.045 C 
HETATM   14  C10 UNL     1      28.532   0.146  54.213  1.00  0.00     0.016 C 
HETATM   15  C11 UNL     1      29.473  -0.465  53.607  1.00  0.00     0.001 C 
HETATM   16  C12 UNL     1      29.599  -1.728  53.511  1.00  0.00    -0.013 C 
HETATM   17  C13 UNL     1      28.697  -2.448  52.878  1.00  0.00     0.013 C 
HETATM   18  C14 UNL     1      27.268  -2.150  52.679  1.00  0.00     0.003 C 
HETATM   19  C15 UNL     1      26.674  -1.004  53.052  1.00  0.00     0.030 C 
ENDBRANCH  11  13
ENDBRANCH   7  11
BRANCH  10  20
HETATM   20  O3  UNL     1      21.397   0.881  53.596  1.00  0.00    -0.346 OA
BRANCH  20  21
HETATM   21  C19 UNL     1      20.842  -0.359  53.789  1.00  0.00     0.201 C 
BRANCH  21  22
HETATM   22  C20 UNL     1      21.800  -1.510  53.966  1.00  0.00     0.193 C 
BRANCH  22  23
HETATM   23  O4  UNL     1      22.120  -1.715  55.309  1.00  0.00    -0.394 OA
HETATM   24  C21 UNL     1      23.468  -1.406  55.554  1.00  0.00     0.201 C 
ENDBRANCH  22  23
ENDBRANCH  21  22
ENDBRANCH  20  21
ENDBRANCH  10  20
BRANCH   1  25
HETATM   25  O2  UNL     1      20.628   1.925  51.318  1.00  0.00    -0.346 OA
BRANCH  25  26
HETATM   26  C3  UNL     1      19.845   1.123  50.538  1.00  0.00     0.201 C 
BRANCH  26  27
HETATM   27  C2  UNL     1      18.407   0.972  50.892  1.00  0.00     0.193 C 
BRANCH  27  28
HETATM   28  O1  UNL     1      18.069  -0.390  51.042  1.00  0.00    -0.394 OA
HETATM   29  C1  UNL     1      17.403  -0.482  52.279  1.00  0.00     0.201 C 
ENDBRANCH  27  28
ENDBRANCH  26  27
ENDBRANCH  25  26
ENDBRANCH   1  25
TORSDOF 10
ENDMDL
MODEL 2
REMARK VINA RESULT:      -7.3      1.921      4.086
REMARK  10 active torsions:
REMARK  status: ('A' for Active; 'I' for Inactive)
REMARK    1  A    between atoms: O1_2  and  C2_3 
REMARK    2  A    between atoms: C2_3  and  C3_4 
REMARK    3  A    between atoms: C3_4  and  O2_5 
REMARK    4  A    between atoms: O2_5  and  C4_6 
REMARK    5  A    between atoms: C8_12  and  N3_13 
REMARK    6  A    between atoms: N3_13  and  C9_14 
REMARK    7  A    between atoms: C18_23  and  O3_24 
REMARK    8  A    between atoms: O3_24  and  C19_25 
REMARK    9  A    between atoms: C19_25  and  C20_26 
REMARK   10  A    between atoms: C20_26  and  O4_27 
ROOT
HETATM    1  C4  UNL     1      20.666  -0.230  52.590  1.00  0.00     0.104 A 
HETATM    2  C5  UNL     1      21.025  -0.877  53.748  1.00  0.00     0.072 A 
HETATM    3  C6  UNL     1      22.305  -0.914  54.260  1.00  0.00     0.075 A 
HETATM    4  N1  UNL     1      22.635  -1.557  55.400  1.00  0.00    -0.241 NA
HETATM    5  C7  UNL     1      23.920  -1.565  55.866  1.00  0.00     0.236 A 
HETATM    6  N2  UNL     1      24.898  -0.910  55.169  1.00  0.00    -0.224 NA
HETATM    7  C8  UNL     1      24.602  -0.261  54.029  1.00  0.00     0.142 A 
HETATM    8  C16 UNL     1      23.307  -0.260  53.571  1.00  0.00     0.042 A 
HETATM    9  C17 UNL     1      22.964   0.394  52.408  1.00  0.00     0.057 A 
HETATM   10  C18 UNL     1      21.682   0.444  51.874  1.00  0.00     0.103 A 
ENDROOT
BRANCH   7  11
HETATM   11  N3  UNL     1      25.658   0.400  53.351  1.00  0.00    -0.339 N 
HETATM   12  H10 UNL     1      25.752   1.319  52.925  1.00  0.00     0.167 HD
BRANCH  11  13
HETATM   13  C9  UNL     1      26.885  -0.309  53.192  1.00  0.00     0.045 C 
HETATM   14  C10 UNL     1      26.930  -1.445  52.515  1.00  0.00     0.016 C 
HETATM   15  C11 UNL     1      27.672  -2.405  52.910  1.00  0.00     0.001 C 
HETATM   16  C12 UNL     1      28.944  -2.428  52.864  1.00  0.00    -0.013 C 
HETATM   17  C13 UNL     1      29.658  -1.566  53.556  1.00  0.00     0.013 C 
HETATM   18  C14 UNL     1      29.278  -0.212  53.997  1.00  0.00     0.003 C 
HETATM   19  C15 UNL     1      28.057   0.323  53.829  1.00  0.00     0.030 C 
ENDBRANCH  11  13
ENDBRANCH   7  11
BRANCH  10  20
HETATM   20  O3  UNL     1      21.307   1.069  50.743  1.00  0.00    -0.346 OA
BRANCH  20  21
HETATM   21  C19 UNL     1      21.877   1.266  49.510  1.00  0.00     0.201 C 
BRANCH  21  22
HETATM   22  C20 UNL     1      22.484   2.621  49.253  1.00  0.00     0.193 C 
BRANCH  22  23
HETATM   23  O4  UNL     1      23.712   2.768  49.901  1.00  0.00    -0.394 OA
HETATM   24  C21 UNL     1      23.670   3.835  50.815  1.00  0.00     0.201 C 
ENDBRANCH  22  23
ENDBRANCH  21  22
ENDBRANCH  20  21
ENDBRANCH  10  20
BRANCH   1  25
HETATM   25  O2  UNL     1      19.422  -0.178  52.071  1.00  0.00    -0.346 OA
BRANCH  25  26
HETATM   26  C3  UNL     1      18.183  -0.106  52.640  1.00  0.00     0.201 C 
BRANCH  26  27
HETATM   27  C2  UNL     1      17.364  -1.348  52.720  1.00  0.00     0.193 C 
BRANCH  27  28
HETATM   28  O1  UNL     1      17.777  -2.150  53.805  1.00  0.00    -0.394 OA
HETATM   29  C1  UNL     1      17.293  -3.442  53.527  1.00  0.00     0.201 C 
ENDBRANCH  27  28
ENDBRANCH  26  27
ENDBRANCH  25  26
ENDBRANCH   1  25
TORSDOF 10
ENDMDL
MODEL 3
REMARK VINA RESULT:      -7.2      3.317      7.667
REMARK  10 active torsions:
REMARK  status: ('A' for Active; 'I' for Inactive)
REMARK    1  A    between atoms: O1_2  and  C2_3 
REMARK    2  A    between atoms: C2_3  and  C3_4 
REMARK    3  A    between atoms: C3_4  and  O2_5 
REMARK    4  A    between atoms: O2_5  and  C4_6 
REMARK    5  A    between atoms: C8_12  and  N3_13 
REMARK    6  A    between atoms: N3_13  and  C9_14 
REMARK    7  A    between atoms: C18_23  and  O3_24 
REMARK    8  A    between atoms: O3_24  and  C19_25 
REMARK    9  A    between atoms: C19_25  and  C20_26 
REMARK   10  A    between atoms: C20_26  and  O4_27 
ROOT
HETATM    1  C4  UNL     1      26.018  -0.196  52.709  1.00  0.00     0.104 A 
HETATM    2  C5  UNL     1      25.074  -0.831  53.480  1.00  0.00     0.072 A 
HETATM    3  C6  UNL     1      23.771  -0.407  53.630  1.00  0.00     0.075 A 
HETATM    4  N1  UNL     1      22.860  -1.048  54.393  1.00  0.00    -0.241 NA
HETATM    5  C7  UNL     1      21.579  -0.586  54.510  1.00  0.00     0.236 A 
HETATM    6  N2  UNL     1      21.203   0.547  53.845  1.00  0.00    -0.224 NA
HETATM    7  C8  UNL     1      22.087   1.209  53.077  1.00  0.00     0.142 A 
HETATM    8  C16 UNL     1      23.372   0.736  52.967  1.00  0.00     0.042 A 
HETATM    9  C17 UNL     1      24.306   1.386  52.190  1.00  0.00     0.057 A 
HETATM   10  C18 UNL     1      25.623   0.977  52.024  1.00  0.00     0.103 A 
ENDROOT
BRANCH   7  11
HETATM   11  N3  UNL     1      21.638   2.379  52.411  1.00  0.00    -0.339 N 
HETATM   12  H10 UNL     1      21.301   3.283  52.733  1.00  0.00     0.167 HD
BRANCH  11  13
HETATM   13  C9  UNL     1      21.627   2.364  50.986  1.00  0.00     0.045 C 
HETATM   14  C10 UNL     1      21.045   1.378  50.321  1.00  0.00     0.016 C 
HETATM   15  C11 UNL     1      21.567   0.922  49.251  1.00  0.00     0.001 C 
HETATM   16  C12 UNL     1      21.620   1.528  48.132  1.00  0.00    -0.013 C 
HETATM   17  C13 UNL     1      22.295   2.651  48.006  1.00  0.00     0.013 C 
HETATM   18  C14 UNL     1      22.601   3.653  49.043  1.00  0.00     0.003 C 
HETATM   19  C15 UNL     1      22.300   3.511  50.344  1.00  0.00     0.030 C 
ENDBRANCH  11  13
ENDBRANCH   7  11
BRANCH  10  20
HETATM   20  O3  UNL     1      26.565   1.583  51.278  1.00  0.00    -0.346 OA
BRANCH  20  21
HETATM   21  C19 UNL     1      26.803   2.875  50.881  1.00  0.00     0.201 C 
BRANCH  21  22
HETATM   22  C20 UNL     1      26.255   3.283  49.537  1.00  0.00     0.193 C 
BRANCH  22  23
HETATM   23  O4  UNL     1      27.008   4.309  48.962  1.00  0.00    -0.394 OA
HETATM   24  C21 UNL     1      26.294   5.519  48.975  1.00  0.00     0.201 C 
ENDBRANCH  22  23
ENDBRANCH  21  22
ENDBRANCH  20  21
ENDBRANCH  10  20
BRANCH   1  25
HETATM   25  O2  UNL     1      27.298  -0.592  52.545  1.00  0.00    -0.346 OA
BRANCH  25  26
HETATM   26  C3  UNL     1      28.302  -0.869  53.427  1.00  0.00     0.201 C 
BRANCH  26  27
HETATM   27  C2  UNL     1      28.955   0.263  54.140  1.00  0.00     0.193 C 
BRANCH  27  28
HETATM   28  O1  UNL     1      29.311   1.285  53.235  1.00  0.00    -0.394 OA
HETATM   29  C1  UNL     1      28.845   2.482  53.811  1.00  0.00     0.201 C 
ENDBRANCH  27  28
ENDBRANCH  26  27
ENDBRANCH  25  26
ENDBRANCH   1  25
TORSDOF 10
ENDMDL
MODEL 4
REMARK VINA RESULT:      -7.1      1.194      1.551
REMARK  10 active torsions:
REMARK  status: ('A' for Active; 'I' for Inactive)
REMARK    1  A    between atoms: O1_2  and  C2_3 
REMARK    2  A    between atoms: C2_3  and  C3_4 
REMARK    3  A    between atoms: C3_4  and  O2_5 
REMARK    4  A    between atoms: O2_5  and  C4_6 
REMARK    5  A    between atoms: C8_12  and  N3_13 
REMARK    6  A    between atoms: N3_13  and  C9_14 
REMARK    7  A    between atoms: C18_23  and  O3_24 
REMARK    8  A    between atoms: O3_24  and  C19_25 
REMARK    9  A    between atoms: C19_25  and  C20_26 
REMARK   10  A    between atoms: C20_26  and  O4_27 
ROOT
HETATM    1  C4  UNL     1      21.957   1.690  51.113  1.00  0.00     0.104 A 
HETATM    2  C5  UNL     1      22.975   2.320  50.437  1.00  0.00     0.072 A 
HETATM    3  C6  UNL     1      24.282   2.382  50.871  1.00  0.00     0.075 A 
HETATM    4  N1  UNL     1      25.266   3.007  50.190  1.00  0.00    -0.241 NA
HETATM    5  C7  UNL     1      26.548   3.041  50.664  1.00  0.00     0.236 A 
HETATM    6  N2  UNL     1      26.849   2.433  51.850  1.00  0.00    -0.224 NA
HETATM    7  C8  UNL     1      25.891   1.802  52.553  1.00  0.00     0.142 A 
HETATM    8  C16 UNL     1      24.607   1.775  52.067  1.00  0.00     0.042 A 
HETATM    9  C17 UNL     1      23.598   1.139  52.758  1.00  0.00     0.057 A 
HETATM   10  C18 UNL     1      22.275   1.063  52.340  1.00  0.00     0.103 A 
ENDROOT
BRANCH   7  11
HETATM   11  N3  UNL     1      26.264   1.190  53.777  1.00  0.00    -0.339 N 
HETATM   12  H10 UNL     1      26.021   1.362  54.750  1.00  0.00     0.167 HD
BRANCH  11  13
HETATM   13  C9  UNL     1      27.171   0.091  53.716  1.00  0.00     0.045 C 
HETATM   14  C10 UNL     1      28.377   0.175  54.255  1.00  0.00     0.016 C 
HETATM   15  C11 UNL     1      29.383  -0.352  53.675  1.00  0.00     0.001 C 
HETATM   16  C12 UNL     1      29.612  -1.601  53.570  1.00  0.00    -0.013 C 
HETATM   17  C13 UNL     1      28.791  -2.382  52.900  1.00  0.00     0.013 C 
HETATM   18  C14 UNL     1      27.349  -2.196  52.657  1.00  0.00     0.003 C 
HETATM   19  C15 UNL     1      26.655  -1.105  53.021  1.00  0.00     0.030 C 
ENDBRANCH  11  13
ENDBRANCH   7  11
BRANCH  10  20
HETATM   20  O3  UNL     1      21.262   0.455  52.984  1.00  0.00    -0.346 OA
BRANCH  20  21
HETATM   21  C19 UNL     1      21.125  -0.179  54.194  1.00  0.00     0.201 C 
BRANCH  21  22
HETATM   22  C20 UNL     1      21.502  -1.638  54.240  1.00  0.00     0.193 C 
BRANCH  22  23
HETATM   23  O4  UNL     1      22.174  -1.960  55.421  1.00  0.00    -0.394 OA
HETATM   24  C21 UNL     1      23.438  -1.349  55.459  1.00  0.00     0.201 C 
ENDBRANCH  22  23
ENDBRANCH  21  22
ENDBRANCH  20  21
ENDBRANCH  10  20
BRANCH   1  25
HETATM   25  O2  UNL     1      20.672   1.614  50.708  1.00  0.00    -0.346 OA
BRANCH  25  26
HETATM   26  C3  UNL     1      19.679   2.544  50.599  1.00  0.00     0.201 C 
BRANCH  26  27
HETATM   27  C2  UNL     1      19.510   3.255  49.301  1.00  0.00     0.193 C 
BRANCH  27  28
HETATM   28  O1  UNL     1      18.147   3.523  49.052  1.00  0.00    -0.394 OA
HETATM   29  C1  UNL     1      17.922   3.138  47.717  1.00  0.00     0.201 C 
ENDBRANCH  27  28
ENDBRANCH  26  27
ENDBRANCH  25  26
ENDBRANCH   1  25
TORSDOF 10
ENDMDL
MODEL 5
REMARK VINA RESULT:      -7.1      2.089      4.044
REMARK  10 active torsions:
REMARK  status: ('A' for Active; 'I' for Inactive)
REMARK    1  A    between atoms: O1_2  and  C2_3 
REMARK    2  A    between atoms: C2_3  and  C3_4 
REMARK    3  A    between atoms: C3_4  and  O2_5 
REMARK    4  A    between atoms: O2_5  and  C4_6 
REMARK    5  A    between atoms: C8_12  and  N3_13 
REMARK    6  A    between atoms: N3_13  and  C9_14 
REMARK    7  A    between atoms: C18_23  and  O3_24 
REMARK    8  A    between atoms: O3_24  and  C19_25 
REMARK    9  A    between atoms: C19_25  and  C20_26 
REMARK   10  A    between atoms: C20_26  and  O4_27 
ROOT
HETATM    1  C4  UNL     1      20.186  -0.380  52.800  1.00  0.00     0.104 A 
HETATM    2  C5  UNL     1      20.686  -0.983  53.929  1.00  0.00     0.072 A 
HETATM    3  C6  UNL     1      22.016  -0.980  54.295  1.00  0.00     0.075 A 
HETATM    4  N1  UNL     1      22.485  -1.580  55.410  1.00  0.00    -0.241 NA
HETATM    5  C7  UNL     1      23.814  -1.549  55.728  1.00  0.00     0.236 A 
HETATM    6  N2  UNL     1      24.693  -0.898  54.908  1.00  0.00    -0.224 NA
HETATM    7  C8  UNL     1      24.257  -0.291  53.789  1.00  0.00     0.142 A 
HETATM    8  C16 UNL     1      22.920  -0.330  53.479  1.00  0.00     0.042 A 
HETATM    9  C17 UNL     1      22.435   0.281  52.343  1.00  0.00     0.057 A 
HETATM   10  C18 UNL     1      21.101   0.290  51.955  1.00  0.00     0.103 A 
ENDROOT
BRANCH   7  11
HETATM   11  N3  UNL     1      25.217   0.367  52.978  1.00  0.00    -0.339 N 
HETATM   12  H10 UNL     1      25.170   1.155  52.335  1.00  0.00     0.167 HD
BRANCH  11  13
HETATM   13  C9  UNL     1      26.556  -0.119  53.014  1.00  0.00     0.045 C 
HETATM   14  C10 UNL     1      26.882  -1.257  52.421  1.00  0.00     0.016 C 
HETATM   15  C11 UNL     1      27.718  -2.053  52.963  1.00  0.00     0.001 C 
HETATM   16  C12 UNL     1      28.971  -1.854  53.074  1.00  0.00    -0.013 C 
HETATM   17  C13 UNL     1      29.432  -0.850  53.789  1.00  0.00     0.013 C 
HETATM   18  C14 UNL     1      28.773   0.432  54.094  1.00  0.00     0.003 C 
HETATM   19  C15 UNL     1      27.511   0.736  53.746  1.00  0.00     0.030 C 
ENDBRANCH  11  13
ENDBRANCH   7  11
BRANCH  10  20
HETATM   20  O3  UNL     1      20.588   0.871  50.855  1.00  0.00    -0.346 OA
BRANCH  20  21
HETATM   21  C19 UNL     1      20.539   2.155  50.371  1.00  0.00     0.201 C 
BRANCH  21  22
HETATM   22  C20 UNL     1      19.566   3.094  51.038  1.00  0.00     0.193 C 
BRANCH  22  23
HETATM   23  O4  UNL     1      19.977   3.431  52.329  1.00  0.00    -0.394 OA
HETATM   24  C21 UNL     1      21.238   4.050  52.308  1.00  0.00     0.201 C 
ENDBRANCH  22  23
ENDBRANCH  21  22
ENDBRANCH  20  21
ENDBRANCH  10  20
BRANCH   1  25
HETATM   25  O2  UNL     1      18.891  -0.367  52.422  1.00  0.00    -0.346 OA
BRANCH  25  26
HETATM   26  C3  UNL     1      17.776  -0.985  52.913  1.00  0.00     0.201 C 
BRANCH  26  27
HETATM   27  C2  UNL     1      16.444  -0.560  52.401  1.00  0.00     0.193 C 
BRANCH  27  28
HETATM   28  O1  UNL     1      15.750  -1.656  51.847  1.00  0.00    -0.394 OA
HETATM   29  C1  UNL     1      15.258  -1.206  50.607  1.00  0.00     0.201 C 
ENDBRANCH  27  28
ENDBRANCH  26  27
ENDBRANCH  25  26
ENDBRANCH   1  25
TORSDOF 10
ENDMDL
MODEL 6
REMARK VINA RESULT:      -7.1      2.139      4.175
REMARK  10 active torsions:
REMARK  status: ('A' for Active; 'I' for Inactive)
REMARK    1  A    between atoms: O1_2  and  C2_3 
REMARK    2  A    between atoms: C2_3  and  C3_4 
REMARK    3  A    between atoms: C3_4  and  O2_5 
REMARK    4  A    between atoms: O2_5  and  C4_6 
REMARK    5  A    between atoms: C8_12  and  N3_13 
REMARK    6  A    between atoms: N3_13  and  C9_14 
REMARK    7  A    between atoms: C18_23  and  O3_24 
REMARK    8  A    between atoms: O3_24  and  C19_25 
REMARK    9  A    between atoms: C19_25  and  C20_26 
REMARK   10  A    between atoms: C20_26  and  O4_27 
ROOT
HETATM    1  C4  UNL     1      20.231   0.039  52.151  1.00  0.00     0.104 A 
HETATM    2  C5  UNL     1      20.523  -0.529  53.368  1.00  0.00     0.072 A 
HETATM    3  C6  UNL     1      21.796  -0.678  53.878  1.00  0.00     0.075 A 
HETATM    4  N1  UNL     1      22.059  -1.240  55.077  1.00  0.00    -0.241 NA
HETATM    5  C7  UNL     1      23.340  -1.366  55.537  1.00  0.00     0.236 A 
HETATM    6  N2  UNL     1      24.382  -0.917  54.775  1.00  0.00    -0.224 NA
HETATM    7  C8  UNL     1      24.153  -0.353  53.575  1.00  0.00     0.142 A 
HETATM    8  C16 UNL     1      22.862  -0.232  53.123  1.00  0.00     0.042 A 
HETATM    9  C17 UNL     1      22.587   0.340  51.900  1.00  0.00     0.057 A 
HETATM   10  C18 UNL     1      21.314   0.501  51.367  1.00  0.00     0.103 A 
ENDROOT
BRANCH   7  11
HETATM   11  N3  UNL     1      25.275   0.093  52.830  1.00  0.00    -0.339 N 
HETATM   12  H10 UNL     1      25.390   0.752  52.063  1.00  0.00     0.167 HD
BRANCH  11  13
HETATM   13  C9  UNL     1      26.549  -0.449  53.167  1.00  0.00     0.045 C 
HETATM   14  C10 UNL     1      27.429   0.260  53.856  1.00  0.00     0.016 C 
HETATM   15  C11 UNL     1      28.672   0.195  53.580  1.00  0.00     0.001 C 
HETATM   16  C12 UNL     1      29.432  -0.802  53.803  1.00  0.00    -0.013 C 
HETATM   17  C13 UNL     1      29.219  -1.957  53.208  1.00  0.00     0.013 C 
HETATM   18  C14 UNL     1      27.947  -2.502  52.703  1.00  0.00     0.003 C 
HETATM   19  C15 UNL     1      26.786  -1.827  52.692  1.00  0.00     0.030 C 
ENDBRANCH  11  13
ENDBRANCH   7  11
BRANCH  10  20
HETATM   20  O3  UNL     1      21.003   1.051  50.179  1.00  0.00    -0.346 OA
BRANCH  20  21
HETATM   21  C19 UNL     1      21.531   0.986  48.914  1.00  0.00     0.201 C 
BRANCH  21  22
HETATM   22  C20 UNL     1      22.520   2.059  48.536  1.00  0.00     0.193 C 
BRANCH  22  23
HETATM   23  O4  UNL     1      22.600   3.055  49.511  1.00  0.00    -0.394 OA
HETATM   24  C21 UNL     1      23.291   4.177  49.025  1.00  0.00     0.201 C 
ENDBRANCH  22  23
ENDBRANCH  21  22
ENDBRANCH  20  21
ENDBRANCH  10  20
BRANCH   1  25
HETATM   25  O2  UNL     1      18.996   0.199  51.633  1.00  0.00    -0.346 OA
BRANCH  25  26
HETATM   26  C3  UNL     1      18.014   1.124  51.846  1.00  0.00     0.201 C 
BRANCH  26  27
HETATM   27  C2  UNL     1      18.233   2.516  51.364  1.00  0.00     0.193 C 
BRANCH  27  28
HETATM   28  O1  UNL     1      19.117   3.208  52.219  1.00  0.00    -0.394 OA
HETATM   29  C1  UNL     1      19.875   4.048  51.382  1.00  0.00     0.201 C 
ENDBRANCH  27  28
ENDBRANCH  26  27
ENDBRANCH  25  26
ENDBRANCH   1  25
TORSDOF 10
ENDMDL
MODEL 7
REMARK VINA RESULT:      -7.0      2.718      5.832
REMARK  10 active torsions:
REMARK  status: ('A' for Active; 'I' for Inactive)
REMARK    1  A    between atoms: O1_2  and  C2_3 
REMARK    2  A    between atoms: C2_3  and  C3_4 
REMARK    3  A    between atoms: C3_4  and  O2_5 
REMARK    4  A    between atoms: O2_5  and  C4_6 
REMARK    5  A    between atoms: C8_12  and  N3_13 
REMARK    6  A    between atoms: N3_13  and  C9_14 
REMARK    7  A    between atoms: C18_23  and  O3_24 
REMARK    8  A    between atoms: O3_24  and  C19_25 
REMARK    9  A    between atoms: C19_25  and  C20_26 
REMARK   10  A    between atoms: C20_26  and  O4_27 
ROOT
HETATM    1  C4  UNL     1      23.961   0.643  52.791  1.00  0.00     0.104 A 
HETATM    2  C5  UNL     1      22.964   0.885  51.877  1.00  0.00     0.072 A 
HETATM    3  C6  UNL     1      22.798   2.072  51.195  1.00  0.00     0.075 A 
HETATM    4  N1  UNL     1      21.810   2.287  50.300  1.00  0.00    -0.241 NA
HETATM    5  C7  UNL     1      21.688   3.483  49.650  1.00  0.00     0.236 A 
HETATM    6  N2  UNL     1      22.580   4.487  49.903  1.00  0.00    -0.224 NA
HETATM    7  C8  UNL     1      23.576   4.305  50.790  1.00  0.00     0.142 A 
HETATM    8  C16 UNL     1      23.688   3.099  51.437  1.00  0.00     0.042 A 
HETATM    9  C17 UNL     1      24.694   2.873  52.351  1.00  0.00     0.057 A 
HETATM   10  C18 UNL     1      24.880   1.686  53.050  1.00  0.00     0.103 A 
ENDROOT
BRANCH   7  11
HETATM   11  N3  UNL     1      24.470   5.383  51.010  1.00  0.00    -0.339 N 
HETATM   12  H10 UNL     1      24.557   6.083  51.743  1.00  0.00     0.167 HD
BRANCH  11  13
HETATM   13  C9  UNL     1      25.494   5.599  50.043  1.00  0.00     0.045 C 
HETATM   14  C10 UNL     1      26.047   4.583  49.399  1.00  0.00     0.016 C 
HETATM   15  C11 UNL     1      27.296   4.581  49.143  1.00  0.00     0.001 C 
HETATM   16  C12 UNL     1      27.883   5.325  48.292  1.00  0.00    -0.013 C 
HETATM   17  C13 UNL     1      27.894   6.633  48.437  1.00  0.00     0.013 C 
HETATM   18  C14 UNL     1      26.913   7.483  49.134  1.00  0.00     0.003 C 
HETATM   19  C15 UNL     1      25.866   7.013  49.833  1.00  0.00     0.030 C 
ENDBRANCH  11  13
ENDBRANCH   7  11
BRANCH  10  20
HETATM   20  O3  UNL     1      25.846   1.427  53.950  1.00  0.00    -0.346 OA
BRANCH  20  21
HETATM   21  C19 UNL     1      27.199   1.203  53.881  1.00  0.00     0.201 C 
BRANCH  21  22
HETATM   22  C20 UNL     1      27.729   0.017  54.646  1.00  0.00     0.193 C 
BRANCH  22  23
HETATM   23  O4  UNL     1      28.087  -1.029  53.793  1.00  0.00    -0.394 OA
HETATM   24  C21 UNL     1      29.468  -1.015  53.537  1.00  0.00     0.201 C 
ENDBRANCH  22  23
ENDBRANCH  21  22
ENDBRANCH  20  21
ENDBRANCH  10  20
BRANCH   1  25
HETATM   25  O2  UNL     1      24.145  -0.509  53.470  1.00  0.00    -0.346 OA
BRANCH  25  26
HETATM   26  C3  UNL     1      23.745  -0.930  54.705  1.00  0.00     0.201 C 
BRANCH  26  27
HETATM   27  C2  UNL     1      22.288  -0.949  55.012  1.00  0.00     0.193 C 
BRANCH  27  28
HETATM   28  O1  UNL     1      21.587  -1.723  54.063  1.00  0.00    -0.394 OA
HETATM   29  C1  UNL     1      20.393  -1.022  53.809  1.00  0.00     0.201 C 
ENDBRANCH  27  28
ENDBRANCH  26  27
ENDBRANCH  25  26
ENDBRANCH   1  25
TORSDOF 10
ENDMDL
MODEL 8
REMARK VINA RESULT:      -6.8      2.928      5.386
REMARK  10 active torsions:
REMARK  status: ('A' for Active; 'I' for Inactive)
REMARK    1  A    between atoms: O1_2  and  C2_3 
REMARK    2  A    between atoms: C2_3  and  C3_4 
REMARK    3  A    between atoms: C3_4  and  O2_5 
REMARK    4  A    between atoms: O2_5  and  C4_6 
REMARK    5  A    between atoms: C8_12  and  N3_13 
REMARK    6  A    between atoms: N3_13  and  C9_14 
REMARK    7  A    between atoms: C18_23  and  O3_24 
REMARK    8  A    between atoms: O3_24  and  C19_25 
REMARK    9  A    between atoms: C19_25  and  C20_26 
REMARK   10  A    between atoms: C20_26  and  O4_27 
ROOT
HETATM    1  C4  UNL     1      23.095   2.302  50.073  1.00  0.00     0.104 A 
HETATM    2  C5  UNL     1      22.342   1.355  50.723  1.00  0.00     0.072 A 
HETATM    3  C6  UNL     1      22.741   0.681  51.858  1.00  0.00     0.075 A 
HETATM    4  N1  UNL     1      21.984  -0.248  52.481  1.00  0.00    -0.241 NA
HETATM    5  C7  UNL     1      22.426  -0.889  53.604  1.00  0.00     0.236 A 
HETATM    6  N2  UNL     1      23.659  -0.591  54.114  1.00  0.00    -0.224 NA
HETATM    7  C8  UNL     1      24.438   0.329  53.517  1.00  0.00     0.142 A 
HETATM    8  C16 UNL     1      23.983   0.966  52.389  1.00  0.00     0.042 A 
HETATM    9  C17 UNL     1      24.751   1.915  51.749  1.00  0.00     0.057 A 
HETATM   10  C18 UNL     1      24.370   2.606  50.606  1.00  0.00     0.103 A 
ENDROOT
BRANCH   7  11
HETATM   11  N3  UNL     1      25.706   0.595  54.093  1.00  0.00    -0.339 N 
HETATM   12  H10 UNL     1      26.033   1.254  54.796  1.00  0.00     0.167 HD
BRANCH  11  13
HETATM   13  C9  UNL     1      26.812  -0.185  53.645  1.00  0.00     0.045 C 
HETATM   14  C10 UNL     1      26.639  -1.178  52.787  1.00  0.00     0.016 C 
HETATM   15  C11 UNL     1      27.306  -2.259  52.906  1.00  0.00     0.001 C 
HETATM   16  C12 UNL     1      28.551  -2.394  52.677  1.00  0.00    -0.013 C 
HETATM   17  C13 UNL     1      29.441  -1.743  53.394  1.00  0.00     0.013 C 
HETATM   18  C14 UNL     1      29.281  -0.463  54.106  1.00  0.00     0.003 C 
HETATM   19  C15 UNL     1      28.120   0.207  54.206  1.00  0.00     0.030 C 
ENDBRANCH  11  13
ENDBRANCH   7  11
BRANCH  10  20
HETATM   20  O3  UNL     1      25.089   3.535  49.951  1.00  0.00    -0.346 OA
BRANCH  20  21
HETATM   21  C19 UNL     1      26.392   3.963  50.000  1.00  0.00     0.201 C 
BRANCH  21  22
HETATM   22  C20 UNL     1      26.832   4.920  48.921  1.00  0.00     0.193 C 
BRANCH  22  23
HETATM   23  O4  UNL     1      28.168   4.720  48.566  1.00  0.00    -0.394 OA
HETATM   24  C21 UNL     1      28.770   5.930  48.183  1.00  0.00     0.201 C 
ENDBRANCH  22  23
ENDBRANCH  21  22
ENDBRANCH  20  21
ENDBRANCH  10  20
BRANCH   1  25
HETATM   25  O2  UNL     1      22.726   2.977  48.964  1.00  0.00    -0.346 OA
BRANCH  25  26
HETATM   26  C3  UNL     1      21.759   3.911  48.727  1.00  0.00     0.201 C 
BRANCH  26  27
HETATM   27  C2  UNL     1      21.521   4.963  49.753  1.00  0.00     0.193 C 
BRANCH  27  28
HETATM   28  O1  UNL     1      22.663   5.776  49.911  1.00  0.00    -0.394 OA
HETATM   29  C1  UNL     1      22.668   6.643  48.801  1.00  0.00     0.201 C 
ENDBRANCH  27  28
ENDBRANCH  26  27
ENDBRANCH  25  26
ENDBRANCH   1  25
TORSDOF 10
ENDMDL
MODEL 9
REMARK VINA RESULT:      -6.7      2.490      7.062
REMARK  10 active torsions:
REMARK  status: ('A' for Active; 'I' for Inactive)
REMARK    1  A    between atoms: O1_2  and  C2_3 
REMARK    2  A    between atoms: C2_3  and  C3_4 
REMARK    3  A    between atoms: C3_4  and  O2_5 
REMARK    4  A    between atoms: O2_5  and  C4_6 
REMARK    5  A    between atoms: C8_12  and  N3_13 
REMARK    6  A    between atoms: N3_13  and  C9_14 
REMARK    7  A    between atoms: C18_23  and  O3_24 
REMARK    8  A    between atoms: O3_24  and  C19_25 
REMARK    9  A    between atoms: C19_25  and  C20_26 
REMARK   10  A    between atoms: C20_26  and  O4_27 
ROOT
HETATM    1  C4  UNL     1      25.645   0.714  52.292  1.00  0.00     0.104 A 
HETATM    2  C5  UNL     1      25.627   1.837  51.501  1.00  0.00     0.072 A 
HETATM    3  C6  UNL     1      24.545   2.681  51.363  1.00  0.00     0.075 A 
HETATM    4  N1  UNL     1      24.551   3.780  50.579  1.00  0.00    -0.241 NA
HETATM    5  C7  UNL     1      23.451   4.585  50.475  1.00  0.00     0.236 A 
HETATM    6  N2  UNL     1      22.318   4.279  51.176  1.00  0.00    -0.224 NA
HETATM    7  C8  UNL     1      22.280   3.190  51.966  1.00  0.00     0.142 A 
HETATM    8  C16 UNL     1      23.391   2.389  52.062  1.00  0.00     0.042 A 
HETATM    9  C17 UNL     1      23.392   1.266  52.860  1.00  0.00     0.057 A 
HETATM   10  C18 UNL     1      24.470   0.402  53.014  1.00  0.00     0.103 A 
ENDROOT
BRANCH   7  11
HETATM   11  N3  UNL     1      21.077   2.924  52.668  1.00  0.00    -0.339 N 
HETATM   12  H10 UNL     1      20.793   3.032  53.639  1.00  0.00     0.167 HD
BRANCH  11  13
HETATM   13  C9  UNL     1      19.983   2.391  51.926  1.00  0.00     0.045 C 
HETATM   14  C10 UNL     1      19.913   1.097  51.654  1.00  0.00     0.016 C 
HETATM   15  C11 UNL     1      19.481   0.696  50.523  1.00  0.00     0.001 C 
HETATM   16  C12 UNL     1      18.273   0.755  50.125  1.00  0.00    -0.013 C 
HETATM   17  C13 UNL     1      17.674   1.916  49.964  1.00  0.00     0.013 C 
HETATM   18  C14 UNL     1      17.955   3.191  50.649  1.00  0.00     0.003 C 
HETATM   19  C15 UNL     1      18.972   3.381  51.506  1.00  0.00     0.030 C 
ENDBRANCH  11  13
ENDBRANCH   7  11
BRANCH  10  20
HETATM   20  O3  UNL     1      24.511  -0.704  53.780  1.00  0.00    -0.346 OA
BRANCH  20  21
HETATM   21  C19 UNL     1      24.328  -0.964  55.115  1.00  0.00     0.201 C 
BRANCH  21  22
HETATM   22  C20 UNL     1      23.066  -1.697  55.496  1.00  0.00     0.193 C 
BRANCH  22  23
HETATM   23  O4  UNL     1      21.930  -0.914  55.284  1.00  0.00    -0.394 OA
HETATM   24  C21 UNL     1      21.092  -1.500  54.320  1.00  0.00     0.201 C 
ENDBRANCH  22  23
ENDBRANCH  21  22
ENDBRANCH  20  21
ENDBRANCH  10  20
BRANCH   1  25
HETATM   25  O2  UNL     1      26.691  -0.125  52.445  1.00  0.00    -0.346 OA
BRANCH  25  26
HETATM   26  C3  UNL     1      27.874  -0.018  53.119  1.00  0.00     0.201 C 
BRANCH  26  27
HETATM   27  C2  UNL     1      27.852   0.502  54.514  1.00  0.00     0.193 C 
BRANCH  27  28
HETATM   28  O1  UNL     1      28.880   1.450  54.710  1.00  0.00    -0.394 OA
HETATM   29  C1  UNL     1      28.705   2.414  53.699  1.00  0.00     0.201 C 
ENDBRANCH  27  28
ENDBRANCH  26  27
ENDBRANCH  25  26
ENDBRANCH   1  25
TORSDOF 10
ENDMDL
