MODEL 1
REMARK VINA RESULT:      -7.9      0.000      0.000
REMARK  6 active torsions:
REMARK  status: ('A' for Active; 'I' for Inactive)
REMARK    1  A    between atoms: C2_2  and  C3_3 
REMARK    2  A    between atoms: C3_3  and  N1_4 
REMARK    3  A    between atoms: C4_5  and  C5_6 
REMARK    4  A    between atoms: C8_10  and  N3_11 
REMARK    5  A    between atoms: N3_11  and  C9_12 
REMARK    6  A    between atoms: C11_14  and  N4_15 
REMARK       I    between atoms: N4_15  and  C12_16 
ROOT
HETATM    1  N3  UNL     1      22.104   0.539  51.991  1.00  0.00    -0.188 N 
HETATM    2  H9  UNL     1      21.101   0.382  51.765  1.00  0.00     0.184 HD
ENDROOT
BRANCH   1   3
HETATM    3  C8  UNL     1      22.422   1.428  50.936  1.00  0.00     0.727 A 
HETATM    4  N2  UNL     1      22.008   1.118  49.684  1.00  0.00    -0.075 NA
HETATM    5  C7  UNL     1      22.258   1.883  48.612  1.00  0.00     0.139 A 
HETATM    6  C6  UNL     1      22.973   3.040  48.819  1.00  0.00     0.053 A 
HETATM    7  C5  UNL     1      23.405   3.379  50.079  1.00  0.00     0.094 A 
HETATM    8  N5  UNL     1      23.118   2.565  51.095  1.00  0.00    -0.061 NA
BRANCH   7   9
HETATM    9  C4  UNL     1      24.157   4.552  50.394  1.00  0.00     0.148 C 
HETATM   10  N1  UNL     1      25.244   5.163  50.193  1.00  0.00    -0.271 NA
BRANCH  10  11
HETATM   11  C3  UNL     1      26.314   4.730  49.369  1.00  0.00     0.112 C 
BRANCH  11  12
HETATM   12  C2  UNL     1      27.464   4.682  48.741  1.00  0.00    -0.012 C 
HETATM   13  C1  UNL     1      28.444   5.682  48.301  1.00  0.00     0.037 C 
ENDBRANCH  11  12
ENDBRANCH  10  11
ENDBRANCH   7   9
ENDBRANCH   1   3
BRANCH   1  14
HETATM   14  C9  UNL     1      22.742  -0.075  53.096  1.00  0.00     0.057 A 
HETATM   15  C10 UNL     1      24.113  -0.096  53.192  1.00  0.00     0.060 A 
HETATM   16  C11 UNL     1      24.785  -0.668  54.240  1.00  0.00     0.036 A 
HETATM   17  C14 UNL     1      23.992  -1.232  55.211  1.00  0.00     0.030 A 
HETATM   18  C15 UNL     1      22.619  -1.216  55.123  1.00  0.00     0.011 A 
HETATM   19  C16 UNL     1      21.947  -0.640  54.068  1.00  0.00    -0.035 A 
HETATM   20  C17 UNL     1      20.464  -0.638  54.001  1.00  0.00     0.050 C 
BRANCH  16  21
HETATM   21  N4  UNL     1      26.186  -0.736  54.418  1.00  0.00    -0.327 N 
HETATM   22  C12 UNL     1      27.106   0.309  54.659  1.00  0.00     0.218 C 
HETATM   23  C13 UNL     1      28.558   0.130  54.830  1.00  0.00     0.117 C 
HETATM   24  O1  UNL     1      26.691   1.490  54.737  1.00  0.00    -0.274 OA
HETATM   25  H11 UNL     1      26.677  -1.653  54.379  1.00  0.00     0.169 HD
ENDBRANCH  16  21
ENDBRANCH   1  14
TORSDOF 6
ENDMDL
MODEL 2
REMARK VINA RESULT:      -7.4      2.257      7.294
REMARK  6 active torsions:
REMARK  status: ('A' for Active; 'I' for Inactive)
REMARK    1  A    between atoms: C2_2  and  C3_3 
REMARK    2  A    between atoms: C3_3  and  N1_4 
REMARK    3  A    between atoms: C4_5  and  C5_6 
REMARK    4  A    between atoms: C8_10  and  N3_11 
REMARK    5  A    between atoms: N3_11  and  C9_12 
REMARK    6  A    between atoms: C11_14  and  N4_15 
REMARK       I    between atoms: N4_15  and  C12_16 
ROOT
HETATM    1  N3  UNL     1      26.571   2.849  51.951  1.00  0.00    -0.188 N 
HETATM    2  H9  UNL     1      27.329   3.559  51.904  1.00  0.00     0.184 HD
ENDROOT
BRANCH   1   3
HETATM    3  C8  UNL     1      27.159   1.975  52.896  1.00  0.00     0.727 A 
HETATM    4  N2  UNL     1      28.510   1.943  52.994  1.00  0.00    -0.075 NA
HETATM    5  C7  UNL     1      29.170   1.150  53.850  1.00  0.00     0.139 A 
HETATM    6  C6  UNL     1      28.416   0.335  54.662  1.00  0.00     0.053 A 
HETATM    7  C5  UNL     1      27.044   0.347  54.583  1.00  0.00     0.094 A 
HETATM    8  N5  UNL     1      26.459   1.164  53.706  1.00  0.00    -0.061 NA
BRANCH   7   9
HETATM    9  C4  UNL     1      26.176  -0.463  55.377  1.00  0.00     0.148 C 
HETATM   10  N1  UNL     1      25.027  -0.986  55.441  1.00  0.00    -0.271 NA
BRANCH  10  11
HETATM   11  C3  UNL     1      23.999  -0.881  54.469  1.00  0.00     0.112 C 
BRANCH  11  12
HETATM   12  C2  UNL     1      22.818  -0.852  53.902  1.00  0.00    -0.012 C 
HETATM   13  C1  UNL     1      21.504  -1.423  54.222  1.00  0.00     0.037 C 
ENDBRANCH  11  12
ENDBRANCH  10  11
ENDBRANCH   7   9
ENDBRANCH   1   3
BRANCH   1  14
HETATM   14  C9  UNL     1      25.382   2.952  51.188  1.00  0.00     0.057 A 
HETATM   15  C10 UNL     1      24.172   2.578  51.722  1.00  0.00     0.060 A 
HETATM   16  C11 UNL     1      22.989   2.661  51.036  1.00  0.00     0.036 A 
HETATM   17  C14 UNL     1      23.084   3.151  49.755  1.00  0.00     0.030 A 
HETATM   18  C15 UNL     1      24.292   3.528  49.213  1.00  0.00     0.011 A 
HETATM   19  C16 UNL     1      25.478   3.442  49.906  1.00  0.00    -0.035 A 
HETATM   20  C17 UNL     1      26.765   3.857  49.294  1.00  0.00     0.050 C 
BRANCH  16  21
HETATM   21  N4  UNL     1      21.705   2.299  51.505  1.00  0.00    -0.327 N 
HETATM   22  C12 UNL     1      20.991   1.095  51.310  1.00  0.00     0.218 C 
HETATM   23  C13 UNL     1      19.648   0.817  51.847  1.00  0.00     0.117 C 
HETATM   24  O1  UNL     1      21.508   0.174  50.633  1.00  0.00    -0.274 OA
HETATM   25  H11 UNL     1      21.150   2.964  52.083  1.00  0.00     0.169 HD
ENDBRANCH  16  21
ENDBRANCH   1  14
TORSDOF 6
ENDMDL
MODEL 3
REMARK VINA RESULT:      -7.3      1.736      2.287
REMARK  6 active torsions:
REMARK  status: ('A' for Active; 'I' for Inactive)
REMARK    1  A    between atoms: C2_2  and  C3_3 
REMARK    2  A    between atoms: C3_3  and  N1_4 
REMARK    3  A    between atoms: C4_5  and  C5_6 
REMARK    4  A    between atoms: C8_10  and  N3_11 
REMARK    5  A    between atoms: N3_11  and  C9_12 
REMARK    6  A    between atoms: C11_14  and  N4_15 
REMARK       I    between atoms: N4_15  and  C12_16 
ROOT
HETATM    1  N3  UNL     1      23.623   2.841  52.135  1.00  0.00    -0.188 N 
HETATM    2  H9  UNL     1      22.915   3.370  52.683  1.00  0.00     0.184 HD
ENDROOT
BRANCH   1   3
HETATM    3  C8  UNL     1      23.760   3.736  51.047  1.00  0.00     0.727 A 
HETATM    4  N2  UNL     1      23.231   3.383  49.850  1.00  0.00    -0.075 NA
HETATM    5  C7  UNL     1      23.306   4.150  48.753  1.00  0.00     0.139 A 
HETATM    6  C6  UNL     1      23.960   5.355  48.872  1.00  0.00     0.053 A 
HETATM    7  C5  UNL     1      24.506   5.738  50.074  1.00  0.00     0.094 A 
HETATM    8  N5  UNL     1      24.390   4.920  51.121  1.00  0.00    -0.061 NA
BRANCH   7   9
HETATM    9  C4  UNL     1      25.206   6.962  50.297  1.00  0.00     0.148 C 
HETATM   10  N1  UNL     1      26.191   7.666  49.935  1.00  0.00    -0.271 NA
BRANCH  10  11
HETATM   11  C3  UNL     1      27.134   7.340  48.926  1.00  0.00     0.112 C 
BRANCH  11  12
HETATM   12  C2  UNL     1      28.021   6.693  48.212  1.00  0.00    -0.012 C 
HETATM   13  C1  UNL     1      28.657   5.373  48.302  1.00  0.00     0.037 C 
ENDBRANCH  11  12
ENDBRANCH  10  11
ENDBRANCH   7   9
ENDBRANCH   1   3
BRANCH   1  14
HETATM   14  C9  UNL     1      24.149   1.599  52.566  1.00  0.00     0.057 A 
HETATM   15  C10 UNL     1      25.497   1.342  52.486  1.00  0.00     0.060 A 
HETATM   16  C11 UNL     1      26.064   0.163  52.894  1.00  0.00     0.036 A 
HETATM   17  C14 UNL     1      25.188  -0.767  53.400  1.00  0.00     0.030 A 
HETATM   18  C15 UNL     1      23.837  -0.518  53.485  1.00  0.00     0.011 A 
HETATM   19  C16 UNL     1      23.272   0.668  53.073  1.00  0.00    -0.035 A 
HETATM   20  C17 UNL     1      21.810   0.907  53.177  1.00  0.00     0.050 C 
BRANCH  16  21
HETATM   21  N4  UNL     1      27.434  -0.184  52.846  1.00  0.00    -0.327 N 
HETATM   22  C12 UNL     1      28.445   0.042  53.806  1.00  0.00     0.218 C 
HETATM   23  C13 UNL     1      29.854  -0.364  53.657  1.00  0.00     0.117 C 
HETATM   24  O1  UNL     1      28.159   0.629  54.877  1.00  0.00    -0.274 OA
HETATM   25  H11 UNL     1      27.822  -0.678  52.016  1.00  0.00     0.169 HD
ENDBRANCH  16  21
ENDBRANCH   1  14
TORSDOF 6
ENDMDL
MODEL 4
REMARK VINA RESULT:      -7.3      3.452      7.927
REMARK  6 active torsions:
REMARK  status: ('A' for Active; 'I' for Inactive)
REMARK    1  A    between atoms: C2_2  and  C3_3 
REMARK    2  A    between atoms: C3_3  and  N1_4 
REMARK    3  A    between atoms: C4_5  and  C5_6 
REMARK    4  A    between atoms: C8_10  and  N3_11 
REMARK    5  A    between atoms: N3_11  and  C9_12 
REMARK    6  A    between atoms: C11_14  and  N4_15 
REMARK       I    between atoms: N4_15  and  C12_16 
ROOT
HETATM    1  N3  UNL     1      26.511   3.328  49.487  1.00  0.00    -0.188 N 
HETATM    2  H9  UNL     1      26.285   2.527  48.864  1.00  0.00     0.184 HD
ENDROOT
BRANCH   1   3
HETATM    3  C8  UNL     1      26.395   2.666  50.733  1.00  0.00     0.727 A 
HETATM    4  N2  UNL     1      25.277   1.942  50.979  1.00  0.00    -0.075 NA
HETATM    5  C7  UNL     1      25.061   1.281  52.124  1.00  0.00     0.139 A 
HETATM    6  C6  UNL     1      26.041   1.354  53.087  1.00  0.00     0.053 A 
HETATM    7  C5  UNL     1      27.186   2.081  52.864  1.00  0.00     0.094 A 
HETATM    8  N5  UNL     1      27.328   2.713  51.698  1.00  0.00    -0.061 NA
BRANCH   7   9
HETATM    9  C4  UNL     1      28.256   2.222  53.800  1.00  0.00     0.148 C 
HETATM   10  N1  UNL     1      29.240   1.638  54.335  1.00  0.00    -0.271 NA
BRANCH  10  11
HETATM   11  C3  UNL     1      29.671   0.310  54.083  1.00  0.00     0.112 C 
BRANCH  11  12
HETATM   12  C2  UNL     1      29.857  -0.851  53.505  1.00  0.00    -0.012 C 
HETATM   13  C1  UNL     1      28.995  -1.994  53.180  1.00  0.00     0.037 C 
ENDBRANCH  11  12
ENDBRANCH  10  11
ENDBRANCH   7   9
ENDBRANCH   1   3
BRANCH   1  14
HETATM   14  C9  UNL     1      26.815   4.619  48.990  1.00  0.00     0.057 A 
HETATM   15  C10 UNL     1      28.099   4.946  48.625  1.00  0.00     0.060 A 
HETATM   16  C11 UNL     1      28.452   6.174  48.131  1.00  0.00     0.036 A 
HETATM   17  C14 UNL     1      27.424   7.081  48.020  1.00  0.00     0.030 A 
HETATM   18  C15 UNL     1      26.135   6.762  48.383  1.00  0.00     0.011 A 
HETATM   19  C16 UNL     1      25.786   5.526  48.878  1.00  0.00    -0.035 A 
HETATM   20  C17 UNL     1      24.387   5.212  49.262  1.00  0.00     0.050 C 
BRANCH  16  21
HETATM   21  N4  UNL     1      29.742   6.594  47.734  1.00  0.00    -0.327 N 
HETATM   22  C12 UNL     1      30.917   5.828  47.568  1.00  0.00     0.218 C 
HETATM   23  C13 UNL     1      32.221   6.367  47.147  1.00  0.00     0.117 C 
HETATM   24  O1  UNL     1      30.884   4.593  47.786  1.00  0.00    -0.274 OA
HETATM   25  H11 UNL     1      29.925   7.596  47.518  1.00  0.00     0.169 HD
ENDBRANCH  16  21
ENDBRANCH   1  14
TORSDOF 6
ENDMDL
MODEL 5
REMARK VINA RESULT:      -7.2      1.912      2.887
REMARK  6 active torsions:
REMARK  status: ('A' for Active; 'I' for Inactive)
REMARK    1  A    between atoms: C2_2  and  C3_3 
REMARK    2  A    between atoms: C3_3  and  N1_4 
REMARK    3  A    between atoms: C4_5  and  C5_6 
REMARK    4  A    between atoms: C8_10  and  N3_11 
REMARK    5  A    between atoms: N3_11  and  C9_12 
REMARK    6  A    between atoms: C11_14  and  N4_15 
REMARK       I    between atoms: N4_15  and  C12_16 
ROOT
HETATM    1  N3  UNL     1      24.005   2.659  51.619  1.00  0.00    -0.188 N 
HETATM    2  H9  UNL     1      23.072   3.076  51.809  1.00  0.00     0.184 HD
ENDROOT
BRANCH   1   3
HETATM    3  C8  UNL     1      24.484   3.620  50.698  1.00  0.00     0.727 A 
HETATM    4  N2  UNL     1      23.634   4.586  50.271  1.00  0.00    -0.075 NA
HETATM    5  C7  UNL     1      23.980   5.541  49.398  1.00  0.00     0.139 A 
HETATM    6  C6  UNL     1      25.271   5.522  48.923  1.00  0.00     0.053 A 
HETATM    7  C5  UNL     1      26.154   4.555  49.339  1.00  0.00     0.094 A 
HETATM    8  N5  UNL     1      25.735   3.637  50.211  1.00  0.00    -0.061 NA
BRANCH   7   9
HETATM    9  C4  UNL     1      27.510   4.447  48.902  1.00  0.00     0.148 C 
HETATM   10  N1  UNL     1      28.480   5.075  48.390  1.00  0.00    -0.271 NA
BRANCH  10  11
HETATM   11  C3  UNL     1      28.490   6.440  48.003  1.00  0.00     0.112 C 
BRANCH  11  12
HETATM   12  C2  UNL     1      28.096   7.646  47.680  1.00  0.00    -0.012 C 
HETATM   13  C1  UNL     1      26.995   8.194  46.878  1.00  0.00     0.037 C 
ENDBRANCH  11  12
ENDBRANCH  10  11
ENDBRANCH   7   9
ENDBRANCH   1   3
BRANCH   1  14
HETATM   14  C9  UNL     1      24.443   1.460  52.234  1.00  0.00     0.057 A 
HETATM   15  C10 UNL     1      25.765   1.089  52.184  1.00  0.00     0.060 A 
HETATM   16  C11 UNL     1      26.249  -0.054  52.765  1.00  0.00     0.036 A 
HETATM   17  C14 UNL     1      25.315  -0.824  53.416  1.00  0.00     0.030 A 
HETATM   18  C15 UNL     1      23.989  -0.460  53.471  1.00  0.00     0.011 A 
HETATM   19  C16 UNL     1      23.507   0.689  52.886  1.00  0.00    -0.035 A 
HETATM   20  C17 UNL     1      22.071   1.056  52.962  1.00  0.00     0.050 C 
BRANCH  16  21
HETATM   21  N4  UNL     1      27.587  -0.511  52.761  1.00  0.00    -0.327 N 
HETATM   22  C12 UNL     1      28.565  -0.415  53.776  1.00  0.00     0.218 C 
HETATM   23  C13 UNL     1      29.942  -0.929  53.669  1.00  0.00     0.117 C 
HETATM   24  O1  UNL     1      28.275   0.142  54.861  1.00  0.00    -0.274 OA
HETATM   25  H11 UNL     1      27.974  -0.996  51.925  1.00  0.00     0.169 HD
ENDBRANCH  16  21
ENDBRANCH   1  14
TORSDOF 6
ENDMDL
MODEL 6
REMARK VINA RESULT:      -7.2      3.300      5.674
REMARK  6 active torsions:
REMARK  status: ('A' for Active; 'I' for Inactive)
REMARK    1  A    between atoms: C2_2  and  C3_3 
REMARK    2  A    between atoms: C3_3  and  N1_4 
REMARK    3  A    between atoms: C4_5  and  C5_6 
REMARK    4  A    between atoms: C8_10  and  N3_11 
REMARK    5  A    between atoms: N3_11  and  C9_12 
REMARK    6  A    between atoms: C11_14  and  N4_15 
REMARK       I    between atoms: N4_15  and  C12_16 
ROOT
HETATM    1  N3  UNL     1      26.210   4.234  49.129  1.00  0.00    -0.188 N 
HETATM    2  H9  UNL     1      25.780   4.005  48.211  1.00  0.00     0.184 HD
ENDROOT
BRANCH   1   3
HETATM    3  C8  UNL     1      27.142   5.204  48.689  1.00  0.00     0.727 A 
HETATM    4  N2  UNL     1      26.672   6.350  48.141  1.00  0.00    -0.075 NA
HETATM    5  C7  UNL     1      27.464   7.332  47.688  1.00  0.00     0.139 A 
HETATM    6  C6  UNL     1      28.823   7.144  47.795  1.00  0.00     0.053 A 
HETATM    7  C5  UNL     1      29.327   5.991  48.348  1.00  0.00     0.094 A 
HETATM    8  N5  UNL     1      28.475   5.059  48.776  1.00  0.00    -0.061 NA
BRANCH   7   9
HETATM    9  C4  UNL     1      30.717   5.701  48.498  1.00  0.00     0.148 C 
HETATM   10  N1  UNL     1      31.663   4.959  48.107  1.00  0.00    -0.271 NA
BRANCH  10  11
HETATM   11  C3  UNL     1      31.577   3.923  47.142  1.00  0.00     0.112 C 
BRANCH  11  12
HETATM   12  C2  UNL     1      31.699   2.763  46.545  1.00  0.00    -0.012 C 
HETATM   13  C1  UNL     1      32.366   1.497  46.872  1.00  0.00     0.037 C 
ENDBRANCH  11  12
ENDBRANCH  10  11
ENDBRANCH   7   9
ENDBRANCH   1   3
BRANCH   1  14
HETATM   14  C9  UNL     1      25.804   3.616  50.337  1.00  0.00     0.057 A 
HETATM   15  C10 UNL     1      26.633   2.734  50.987  1.00  0.00     0.060 A 
HETATM   16  C11 UNL     1      26.298   2.112  52.162  1.00  0.00     0.036 A 
HETATM   17  C14 UNL     1      25.058   2.429  52.663  1.00  0.00     0.030 A 
HETATM   18  C15 UNL     1      24.221   3.311  52.018  1.00  0.00     0.011 A 
HETATM   19  C16 UNL     1      24.562   3.934  50.839  1.00  0.00    -0.035 A 
HETATM   20  C17 UNL     1      23.637   4.881  50.167  1.00  0.00     0.050 C 
BRANCH  16  21
HETATM   21  N4  UNL     1      27.086   1.194  52.894  1.00  0.00    -0.327 N 
HETATM   22  C12 UNL     1      28.068   1.448  53.878  1.00  0.00     0.218 C 
HETATM   23  C13 UNL     1      28.838   0.411  54.586  1.00  0.00     0.117 C 
HETATM   24  O1  UNL     1      28.330   2.633  54.196  1.00  0.00    -0.274 OA
HETATM   25  H11 UNL     1      26.981   0.170  52.738  1.00  0.00     0.169 HD
ENDBRANCH  16  21
ENDBRANCH   1  14
TORSDOF 6
ENDMDL
MODEL 7
REMARK VINA RESULT:      -7.1      3.006      4.482
REMARK  6 active torsions:
REMARK  status: ('A' for Active; 'I' for Inactive)
REMARK    1  A    between atoms: C2_2  and  C3_3 
REMARK    2  A    between atoms: C3_3  and  N1_4 
REMARK    3  A    between atoms: C4_5  and  C5_6 
REMARK    4  A    between atoms: C8_10  and  N3_11 
REMARK    5  A    between atoms: N3_11  and  C9_12 
REMARK    6  A    between atoms: C11_14  and  N4_15 
REMARK       I    between atoms: N4_15  and  C12_16 
ROOT
HETATM    1  N3  UNL     1      25.408   3.225  50.179  1.00  0.00    -0.188 N 
HETATM    2  H9  UNL     1      24.713   2.946  49.459  1.00  0.00     0.184 HD
ENDROOT
BRANCH   1   3
HETATM    3  C8  UNL     1      25.964   4.345  49.515  1.00  0.00     0.727 A 
HETATM    4  N2  UNL     1      25.144   5.372  49.186  1.00  0.00    -0.075 NA
HETATM    5  C7  UNL     1      25.561   6.477  48.552  1.00  0.00     0.139 A 
HETATM    6  C6  UNL     1      26.897   6.551  48.230  1.00  0.00     0.053 A 
HETATM    7  C5  UNL     1      27.751   5.523  48.553  1.00  0.00     0.094 A 
HETATM    8  N5  UNL     1      27.260   4.456  49.183  1.00  0.00    -0.061 NA
BRANCH   7   9
HETATM    9  C4  UNL     1      29.148   5.503  48.258  1.00  0.00     0.148 C 
HETATM   10  N1  UNL     1      30.208   6.191  48.244  1.00  0.00    -0.271 NA
BRANCH  10  11
HETATM   11  C3  UNL     1      30.334   7.552  48.624  1.00  0.00     0.112 C 
BRANCH  11  12
HETATM   12  C2  UNL     1      30.043   8.787  48.950  1.00  0.00    -0.012 C 
HETATM   13  C1  UNL     1      30.802   9.917  49.502  1.00  0.00     0.037 C 
ENDBRANCH  11  12
ENDBRANCH  10  11
ENDBRANCH   7   9
ENDBRANCH   1   3
BRANCH   1  14
HETATM   14  C9  UNL     1      25.565   2.524  51.400  1.00  0.00     0.057 A 
HETATM   15  C10 UNL     1      26.547   1.572  51.541  1.00  0.00     0.060 A 
HETATM   16  C11 UNL     1      26.751   0.868  52.699  1.00  0.00     0.036 A 
HETATM   17  C14 UNL     1      25.899   1.175  53.733  1.00  0.00     0.030 A 
HETATM   18  C15 UNL     1      24.913   2.126  53.600  1.00  0.00     0.011 A 
HETATM   19  C16 UNL     1      24.712   2.831  52.435  1.00  0.00    -0.035 A 
HETATM   20  C17 UNL     1      23.639   3.851  52.322  1.00  0.00     0.050 C 
BRANCH  16  21
HETATM   21  N4  UNL     1      27.732  -0.124  52.930  1.00  0.00    -0.327 N 
HETATM   22  C12 UNL     1      29.004   0.002  53.531  1.00  0.00     0.218 C 
HETATM   23  C13 UNL     1      29.957  -1.104  53.726  1.00  0.00     0.117 C 
HETATM   24  O1  UNL     1      29.384   1.125  53.940  1.00  0.00    -0.274 OA
HETATM   25  H11 UNL     1      27.559  -1.110  52.643  1.00  0.00     0.169 HD
ENDBRANCH  16  21
ENDBRANCH   1  14
TORSDOF 6
ENDMDL
MODEL 8
REMARK VINA RESULT:      -6.9      2.327      4.143
REMARK  6 active torsions:
REMARK  status: ('A' for Active; 'I' for Inactive)
REMARK    1  A    between atoms: C2_2  and  C3_3 
REMARK    2  A    between atoms: C3_3  and  N1_4 
REMARK    3  A    between atoms: C4_5  and  C5_6 
REMARK    4  A    between atoms: C8_10  and  N3_11 
REMARK    5  A    between atoms: N3_11  and  C9_12 
REMARK    6  A    between atoms: C11_14  and  N4_15 
REMARK       I    between atoms: N4_15  and  C12_16 
ROOT
HETATM    1  N3  UNL     1      24.740   3.747  51.823  1.00  0.00    -0.188 N 
HETATM    2  H9  UNL     1      24.719   4.532  52.505  1.00  0.00     0.184 HD
ENDROOT
BRANCH   1   3
HETATM    3  C8  UNL     1      24.552   4.494  50.635  1.00  0.00     0.727 A 
HETATM    4  N2  UNL     1      25.346   5.569  50.416  1.00  0.00    -0.075 NA
HETATM    5  C7  UNL     1      25.252   6.349  49.330  1.00  0.00     0.139 A 
HETATM    6  C6  UNL     1      24.291   6.020  48.401  1.00  0.00     0.053 A 
HETATM    7  C5  UNL     1      23.472   4.934  48.599  1.00  0.00     0.094 A 
HETATM    8  N5  UNL     1      23.626   4.207  49.705  1.00  0.00    -0.061 NA
BRANCH   7   9
HETATM    9  C4  UNL     1      22.444   4.516  47.699  1.00  0.00     0.148 C 
HETATM   10  N1  UNL     1      21.731   3.539  47.333  1.00  0.00    -0.271 NA
BRANCH  10  11
HETATM   11  C3  UNL     1      21.766   2.224  47.864  1.00  0.00     0.112 C 
BRANCH  11  12
HETATM   12  C2  UNL     1      21.572   1.189  48.643  1.00  0.00    -0.012 C 
HETATM   13  C1  UNL     1      20.693   0.906  49.785  1.00  0.00     0.037 C 
ENDBRANCH  11  12
ENDBRANCH  10  11
ENDBRANCH   7   9
ENDBRANCH   1   3
BRANCH   1  14
HETATM   14  C9  UNL     1      24.920   2.399  52.217  1.00  0.00     0.057 A 
HETATM   15  C10 UNL     1      26.171   1.831  52.224  1.00  0.00     0.060 A 
HETATM   16  C11 UNL     1      26.408   0.535  52.602  1.00  0.00     0.036 A 
HETATM   17  C14 UNL     1      25.297  -0.179  52.983  1.00  0.00     0.030 A 
HETATM   18  C15 UNL     1      24.040   0.382  52.979  1.00  0.00     0.011 A 
HETATM   19  C16 UNL     1      23.807   1.684  52.599  1.00  0.00    -0.035 A 
HETATM   20  C17 UNL     1      22.439   2.261  52.605  1.00  0.00     0.050 C 
BRANCH  16  21
HETATM   21  N4  UNL     1      27.656  -0.127  52.638  1.00  0.00    -0.327 N 
HETATM   22  C12 UNL     1      28.446  -0.482  53.754  1.00  0.00     0.218 C 
HETATM   23  C13 UNL     1      29.743  -1.176  53.681  1.00  0.00     0.117 C 
HETATM   24  O1  UNL     1      28.045  -0.199  54.909  1.00  0.00    -0.274 OA
HETATM   25  H11 UNL     1      28.119  -0.425  51.753  1.00  0.00     0.169 HD
ENDBRANCH  16  21
ENDBRANCH   1  14
TORSDOF 6
ENDMDL
MODEL 9
REMARK VINA RESULT:      -6.9      3.025      5.198
REMARK  6 active torsions:
REMARK  status: ('A' for Active; 'I' for Inactive)
REMARK    1  A    between atoms: C2_2  and  C3_3 
REMARK    2  A    between atoms: C3_3  and  N1_4 
REMARK    3  A    between atoms: C4_5  and  C5_6 
REMARK    4  A    between atoms: C8_10  and  N3_11 
REMARK    5  A    between atoms: N3_11  and  C9_12 
REMARK    6  A    between atoms: C11_14  and  N4_15 
REMARK       I    between atoms: N4_15  and  C12_16 
ROOT
HETATM    1  N3  UNL     1      22.488   0.469  52.479  1.00  0.00    -0.188 N 
HETATM    2  H9  UNL     1      22.312  -0.018  51.578  1.00  0.00     0.184 HD
ENDROOT
BRANCH   1   3
HETATM    3  C8  UNL     1      21.787   1.669  52.212  1.00  0.00     0.727 A 
HETATM    4  N2  UNL     1      22.490   2.825  52.136  1.00  0.00    -0.075 NA
HETATM    5  C7  UNL     1      21.928   4.017  51.894  1.00  0.00     0.139 A 
HETATM    6  C6  UNL     1      20.563   4.045  51.715  1.00  0.00     0.053 A 
HETATM    7  C5  UNL     1      19.826   2.887  51.787  1.00  0.00     0.094 A 
HETATM    8  N5  UNL     1      20.457   1.739  52.032  1.00  0.00    -0.061 NA
BRANCH   7   9
HETATM    9  C4  UNL     1      18.409   2.813  51.622  1.00  0.00     0.148 C 
HETATM   10  N1  UNL     1      17.426   2.028  51.505  1.00  0.00    -0.271 NA
BRANCH  10  11
HETATM   11  C3  UNL     1      17.474   0.610  51.506  1.00  0.00     0.112 C 
BRANCH  11  12
HETATM   12  C2  UNL     1      17.614  -0.631  51.899  1.00  0.00    -0.012 C 
HETATM   13  C1  UNL     1      17.572  -1.316  53.197  1.00  0.00     0.037 C 
ENDBRANCH  11  12
ENDBRANCH  10  11
ENDBRANCH   7   9
ENDBRANCH   1   3
BRANCH   1  14
HETATM   14  C9  UNL     1      23.245  -0.113  53.526  1.00  0.00     0.057 A 
HETATM   15  C10 UNL     1      24.605   0.076  53.597  1.00  0.00     0.060 A 
HETATM   16  C11 UNL     1      25.388  -0.455  54.589  1.00  0.00     0.036 A 
HETATM   17  C14 UNL     1      24.720  -1.203  55.529  1.00  0.00     0.030 A 
HETATM   18  C15 UNL     1      23.359  -1.397  55.465  1.00  0.00     0.011 A 
HETATM   19  C16 UNL     1      22.576  -0.862  54.467  1.00  0.00    -0.035 A 
HETATM   20  C17 UNL     1      21.110  -1.089  54.425  1.00  0.00     0.050 C 
BRANCH  16  21
HETATM   21  N4  UNL     1      26.786  -0.313  54.737  1.00  0.00    -0.327 N 
HETATM   22  C12 UNL     1      27.805  -0.456  53.768  1.00  0.00     0.218 C 
HETATM   23  C13 UNL     1      29.245  -0.285  54.029  1.00  0.00     0.117 C 
HETATM   24  O1  UNL     1      27.497  -0.751  52.589  1.00  0.00    -0.274 OA
HETATM   25  H11 UNL     1      27.194  -0.068  55.663  1.00  0.00     0.169 HD
ENDBRANCH  16  21
ENDBRANCH   1  14
TORSDOF 6
ENDMDL
