MODEL 1
REMARK VINA RESULT:      -6.9      0.000      0.000
REMARK  4 active torsions:
REMARK  status: ('A' for Active; 'I' for Inactive)
REMARK    1  A    between atoms: N1_5  and  C5_6 
REMARK    2  A    between atoms: C5_6  and  C6_7 
REMARK    3  A    between atoms: C10_14  and  N5_15 
REMARK    4  A    between atoms: N5_15  and  C11_16 
ROOT
HETATM    1  C6  UNL     1      25.224   0.138  53.631  1.00  0.00     0.004 A 
HETATM    2  C7  UNL     1      25.562  -0.468  54.847  1.00  0.00     0.030 A 
HETATM    3  C8  UNL     1      26.787  -0.045  55.296  1.00  0.00     0.119 A 
HETATM    4  N2  UNL     1      27.224   0.823  54.371  1.00  0.00    -0.240 N 
HETATM    5  N3  UNL     1      28.386   1.491  54.393  1.00  0.00    -0.161 NA
HETATM    6  C9  UNL     1      28.661   2.322  53.374  1.00  0.00     0.258 A 
HETATM    7  N4  UNL     1      27.791   2.465  52.382  1.00  0.00    -0.221 NA
HETATM    8  C10 UNL     1      26.623   1.802  52.349  1.00  0.00     0.154 A 
HETATM    9  C14 UNL     1      26.325   0.942  53.392  1.00  0.00     0.111 A 
ENDROOT
BRANCH   1  10
HETATM   10  C5  UNL     1      24.004  -0.042  52.819  1.00  0.00     0.313 C 
BRANCH  10  11
HETATM   11  N1  UNL     1      22.878  -0.169  53.743  1.00  0.00     0.093 N 
HETATM   12  C4  UNL     1      22.205  -1.456  53.531  1.00  0.00     0.273 C 
HETATM   13  C3  UNL     1      20.987  -1.232  54.431  1.00  0.00     0.036 C 
HETATM   14  C2  UNL     1      20.562   0.152  53.932  1.00  0.00     0.011 C 
HETATM   15  C1  UNL     1      19.656  -0.082  52.739  1.00  0.00     0.011 C 
HETATM   16  C15 UNL     1      21.827   0.784  53.384  1.00  0.00     0.277 C 
ENDBRANCH  10  11
ENDBRANCH   1  10
BRANCH   8  17
HETATM   17  N5  UNL     1      25.756   2.007  51.212  1.00  0.00    -0.369 N 
HETATM   18  H14 UNL     1      25.506   1.385  50.427  1.00  0.00     0.161 HD
BRANCH  17  19
HETATM   19  C11 UNL     1      25.102   3.294  51.088  1.00  0.00     0.075 C 
HETATM   20  C12 UNL     1      24.370   3.369  49.749  1.00  0.00     0.031 C 
HETATM   21  C13 UNL     1      24.119   3.569  52.207  1.00  0.00     0.031 C 
ENDBRANCH  17  19
ENDBRANCH   8  17
TORSDOF 4
ENDMDL
MODEL 2
REMARK VINA RESULT:      -6.8      2.078      5.425
REMARK  4 active torsions:
REMARK  status: ('A' for Active; 'I' for Inactive)
REMARK    1  A    between atoms: N1_5  and  C5_6 
REMARK    2  A    between atoms: C5_6  and  C6_7 
REMARK    3  A    between atoms: C10_14  and  N5_15 
REMARK    4  A    between atoms: N5_15  and  C11_16 
ROOT
HETATM    1  C6  UNL     1      24.964   1.274  52.335  1.00  0.00     0.004 A 
HETATM    2  C7  UNL     1      24.195   0.233  52.870  1.00  0.00     0.030 A 
HETATM    3  C8  UNL     1      22.879   0.597  53.000  1.00  0.00     0.119 A 
HETATM    4  N2  UNL     1      22.813   1.860  52.552  1.00  0.00    -0.240 N 
HETATM    5  N3  UNL     1      21.715   2.627  52.493  1.00  0.00    -0.161 NA
HETATM    6  C9  UNL     1      21.838   3.876  52.015  1.00  0.00     0.258 A 
HETATM    7  N4  UNL     1      23.024   4.321  51.617  1.00  0.00    -0.221 NA
HETATM    8  C10 UNL     1      24.131   3.562  51.672  1.00  0.00     0.154 A 
HETATM    9  C14 UNL     1      24.021   2.271  52.161  1.00  0.00     0.111 A 
ENDROOT
BRANCH   1  10
HETATM   10  C5  UNL     1      26.410   1.292  52.039  1.00  0.00     0.313 C 
BRANCH  10  11
HETATM   11  N1  UNL     1      27.117   1.042  53.294  1.00  0.00     0.093 N 
HETATM   12  C4  UNL     1      28.360   1.822  53.327  1.00  0.00     0.273 C 
HETATM   13  C3  UNL     1      28.979   1.220  54.591  1.00  0.00     0.036 C 
HETATM   14  C2  UNL     1      28.802  -0.267  54.268  1.00  0.00     0.011 C 
HETATM   15  C1  UNL     1      30.018  -0.678  53.460  1.00  0.00     0.011 C 
HETATM   16  C15 UNL     1      27.622  -0.331  53.318  1.00  0.00     0.277 C 
ENDBRANCH  10  11
ENDBRANCH   1  10
BRANCH   8  17
HETATM   17  N5  UNL     1      25.378   4.146  51.239  1.00  0.00    -0.369 N 
HETATM   18  H14 UNL     1      26.211   4.443  51.772  1.00  0.00     0.161 HD
BRANCH  17  19
HETATM   19  C11 UNL     1      25.549   4.395  49.822  1.00  0.00     0.075 C 
HETATM   20  C12 UNL     1      25.540   5.901  49.561  1.00  0.00     0.031 C 
HETATM   21  C13 UNL     1      26.827   3.803  49.265  1.00  0.00     0.031 C 
ENDBRANCH  17  19
ENDBRANCH   8  17
TORSDOF 4
ENDMDL
MODEL 3
REMARK VINA RESULT:      -6.8      1.453      5.399
REMARK  4 active torsions:
REMARK  status: ('A' for Active; 'I' for Inactive)
REMARK    1  A    between atoms: N1_5  and  C5_6 
REMARK    2  A    between atoms: C5_6  and  C6_7 
REMARK    3  A    between atoms: C10_14  and  N5_15 
REMARK    4  A    between atoms: N5_15  and  C11_16 
ROOT
HETATM    1  C6  UNL     1      24.403  -0.493  53.688  1.00  0.00     0.004 A 
HETATM    2  C7  UNL     1      24.239  -1.225  54.870  1.00  0.00     0.030 A 
HETATM    3  C8  UNL     1      22.952  -1.142  55.337  1.00  0.00     0.119 A 
HETATM    4  N2  UNL     1      22.305  -0.361  54.459  1.00  0.00    -0.240 N 
HETATM    5  N3  UNL     1      21.015  -0.001  54.515  1.00  0.00    -0.161 NA
HETATM    6  C9  UNL     1      20.534   0.793  53.545  1.00  0.00     0.258 A 
HETATM    7  N4  UNL     1      21.331   1.200  52.565  1.00  0.00    -0.221 NA
HETATM    8  C10 UNL     1      22.625   0.847  52.498  1.00  0.00     0.154 A 
HETATM    9  C14 UNL     1      23.136   0.027  53.491  1.00  0.00     0.111 A 
ENDROOT
BRANCH   1  10
HETATM   10  C5  UNL     1      25.621  -0.324  52.870  1.00  0.00     0.313 C 
BRANCH  10  11
HETATM   11  N1  UNL     1      26.483   0.635  53.561  1.00  0.00     0.093 N 
HETATM   12  C4  UNL     1      27.245   1.413  52.577  1.00  0.00     0.273 C 
HETATM   13  C3  UNL     1      28.185   2.144  53.539  1.00  0.00     0.036 C 
HETATM   14  C2  UNL     1      28.658   0.952  54.376  1.00  0.00     0.011 C 
HETATM   15  C1  UNL     1      29.846   0.358  53.643  1.00  0.00     0.011 C 
HETATM   16  C15 UNL     1      27.545  -0.073  54.275  1.00  0.00     0.277 C 
ENDBRANCH  10  11
ENDBRANCH   1  10
BRANCH   8  17
HETATM   17  N5  UNL     1      23.417   1.363  51.406  1.00  0.00    -0.369 N 
HETATM   18  H14 UNL     1      23.904   0.883  50.633  1.00  0.00     0.161 HD
BRANCH  17  19
HETATM   19  C11 UNL     1      23.607   2.798  51.333  1.00  0.00     0.075 C 
HETATM   20  C12 UNL     1      24.098   3.318  52.683  1.00  0.00     0.031 C 
HETATM   21  C13 UNL     1      24.588   3.211  50.256  1.00  0.00     0.031 C 
ENDBRANCH  17  19
ENDBRANCH   8  17
TORSDOF 4
ENDMDL
MODEL 4
REMARK VINA RESULT:      -6.6      1.994      6.241
REMARK  4 active torsions:
REMARK  status: ('A' for Active; 'I' for Inactive)
REMARK    1  A    between atoms: N1_5  and  C5_6 
REMARK    2  A    between atoms: C5_6  and  C6_7 
REMARK    3  A    between atoms: C10_14  and  N5_15 
REMARK    4  A    between atoms: N5_15  and  C11_16 
ROOT
HETATM    1  C6  UNL     1      24.195   2.049  52.738  1.00  0.00     0.004 A 
HETATM    2  C7  UNL     1      24.569   3.366  52.447  1.00  0.00     0.030 A 
HETATM    3  C8  UNL     1      23.475   4.158  52.211  1.00  0.00     0.119 A 
HETATM    4  N2  UNL     1      22.414   3.349  52.350  1.00  0.00    -0.240 N 
HETATM    5  N3  UNL     1      21.126   3.694  52.207  1.00  0.00    -0.161 NA
HETATM    6  C9  UNL     1      20.191   2.746  52.381  1.00  0.00     0.258 A 
HETATM    7  N4  UNL     1      20.553   1.506  52.686  1.00  0.00    -0.221 NA
HETATM    8  C10 UNL     1      21.839   1.148  52.832  1.00  0.00     0.154 A 
HETATM    9  C14 UNL     1      22.816   2.114  52.656  1.00  0.00     0.111 A 
ENDROOT
BRANCH   1  10
HETATM   10  C5  UNL     1      25.060   0.893  53.049  1.00  0.00     0.313 C 
BRANCH  10  11
HETATM   11  N1  UNL     1      26.301   1.415  53.619  1.00  0.00     0.093 N 
HETATM   12  C4  UNL     1      27.333   1.487  52.578  1.00  0.00     0.273 C 
HETATM   13  C3  UNL     1      28.532   1.835  53.463  1.00  0.00     0.036 C 
HETATM   14  C2  UNL     1      28.355   0.769  54.548  1.00  0.00     0.011 C 
HETATM   15  C1  UNL     1      29.066  -0.475  54.049  1.00  0.00     0.011 C 
HETATM   16  C15 UNL     1      26.875   0.438  54.545  1.00  0.00     0.277 C 
ENDBRANCH  10  11
ENDBRANCH   1  10
BRANCH   8  17
HETATM   17  N5  UNL     1      22.131  -0.233  53.139  1.00  0.00    -0.369 N 
HETATM   18  H14 UNL     1      22.570  -0.977  52.574  1.00  0.00     0.161 HD
BRANCH  17  19
HETATM   19  C11 UNL     1      21.757  -0.723  54.451  1.00  0.00     0.075 C 
HETATM   20  C12 UNL     1      20.689  -1.806  54.307  1.00  0.00     0.031 C 
HETATM   21  C13 UNL     1      22.929  -1.284  55.230  1.00  0.00     0.031 C 
ENDBRANCH  17  19
ENDBRANCH   8  17
TORSDOF 4
ENDMDL
MODEL 5
REMARK VINA RESULT:      -6.5      2.142      6.096
REMARK  4 active torsions:
REMARK  status: ('A' for Active; 'I' for Inactive)
REMARK    1  A    between atoms: N1_5  and  C5_6 
REMARK    2  A    between atoms: C5_6  and  C6_7 
REMARK    3  A    between atoms: C10_14  and  N5_15 
REMARK    4  A    between atoms: N5_15  and  C11_16 
ROOT
HETATM    1  C6  UNL     1      24.348   2.040  51.690  1.00  0.00     0.004 A 
HETATM    2  C7  UNL     1      24.762   3.005  50.764  1.00  0.00     0.030 A 
HETATM    3  C8  UNL     1      23.886   3.100  49.713  1.00  0.00     0.119 A 
HETATM    4  N2  UNL     1      22.924   2.200  49.969  1.00  0.00    -0.240 N 
HETATM    5  N3  UNL     1      21.852   1.943  49.206  1.00  0.00    -0.161 NA
HETATM    6  C9  UNL     1      20.989   1.001  49.621  1.00  0.00     0.258 A 
HETATM    7  N4  UNL     1      21.209   0.355  50.759  1.00  0.00    -0.221 NA
HETATM    8  C10 UNL     1      22.278   0.604  51.532  1.00  0.00     0.154 A 
HETATM    9  C14 UNL     1      23.178   1.573  51.119  1.00  0.00     0.111 A 
ENDROOT
BRANCH   1  10
HETATM   10  C5  UNL     1      25.002   1.632  52.950  1.00  0.00     0.313 C 
BRANCH  10  11
HETATM   11  N1  UNL     1      26.126   0.765  52.599  1.00  0.00     0.093 N 
HETATM   12  C4  UNL     1      26.028  -0.498  53.342  1.00  0.00     0.273 C 
HETATM   13  C3  UNL     1      27.389  -1.091  52.970  1.00  0.00     0.036 C 
HETATM   14  C2  UNL     1      28.277   0.119  53.273  1.00  0.00     0.011 C 
HETATM   15  C1  UNL     1      28.627   0.037  54.747  1.00  0.00     0.011 C 
HETATM   16  C15 UNL     1      27.372   1.326  53.121  1.00  0.00     0.277 C 
ENDBRANCH  10  11
ENDBRANCH   1  10
BRANCH   8  17
HETATM   17  N5  UNL     1      22.442  -0.172  52.739  1.00  0.00    -0.369 N 
HETATM   18  H14 UNL     1      23.289  -0.524  53.211  1.00  0.00     0.161 HD
BRANCH  17  19
HETATM   19  C11 UNL     1      21.244  -0.567  53.451  1.00  0.00     0.075 C 
HETATM   20  C12 UNL     1      21.547  -1.779  54.330  1.00  0.00     0.031 C 
HETATM   21  C13 UNL     1      20.674   0.541  54.314  1.00  0.00     0.031 C 
ENDBRANCH  17  19
ENDBRANCH   8  17
TORSDOF 4
ENDMDL
MODEL 6
REMARK VINA RESULT:      -6.4      1.590      2.152
REMARK  4 active torsions:
REMARK  status: ('A' for Active; 'I' for Inactive)
REMARK    1  A    between atoms: N1_5  and  C5_6 
REMARK    2  A    between atoms: C5_6  and  C6_7 
REMARK    3  A    between atoms: C10_14  and  N5_15 
REMARK    4  A    between atoms: N5_15  and  C11_16 
ROOT
HETATM    1  C6  UNL     1      24.201   1.110  52.921  1.00  0.00     0.004 A 
HETATM    2  C7  UNL     1      24.069  -0.047  53.698  1.00  0.00     0.030 A 
HETATM    3  C8  UNL     1      25.292  -0.542  54.073  1.00  0.00     0.119 A 
HETATM    4  N2  UNL     1      26.194   0.294  53.536  1.00  0.00    -0.240 N 
HETATM    5  N3  UNL     1      27.527   0.200  53.641  1.00  0.00    -0.161 NA
HETATM    6  C9  UNL     1      28.279   1.131  53.032  1.00  0.00     0.258 A 
HETATM    7  N4  UNL     1      27.699   2.110  52.350  1.00  0.00    -0.221 NA
HETATM    8  C10 UNL     1      26.365   2.215  52.237  1.00  0.00     0.154 A 
HETATM    9  C14 UNL     1      25.574   1.263  52.860  1.00  0.00     0.111 A 
ENDROOT
BRANCH   1  10
HETATM   10  C5  UNL     1      23.139   1.943  52.322  1.00  0.00     0.313 C 
BRANCH  10  11
HETATM   11  N1  UNL     1      21.944   1.110  52.201  1.00  0.00     0.093 N 
HETATM   12  C4  UNL     1      21.503   1.078  50.801  1.00  0.00     0.273 C 
HETATM   13  C3  UNL     1      20.168   0.354  50.996  1.00  0.00     0.036 C 
HETATM   14  C2  UNL     1      19.601   1.189  52.148  1.00  0.00     0.011 C 
HETATM   15  C1  UNL     1      18.887   2.367  51.514  1.00  0.00     0.011 C 
HETATM   16  C15 UNL     1      20.811   1.762  52.859  1.00  0.00     0.277 C 
ENDBRANCH  10  11
ENDBRANCH   1  10
BRANCH   8  17
HETATM   17  N5  UNL     1      25.831   3.302  51.451  1.00  0.00    -0.369 N 
HETATM   18  H14 UNL     1      25.389   4.192  51.732  1.00  0.00     0.161 HD
BRANCH  17  19
HETATM   19  C11 UNL     1      25.885   3.178  50.008  1.00  0.00     0.075 C 
HETATM   20  C12 UNL     1      24.501   3.447  49.419  1.00  0.00     0.031 C 
HETATM   21  C13 UNL     1      26.887   4.118  49.370  1.00  0.00     0.031 C 
ENDBRANCH  17  19
ENDBRANCH   8  17
TORSDOF 4
ENDMDL
MODEL 7
REMARK VINA RESULT:      -6.3      1.878      5.000
REMARK  4 active torsions:
REMARK  status: ('A' for Active; 'I' for Inactive)
REMARK    1  A    between atoms: N1_5  and  C5_6 
REMARK    2  A    between atoms: C5_6  and  C6_7 
REMARK    3  A    between atoms: C10_14  and  N5_15 
REMARK    4  A    between atoms: N5_15  and  C11_16 
ROOT
HETATM    1  C6  UNL     1      22.681   0.369  52.788  1.00  0.00     0.004 A 
HETATM    2  C7  UNL     1      21.371  -0.112  52.888  1.00  0.00     0.030 A 
HETATM    3  C8  UNL     1      21.235  -0.983  53.939  1.00  0.00     0.119 A 
HETATM    4  N2  UNL     1      22.451  -1.054  54.501  1.00  0.00    -0.240 N 
HETATM    5  N3  UNL     1      22.793  -1.792  55.567  1.00  0.00    -0.161 NA
HETATM    6  C9  UNL     1      24.065  -1.741  55.993  1.00  0.00     0.258 A 
HETATM    7  N4  UNL     1      24.946  -0.975  55.362  1.00  0.00    -0.221 NA
HETATM    8  C10 UNL     1      24.616  -0.231  54.294  1.00  0.00     0.154 A 
HETATM    9  C14 UNL     1      23.307  -0.272  53.842  1.00  0.00     0.111 A 
ENDROOT
BRANCH   1  10
HETATM   10  C5  UNL     1      23.242   1.318  51.804  1.00  0.00     0.313 C 
BRANCH  10  11
HETATM   11  N1  UNL     1      22.819   2.660  52.201  1.00  0.00     0.093 N 
HETATM   12  C4  UNL     1      22.110   3.305  51.089  1.00  0.00     0.273 C 
HETATM   13  C3  UNL     1      21.989   4.713  51.676  1.00  0.00     0.036 C 
HETATM   14  C2  UNL     1      23.439   4.920  52.121  1.00  0.00     0.011 C 
HETATM   15  C1  UNL     1      24.182   5.470  50.918  1.00  0.00     0.011 C 
HETATM   16  C15 UNL     1      23.989   3.526  52.355  1.00  0.00     0.277 C 
ENDBRANCH  10  11
ENDBRANCH   1  10
BRANCH   8  17
HETATM   17  N5  UNL     1      25.653   0.550  53.661  1.00  0.00    -0.369 N 
HETATM   18  H14 UNL     1      25.657   1.522  53.315  1.00  0.00     0.161 HD
BRANCH  17  19
HETATM   19  C11 UNL     1      26.932  -0.091  53.432  1.00  0.00     0.075 C 
HETATM   20  C12 UNL     1      26.837  -1.005  52.211  1.00  0.00     0.031 C 
HETATM   21  C13 UNL     1      28.061   0.897  53.225  1.00  0.00     0.031 C 
ENDBRANCH  17  19
ENDBRANCH   8  17
TORSDOF 4
ENDMDL
MODEL 8
REMARK VINA RESULT:      -6.1      2.077      4.380
REMARK  4 active torsions:
REMARK  status: ('A' for Active; 'I' for Inactive)
REMARK    1  A    between atoms: N1_5  and  C5_6 
REMARK    2  A    between atoms: C5_6  and  C6_7 
REMARK    3  A    between atoms: C10_14  and  N5_15 
REMARK    4  A    between atoms: N5_15  and  C11_16 
ROOT
HETATM    1  C6  UNL     1      24.607   1.800  51.523  1.00  0.00     0.004 A 
HETATM    2  C7  UNL     1      25.781   2.510  51.244  1.00  0.00     0.030 A 
HETATM    3  C8  UNL     1      26.783   2.187  52.122  1.00  0.00     0.119 A 
HETATM    4  N2  UNL     1      26.249   1.279  52.953  1.00  0.00    -0.240 N 
HETATM    5  N3  UNL     1      26.868   0.678  53.979  1.00  0.00    -0.161 NA
HETATM    6  C9  UNL     1      26.173  -0.209  54.710  1.00  0.00     0.258 A 
HETATM    7  N4  UNL     1      24.907  -0.469  54.408  1.00  0.00    -0.221 NA
HETATM    8  C10 UNL     1      24.276   0.126  53.382  1.00  0.00     0.154 A 
HETATM    9  C14 UNL     1      24.979   1.042  52.618  1.00  0.00     0.111 A 
ENDROOT
BRANCH   1  10
HETATM   10  C5  UNL     1      23.308   1.856  50.822  1.00  0.00     0.313 C 
BRANCH  10  11
HETATM   11  N1  UNL     1      22.439   2.754  51.581  1.00  0.00     0.093 N 
HETATM   12  C4  UNL     1      21.033   2.419  51.322  1.00  0.00     0.273 C 
HETATM   13  C3  UNL     1      20.377   3.606  52.032  1.00  0.00     0.036 C 
HETATM   14  C2  UNL     1      21.206   4.743  51.428  1.00  0.00     0.011 C 
HETATM   15  C1  UNL     1      20.527   5.126  50.127  1.00  0.00     0.011 C 
HETATM   16  C15 UNL     1      22.530   4.111  51.042  1.00  0.00     0.277 C 
ENDBRANCH  10  11
ENDBRANCH   1  10
BRANCH   8  17
HETATM   17  N5  UNL     1      22.890  -0.207  53.151  1.00  0.00    -0.369 N 
HETATM   18  H14 UNL     1      22.343  -0.274  52.278  1.00  0.00     0.161 HD
BRANCH  17  19
HETATM   19  C11 UNL     1      22.066  -0.496  54.307  1.00  0.00     0.075 C 
HETATM   20  C12 UNL     1      20.871   0.456  54.335  1.00  0.00     0.031 C 
HETATM   21  C13 UNL     1      21.563  -1.924  54.334  1.00  0.00     0.031 C 
ENDBRANCH  17  19
ENDBRANCH   8  17
TORSDOF 4
ENDMDL
MODEL 9
REMARK VINA RESULT:      -6.1      1.758      4.808
REMARK  4 active torsions:
REMARK  status: ('A' for Active; 'I' for Inactive)
REMARK    1  A    between atoms: N1_5  and  C5_6 
REMARK    2  A    between atoms: C5_6  and  C6_7 
REMARK    3  A    between atoms: C10_14  and  N5_15 
REMARK    4  A    between atoms: N5_15  and  C11_16 
ROOT
HETATM    1  C6  UNL     1      24.884   0.852  52.612  1.00  0.00     0.004 A 
HETATM    2  C7  UNL     1      26.219   0.905  53.028  1.00  0.00     0.030 A 
HETATM    3  C8  UNL     1      26.420   0.162  54.164  1.00  0.00     0.119 A 
HETATM    4  N2  UNL     1      25.220  -0.357  54.466  1.00  0.00    -0.240 N 
HETATM    5  N3  UNL     1      24.938  -1.155  55.506  1.00  0.00    -0.161 NA
HETATM    6  C9  UNL     1      23.673  -1.580  55.655  1.00  0.00     0.258 A 
HETATM    7  N4  UNL     1      22.742  -1.209  54.785  1.00  0.00    -0.221 NA
HETATM    8  C10 UNL     1      23.012  -0.411  53.740  1.00  0.00     0.154 A 
HETATM    9  C14 UNL     1      24.312   0.036  53.571  1.00  0.00     0.111 A 
ENDROOT
BRANCH   1  10
HETATM   10  C5  UNL     1      24.256   1.506  51.446  1.00  0.00     0.313 C 
BRANCH  10  11
HETATM   11  N1  UNL     1      24.369   2.951  51.641  1.00  0.00     0.093 N 
HETATM   12  C4  UNL     1      23.452   3.381  52.703  1.00  0.00     0.273 C 
HETATM   13  C3  UNL     1      23.607   4.896  52.544  1.00  0.00     0.036 C 
HETATM   14  C2  UNL     1      23.419   5.005  51.028  1.00  0.00     0.011 C 
HETATM   15  C1  UNL     1      21.925   5.119  50.789  1.00  0.00     0.011 C 
HETATM   16  C15 UNL     1      23.834   3.656  50.476  1.00  0.00     0.277 C 
ENDBRANCH  10  11
ENDBRANCH   1  10
BRANCH   8  17
HETATM   17  N5  UNL     1      21.924  -0.043  52.864  1.00  0.00    -0.369 N 
HETATM   18  H14 UNL     1      21.845  -0.057  51.835  1.00  0.00     0.161 HD
BRANCH  17  19
HETATM   19  C11 UNL     1      20.707   0.451  53.476  1.00  0.00     0.075 C 
HETATM   20  C12 UNL     1      20.322   1.788  52.843  1.00  0.00     0.031 C 
HETATM   21  C13 UNL     1      19.545  -0.512  53.345  1.00  0.00     0.031 C 
ENDBRANCH  17  19
ENDBRANCH   8  17
TORSDOF 4
ENDMDL
