MODEL 1
REMARK VINA RESULT:      -8.9      0.000      0.000
REMARK  7 active torsions:
REMARK  status: ('A' for Active; 'I' for Inactive)
REMARK    1  A    between atoms: C1_2  and  O2_3 
REMARK    2  A    between atoms: C1_2  and  C2_4 
REMARK    3  A    between atoms: C2_4  and  C3_5 
REMARK    4  A    between atoms: C3_5  and  C4_6 
REMARK    5  A    between atoms: C4_6  and  C5_7 
REMARK    6  A    between atoms: C4_6  and  C15_20 
REMARK    7  A    between atoms: C6_8  and  C7_9 
ROOT
HETATM    1  C5  UNL     1      24.716  -0.072  52.940  1.00  0.00     0.010 C 
HETATM    2  C6  UNL     1      23.432   0.389  53.413  1.00  0.00     0.018 C 
ENDROOT
BRANCH   1   3
HETATM    3  C4  UNL     1      25.964   0.170  52.600  1.00  0.00    -0.033 C 
BRANCH   3   4
HETATM    4  C3  UNL     1      26.194   0.972  51.354  1.00  0.00     0.051 C 
BRANCH   4   5
HETATM    5  C2  UNL     1      26.831   2.268  51.710  1.00  0.00     0.114 C 
BRANCH   5   6
HETATM    6  C1  UNL     1      26.414   3.270  50.662  1.00  0.00     0.139 C 
HETATM    7  O1  UNL     1      25.171   3.471  50.484  1.00  0.00    -0.650 OA
BRANCH   6   8
HETATM    8  O2  UNL     1      27.271   4.005  49.858  1.00  0.00    -0.776 OA
HETATM    9  H1  UNL     1      27.471   3.768  48.911  1.00  0.00     0.167 HD
ENDBRANCH   6   8
ENDBRANCH   5   6
ENDBRANCH   4   5
ENDBRANCH   3   4
BRANCH   3  10
HETATM   10  C15 UNL     1      27.204  -0.243  53.321  1.00  0.00     0.035 C 
HETATM   11  N2  UNL     1      27.939  -1.139  52.828  1.00  0.00    -0.294 NA
HETATM   12  C16 UNL     1      29.153  -1.635  53.403  1.00  0.00     0.149 C 
HETATM   13  C17 UNL     1      30.077  -0.418  53.614  1.00  0.00     0.022 C 
HETATM   14  C18 UNL     1      29.279   0.639  54.358  1.00  0.00     0.008 C 
HETATM   15  C19 UNL     1      27.850   0.158  54.562  1.00  0.00     0.059 C 
ENDBRANCH   3  10
ENDBRANCH   1   3
BRANCH   2  16
HETATM   16  C7  UNL     1      22.280  -0.193  53.665  1.00  0.00     0.044 A 
HETATM   17  C8  UNL     1      22.023  -1.118  54.760  1.00  0.00     0.257 A 
HETATM   18  O3  UNL     1      22.740  -1.570  55.670  1.00  0.00    -0.267 OA
HETATM   19  N1  UNL     1      20.660  -1.475  54.624  1.00  0.00    -0.322 N 
HETATM   20  C9  UNL     1      20.171  -0.777  53.495  1.00  0.00     0.046 A 
HETATM   21  H8  UNL     1      20.114  -2.122  55.229  1.00  0.00     0.169 HD
HETATM   22  C10 UNL     1      18.903  -0.778  52.935  1.00  0.00     0.032 A 
HETATM   23  C14 UNL     1      21.098   0.021  52.862  1.00  0.00     0.008 A 
HETATM   24  C11 UNL     1      18.597  -0.031  51.822  1.00  0.00     0.021 A 
HETATM   25  C12 UNL     1      19.558   0.768  51.201  1.00  0.00     0.011 A 
HETATM   26 BR1  UNL     1      19.272   1.845  49.667  1.00  0.00    -0.051 Br
HETATM   27  C13 UNL     1      20.814   0.777  51.747  1.00  0.00     0.033 A 
ENDBRANCH   2  16
TORSDOF 7
ENDMDL
MODEL 2
REMARK VINA RESULT:      -8.7      2.172      3.693
REMARK  7 active torsions:
REMARK  status: ('A' for Active; 'I' for Inactive)
REMARK    1  A    between atoms: C1_2  and  O2_3 
REMARK    2  A    between atoms: C1_2  and  C2_4 
REMARK    3  A    between atoms: C2_4  and  C3_5 
REMARK    4  A    between atoms: C3_5  and  C4_6 
REMARK    5  A    between atoms: C4_6  and  C5_7 
REMARK    6  A    between atoms: C4_6  and  C15_20 
REMARK    7  A    between atoms: C6_8  and  C7_9 
ROOT
HETATM    1  C5  UNL     1      24.009   1.312  52.846  1.00  0.00     0.010 C 
HETATM    2  C6  UNL     1      23.482  -0.003  53.123  1.00  0.00     0.018 C 
ENDROOT
BRANCH   1   3
HETATM    3  C4  UNL     1      25.000   2.090  52.466  1.00  0.00    -0.033 C 
BRANCH   3   4
HETATM    4  C3  UNL     1      26.042   2.427  53.491  1.00  0.00     0.051 C 
BRANCH   4   5
HETATM    5  C2  UNL     1      27.143   1.430  53.426  1.00  0.00     0.114 C 
BRANCH   5   6
HETATM    6  C1  UNL     1      28.428   2.169  53.701  1.00  0.00     0.139 C 
HETATM    7  O1  UNL     1      29.039   1.924  54.790  1.00  0.00    -0.650 OA
BRANCH   6   8
HETATM    8  O2  UNL     1      29.019   3.105  52.869  1.00  0.00    -0.776 OA
HETATM    9  H1  UNL     1      28.888   4.088  52.971  1.00  0.00     0.167 HD
ENDBRANCH   6   8
ENDBRANCH   5   6
ENDBRANCH   4   5
ENDBRANCH   3   4
BRANCH   3  10
HETATM   10  C15 UNL     1      25.235   2.675  51.113  1.00  0.00     0.035 C 
HETATM   11  N2  UNL     1      24.334   3.369  50.572  1.00  0.00    -0.294 NA
HETATM   12  C16 UNL     1      24.417   3.991  49.285  1.00  0.00     0.149 C 
HETATM   13  C17 UNL     1      25.669   4.891  49.304  1.00  0.00     0.022 C 
HETATM   14  C18 UNL     1      26.831   4.047  49.798  1.00  0.00     0.008 C 
HETATM   15  C19 UNL     1      26.339   2.655  50.165  1.00  0.00     0.059 C 
ENDBRANCH   3  10
ENDBRANCH   1   3
BRANCH   2  16
HETATM   16  C7  UNL     1      22.319  -0.462  53.532  1.00  0.00     0.044 A 
HETATM   17  C8  UNL     1      22.101  -1.271  54.722  1.00  0.00     0.257 A 
HETATM   18  O3  UNL     1      22.868  -1.711  55.597  1.00  0.00    -0.267 OA
HETATM   19  N1  UNL     1      20.707  -1.518  54.745  1.00  0.00    -0.322 N 
HETATM   20  C9  UNL     1      20.164  -0.872  53.610  1.00  0.00     0.046 A 
HETATM   21  H8  UNL     1      20.175  -2.066  55.452  1.00  0.00     0.169 HD
HETATM   22  C10 UNL     1      18.850  -0.807  53.173  1.00  0.00     0.032 A 
HETATM   23  C14 UNL     1      21.082  -0.210  52.826  1.00  0.00     0.008 A 
HETATM   24  C11 UNL     1      18.494  -0.127  52.033  1.00  0.00     0.021 A 
HETATM   25  C12 UNL     1      19.448   0.534  51.258  1.00  0.00     0.011 A 
HETATM   26 BR1  UNL     1      19.096   1.507  49.669  1.00  0.00    -0.051 Br
HETATM   27  C13 UNL     1      20.749   0.478  51.682  1.00  0.00     0.033 A 
ENDBRANCH   2  16
TORSDOF 7
ENDMDL
MODEL 3
REMARK VINA RESULT:      -8.7      1.750      2.103
REMARK  7 active torsions:
REMARK  status: ('A' for Active; 'I' for Inactive)
REMARK    1  A    between atoms: C1_2  and  O2_3 
REMARK    2  A    between atoms: C1_2  and  C2_4 
REMARK    3  A    between atoms: C2_4  and  C3_5 
REMARK    4  A    between atoms: C3_5  and  C4_6 
REMARK    5  A    between atoms: C4_6  and  C5_7 
REMARK    6  A    between atoms: C4_6  and  C15_20 
REMARK    7  A    between atoms: C6_8  and  C7_9 
ROOT
HETATM    1  C5  UNL     1      24.112   1.125  52.988  1.00  0.00     0.010 C 
HETATM    2  C6  UNL     1      23.480  -0.147  53.243  1.00  0.00     0.018 C 
ENDROOT
BRANCH   1   3
HETATM    3  C4  UNL     1      25.187   1.835  52.720  1.00  0.00    -0.033 C 
BRANCH   3   4
HETATM    4  C3  UNL     1      24.982   3.196  52.122  1.00  0.00     0.051 C 
BRANCH   4   5
HETATM    5  C2  UNL     1      23.758   3.812  52.701  1.00  0.00     0.114 C 
BRANCH   5   6
HETATM    6  C1  UNL     1      23.620   5.183  52.089  1.00  0.00     0.139 C 
HETATM    7  O1  UNL     1      22.824   5.325  51.107  1.00  0.00    -0.650 OA
BRANCH   6   8
HETATM    8  O2  UNL     1      24.289   6.325  52.501  1.00  0.00    -0.776 OA
HETATM    9  H1  UNL     1      25.268   6.459  52.377  1.00  0.00     0.167 HD
ENDBRANCH   6   8
ENDBRANCH   5   6
ENDBRANCH   4   5
ENDBRANCH   3   4
BRANCH   3  10
HETATM   10  C15 UNL     1      26.612   1.460  52.957  1.00  0.00     0.035 C 
HETATM   11  N2  UNL     1      27.346   2.217  53.646  1.00  0.00    -0.294 NA
HETATM   12  C16 UNL     1      28.725   1.988  53.956  1.00  0.00     0.149 C 
HETATM   13  C17 UNL     1      28.806   0.607  54.638  1.00  0.00     0.022 C 
HETATM   14  C18 UNL     1      28.069  -0.384  53.754  1.00  0.00     0.008 C 
HETATM   15  C19 UNL     1      27.457   0.341  52.565  1.00  0.00     0.059 C 
ENDBRANCH   3  10
ENDBRANCH   1   3
BRANCH   2  16
HETATM   16  C7  UNL     1      22.247  -0.528  53.500  1.00  0.00     0.044 A 
HETATM   17  C8  UNL     1      21.839  -1.369  54.616  1.00  0.00     0.257 A 
HETATM   18  O3  UNL     1      22.469  -1.906  55.544  1.00  0.00    -0.267 OA
HETATM   19  N1  UNL     1      20.437  -1.504  54.478  1.00  0.00    -0.322 N 
HETATM   20  C9  UNL     1      20.072  -0.767  53.327  1.00  0.00     0.046 A 
HETATM   21  H8  UNL     1      19.790  -2.037  55.095  1.00  0.00     0.169 HD
HETATM   22  C10 UNL     1      18.823  -0.578  52.757  1.00  0.00     0.032 A 
HETATM   23  C14 UNL     1      21.118  -0.147  52.681  1.00  0.00     0.008 A 
HETATM   24  C11 UNL     1      18.647   0.178  51.622  1.00  0.00     0.021 A 
HETATM   25  C12 UNL     1      19.727   0.794  50.989  1.00  0.00     0.011 A 
HETATM   26 BR1  UNL     1      19.627   1.860  49.424  1.00  0.00    -0.051 Br
HETATM   27  C13 UNL     1      20.966   0.614  51.545  1.00  0.00     0.033 A 
ENDBRANCH   2  16
TORSDOF 7
ENDMDL
MODEL 4
REMARK VINA RESULT:      -8.2      3.761      6.622
REMARK  7 active torsions:
REMARK  status: ('A' for Active; 'I' for Inactive)
REMARK    1  A    between atoms: C1_2  and  O2_3 
REMARK    2  A    between atoms: C1_2  and  C2_4 
REMARK    3  A    between atoms: C2_4  and  C3_5 
REMARK    4  A    between atoms: C3_5  and  C4_6 
REMARK    5  A    between atoms: C4_6  and  C5_7 
REMARK    6  A    between atoms: C4_6  and  C15_20 
REMARK    7  A    between atoms: C6_8  and  C7_9 
ROOT
HETATM    1  C5  UNL     1      25.611   3.179  50.801  1.00  0.00     0.010 C 
HETATM    2  C6  UNL     1      26.526   2.188  51.317  1.00  0.00     0.018 C 
ENDROOT
BRANCH   1   3
HETATM    3  C4  UNL     1      25.114   3.861  49.792  1.00  0.00    -0.033 C 
BRANCH   3   4
HETATM    4  C3  UNL     1      25.983   4.923  49.186  1.00  0.00     0.051 C 
BRANCH   4   5
HETATM    5  C2  UNL     1      27.283   4.326  48.777  1.00  0.00     0.114 C 
BRANCH   5   6
HETATM    6  C1  UNL     1      28.268   5.460  48.641  1.00  0.00     0.139 C 
HETATM    7  O1  UNL     1      29.408   5.207  48.136  1.00  0.00    -0.650 OA
BRANCH   6   8
HETATM    8  O2  UNL     1      28.048   6.774  49.020  1.00  0.00    -0.776 OA
HETATM    9  H1  UNL     1      28.684   7.295  49.583  1.00  0.00     0.167 HD
ENDBRANCH   6   8
ENDBRANCH   5   6
ENDBRANCH   4   5
ENDBRANCH   3   4
BRANCH   3  10
HETATM   10  C15 UNL     1      23.778   3.697  49.148  1.00  0.00     0.035 C 
HETATM   11  N2  UNL     1      23.319   4.623  48.428  1.00  0.00    -0.294 NA
HETATM   12  C16 UNL     1      22.058   4.607  47.749  1.00  0.00     0.149 C 
HETATM   13  C17 UNL     1      22.048   3.351  46.855  1.00  0.00     0.022 C 
HETATM   14  C18 UNL     1      22.439   2.168  47.723  1.00  0.00     0.008 C 
HETATM   15  C19 UNL     1      22.771   2.647  49.129  1.00  0.00     0.059 C 
ENDBRANCH   3  10
ENDBRANCH   1   3
BRANCH   2  16
HETATM   16  C7  UNL     1      26.780   1.703  52.513  1.00  0.00     0.044 A 
HETATM   17  C8  UNL     1      27.981   1.966  53.293  1.00  0.00     0.257 A 
HETATM   18  O3  UNL     1      28.997   2.650  53.076  1.00  0.00    -0.267 OA
HETATM   19  N1  UNL     1      27.803   1.237  54.493  1.00  0.00    -0.322 N 
HETATM   20  C9  UNL     1      26.550   0.589  54.390  1.00  0.00     0.046 A 
HETATM   21  H8  UNL     1      28.458   1.181  55.300  1.00  0.00     0.169 HD
HETATM   22  C10 UNL     1      25.908  -0.245  55.292  1.00  0.00     0.032 A 
HETATM   23  C14 UNL     1      25.872   0.825  53.215  1.00  0.00     0.008 A 
HETATM   24  C11 UNL     1      24.677  -0.796  55.027  1.00  0.00     0.021 A 
HETATM   25  C12 UNL     1      24.013  -0.539  53.826  1.00  0.00     0.011 A 
HETATM   26 BR1  UNL     1      22.318  -1.230  53.333  1.00  0.00    -0.051 Br
HETATM   27  C13 UNL     1      24.639   0.285  52.928  1.00  0.00     0.033 A 
ENDBRANCH   2  16
TORSDOF 7
ENDMDL
MODEL 5
REMARK VINA RESULT:      -8.1      2.550      4.730
REMARK  7 active torsions:
REMARK  status: ('A' for Active; 'I' for Inactive)
REMARK    1  A    between atoms: C1_2  and  O2_3 
REMARK    2  A    between atoms: C1_2  and  C2_4 
REMARK    3  A    between atoms: C2_4  and  C3_5 
REMARK    4  A    between atoms: C3_5  and  C4_6 
REMARK    5  A    between atoms: C4_6  and  C5_7 
REMARK    6  A    between atoms: C4_6  and  C15_20 
REMARK    7  A    between atoms: C6_8  and  C7_9 
ROOT
HETATM    1  C5  UNL     1      24.053   1.607  52.901  1.00  0.00     0.010 C 
HETATM    2  C6  UNL     1      23.556   2.432  51.825  1.00  0.00     0.018 C 
ENDROOT
BRANCH   1   3
HETATM    3  C4  UNL     1      24.936   0.753  53.373  1.00  0.00    -0.033 C 
BRANCH   3   4
HETATM    4  C3  UNL     1      24.409  -0.483  54.039  1.00  0.00     0.051 C 
BRANCH   4   5
HETATM    5  C2  UNL     1      23.009  -0.724  53.600  1.00  0.00     0.114 C 
BRANCH   5   6
HETATM    6  C1  UNL     1      22.268  -1.305  54.779  1.00  0.00     0.139 C 
HETATM    7  O1  UNL     1      22.947  -1.693  55.782  1.00  0.00    -0.650 OA
BRANCH   6   8
HETATM    8  O2  UNL     1      20.895  -1.459  54.877  1.00  0.00    -0.776 OA
HETATM    9  H1  UNL     1      20.371  -2.079  54.298  1.00  0.00     0.167 HD
ENDBRANCH   6   8
ENDBRANCH   5   6
ENDBRANCH   4   5
ENDBRANCH   3   4
BRANCH   3  10
HETATM   10  C15 UNL     1      26.424   0.849  53.312  1.00  0.00     0.035 C 
HETATM   11  N2  UNL     1      26.999   1.872  53.769  1.00  0.00    -0.294 NA
HETATM   12  C16 UNL     1      28.413   2.103  53.779  1.00  0.00     0.149 C 
HETATM   13  C17 UNL     1      29.054   0.910  54.516  1.00  0.00     0.022 C 
HETATM   14  C18 UNL     1      28.513  -0.362  53.885  1.00  0.00     0.008 C 
HETATM   15  C19 UNL     1      27.488  -0.012  52.817  1.00  0.00     0.059 C 
ENDBRANCH   3  10
ENDBRANCH   1   3
BRANCH   2  16
HETATM   16  C7  UNL     1      22.534   3.247  51.688  1.00  0.00     0.044 A 
HETATM   17  C8  UNL     1      22.621   4.690  51.518  1.00  0.00     0.257 A 
HETATM   18  O3  UNL     1      23.583   5.477  51.459  1.00  0.00    -0.267 OA
HETATM   19  N1  UNL     1      21.279   5.128  51.413  1.00  0.00    -0.322 N 
HETATM   20  C9  UNL     1      20.469   3.974  51.521  1.00  0.00     0.046 A 
HETATM   21  H8  UNL     1      20.942   6.104  51.282  1.00  0.00     0.169 HD
HETATM   22  C10 UNL     1      19.089   3.855  51.482  1.00  0.00     0.032 A 
HETATM   23  C14 UNL     1      21.161   2.795  51.690  1.00  0.00     0.008 A 
HETATM   24  C11 UNL     1      18.457   2.640  51.605  1.00  0.00     0.021 A 
HETATM   25  C12 UNL     1      19.186   1.461  51.775  1.00  0.00     0.011 A 
HETATM   26 BR1  UNL     1      18.446  -0.275  51.956  1.00  0.00    -0.051 Br
HETATM   27  C13 UNL     1      20.550   1.568  51.814  1.00  0.00     0.033 A 
ENDBRANCH   2  16
TORSDOF 7
ENDMDL
MODEL 6
REMARK VINA RESULT:      -8.1      3.877      7.202
REMARK  7 active torsions:
REMARK  status: ('A' for Active; 'I' for Inactive)
REMARK    1  A    between atoms: C1_2  and  O2_3 
REMARK    2  A    between atoms: C1_2  and  C2_4 
REMARK    3  A    between atoms: C2_4  and  C3_5 
REMARK    4  A    between atoms: C3_5  and  C4_6 
REMARK    5  A    between atoms: C4_6  and  C5_7 
REMARK    6  A    between atoms: C4_6  and  C15_20 
REMARK    7  A    between atoms: C6_8  and  C7_9 
ROOT
HETATM    1  C5  UNL     1      24.474   2.201  51.599  1.00  0.00     0.010 C 
HETATM    2  C6  UNL     1      25.018   2.977  50.510  1.00  0.00     0.018 C 
ENDROOT
BRANCH   1   3
HETATM    3  C4  UNL     1      24.519   1.150  52.389  1.00  0.00    -0.033 C 
BRANCH   3   4
HETATM    4  C3  UNL     1      25.865   0.735  52.905  1.00  0.00     0.051 C 
BRANCH   4   5
HETATM    5  C2  UNL     1      26.337   1.724  53.910  1.00  0.00     0.114 C 
BRANCH   5   6
HETATM    6  C1  UNL     1      27.719   2.159  53.490  1.00  0.00     0.139 C 
HETATM    7  O1  UNL     1      28.674   2.008  54.318  1.00  0.00    -0.650 OA
BRANCH   6   8
HETATM    8  O2  UNL     1      28.056   2.718  52.268  1.00  0.00    -0.776 OA
HETATM    9  H1  UNL     1      28.961   2.634  51.859  1.00  0.00     0.167 HD
ENDBRANCH   6   8
ENDBRANCH   5   6
ENDBRANCH   4   5
ENDBRANCH   3   4
BRANCH   3  10
HETATM   10  C15 UNL     1      23.378   0.313  52.863  1.00  0.00     0.035 C 
HETATM   11  N2  UNL     1      23.511  -0.385  53.903  1.00  0.00    -0.294 NA
HETATM   12  C16 UNL     1      22.508  -1.233  54.474  1.00  0.00     0.149 C 
HETATM   13  C17 UNL     1      21.270  -0.350  54.730  1.00  0.00     0.022 C 
HETATM   14  C18 UNL     1      20.966   0.397  53.443  1.00  0.00     0.008 C 
HETATM   15  C19 UNL     1      22.021   0.070  52.396  1.00  0.00     0.059 C 
ENDBRANCH   3  10
ENDBRANCH   1   3
BRANCH   2  16
HETATM   16  C7  UNL     1      24.678   4.102  49.920  1.00  0.00     0.044 A 
HETATM   17  C8  UNL     1      23.327   4.638  49.839  1.00  0.00     0.257 A 
HETATM   18  O3  UNL     1      22.229   4.230  50.258  1.00  0.00    -0.267 OA
HETATM   19  N1  UNL     1      23.457   5.850  49.120  1.00  0.00    -0.322 N 
HETATM   20  C9  UNL     1      24.830   5.989  48.810  1.00  0.00     0.046 A 
HETATM   21  H8  UNL     1      22.700   6.517  48.865  1.00  0.00     0.169 HD
HETATM   22  C10 UNL     1      25.483   6.999  48.120  1.00  0.00     0.032 A 
HETATM   23  C14 UNL     1      25.632   4.966  49.263  1.00  0.00     0.008 A 
HETATM   24  C11 UNL     1      26.841   6.974  47.905  1.00  0.00     0.021 A 
HETATM   25  C12 UNL     1      27.628   5.923  48.376  1.00  0.00     0.011 A 
HETATM   26 BR1  UNL     1      29.505   5.764  48.152  1.00  0.00    -0.051 Br
HETATM   27  C13 UNL     1      26.993   4.921  49.060  1.00  0.00     0.033 A 
ENDBRANCH   2  16
TORSDOF 7
ENDMDL
MODEL 7
REMARK VINA RESULT:      -8.0      3.707      5.616
REMARK  7 active torsions:
REMARK  status: ('A' for Active; 'I' for Inactive)
REMARK    1  A    between atoms: C1_2  and  O2_3 
REMARK    2  A    between atoms: C1_2  and  C2_4 
REMARK    3  A    between atoms: C2_4  and  C3_5 
REMARK    4  A    between atoms: C3_5  and  C4_6 
REMARK    5  A    between atoms: C4_6  and  C5_7 
REMARK    6  A    between atoms: C4_6  and  C15_20 
REMARK    7  A    between atoms: C6_8  and  C7_9 
ROOT
HETATM    1  C5  UNL     1      23.881   1.650  52.788  1.00  0.00     0.010 C 
HETATM    2  C6  UNL     1      23.601   3.065  52.713  1.00  0.00     0.018 C 
ENDROOT
BRANCH   1   3
HETATM    3  C4  UNL     1      24.662   0.657  53.154  1.00  0.00    -0.033 C 
BRANCH   3   4
HETATM    4  C3  UNL     1      24.006  -0.538  53.782  1.00  0.00     0.051 C 
BRANCH   4   5
HETATM    5  C2  UNL     1      22.596  -0.629  53.320  1.00  0.00     0.114 C 
BRANCH   5   6
HETATM    6  C1  UNL     1      21.731  -0.720  54.552  1.00  0.00     0.139 C 
HETATM    7  O1  UNL     1      21.920  -1.694  55.347  1.00  0.00    -0.650 OA
BRANCH   6   8
HETATM    8  O2  UNL     1      20.731   0.171  54.907  1.00  0.00    -0.776 OA
HETATM    9  H1  UNL     1      20.684   1.106  54.566  1.00  0.00     0.167 HD
ENDBRANCH   6   8
ENDBRANCH   5   6
ENDBRANCH   4   5
ENDBRANCH   3   4
BRANCH   3  10
HETATM   10  C15 UNL     1      26.143   0.556  53.005  1.00  0.00     0.035 C 
HETATM   11  N2  UNL     1      26.884   1.394  53.584  1.00  0.00    -0.294 NA
HETATM   12  C16 UNL     1      28.315   1.422  53.533  1.00  0.00     0.149 C 
HETATM   13  C17 UNL     1      28.806   0.042  54.014  1.00  0.00     0.022 C 
HETATM   14  C18 UNL     1      28.054  -1.013  53.221  1.00  0.00     0.008 C 
HETATM   15  C19 UNL     1      27.044  -0.344  52.300  1.00  0.00     0.059 C 
ENDBRANCH   3  10
ENDBRANCH   1   3
BRANCH   2  16
HETATM   16  C7  UNL     1      22.615   3.784  52.221  1.00  0.00     0.044 A 
HETATM   17  C8  UNL     1      21.205   3.423  52.261  1.00  0.00     0.257 A 
HETATM   18  O3  UNL     1      20.598   2.441  52.722  1.00  0.00    -0.267 OA
HETATM   19  N1  UNL     1      20.537   4.491  51.617  1.00  0.00    -0.322 N 
HETATM   20  C9  UNL     1      21.535   5.416  51.230  1.00  0.00     0.046 A 
HETATM   21  H8  UNL     1      19.514   4.589  51.455  1.00  0.00     0.169 HD
HETATM   22  C10 UNL     1      21.408   6.628  50.568  1.00  0.00     0.032 A 
HETATM   23  C14 UNL     1      22.820   5.054  51.563  1.00  0.00     0.008 A 
HETATM   24  C11 UNL     1      22.498   7.411  50.266  1.00  0.00     0.021 A 
HETATM   25  C12 UNL     1      23.790   7.016  50.616  1.00  0.00     0.011 A 
HETATM   26 BR1  UNL     1      25.375   7.995  50.264  1.00  0.00    -0.051 Br
HETATM   27  C13 UNL     1      23.925   5.822  51.272  1.00  0.00     0.033 A 
ENDBRANCH   2  16
TORSDOF 7
ENDMDL
MODEL 8
REMARK VINA RESULT:      -8.0      3.384      5.770
REMARK  7 active torsions:
REMARK  status: ('A' for Active; 'I' for Inactive)
REMARK    1  A    between atoms: C1_2  and  O2_3 
REMARK    2  A    between atoms: C1_2  and  C2_4 
REMARK    3  A    between atoms: C2_4  and  C3_5 
REMARK    4  A    between atoms: C3_5  and  C4_6 
REMARK    5  A    between atoms: C4_6  and  C5_7 
REMARK    6  A    between atoms: C4_6  and  C15_20 
REMARK    7  A    between atoms: C6_8  and  C7_9 
ROOT
HETATM    1  C5  UNL     1      24.406   1.447  52.428  1.00  0.00     0.010 C 
HETATM    2  C6  UNL     1      23.845   1.683  51.119  1.00  0.00     0.018 C 
ENDROOT
BRANCH   1   3
HETATM    3  C4  UNL     1      25.064   0.677  53.269  1.00  0.00    -0.033 C 
BRANCH   3   4
HETATM    4  C3  UNL     1      24.388  -0.583  53.719  1.00  0.00     0.051 C 
BRANCH   4   5
HETATM    5  C2  UNL     1      22.941  -0.318  53.942  1.00  0.00     0.114 C 
BRANCH   5   6
HETATM    6  C1  UNL     1      22.457  -1.323  54.957  1.00  0.00     0.139 C 
HETATM    7  O1  UNL     1      21.263  -1.750  54.856  1.00  0.00    -0.650 OA
BRANCH   6   8
HETATM    8  O2  UNL     1      23.201  -1.836  56.008  1.00  0.00    -0.776 OA
HETATM    9  H1  UNL     1      22.803  -2.368  56.750  1.00  0.00     0.167 HD
ENDBRANCH   6   8
ENDBRANCH   5   6
ENDBRANCH   4   5
ENDBRANCH   3   4
BRANCH   3  10
HETATM   10  C15 UNL     1      26.431   0.892  53.827  1.00  0.00     0.035 C 
HETATM   11  N2  UNL     1      27.062  -0.082  54.316  1.00  0.00    -0.294 NA
HETATM   12  C16 UNL     1      28.375  -0.027  54.884  1.00  0.00     0.149 C 
HETATM   13  C17 UNL     1      29.305   0.561  53.804  1.00  0.00     0.022 C 
HETATM   14  C18 UNL     1      28.662   1.839  53.294  1.00  0.00     0.008 C 
HETATM   15  C19 UNL     1      27.313   2.042  53.966  1.00  0.00     0.059 C 
ENDBRANCH   3  10
ENDBRANCH   1   3
BRANCH   2  16
HETATM   16  C7  UNL     1      23.180   2.675  50.567  1.00  0.00     0.044 A 
HETATM   17  C8  UNL     1      21.732   2.814  50.548  1.00  0.00     0.257 A 
HETATM   18  O3  UNL     1      20.810   2.111  50.999  1.00  0.00    -0.267 OA
HETATM   19  N1  UNL     1      21.490   4.022  49.851  1.00  0.00    -0.322 N 
HETATM   20  C9  UNL     1      22.756   4.541  49.493  1.00  0.00     0.046 A 
HETATM   21  H8  UNL     1      20.567   4.453  49.638  1.00  0.00     0.169 HD
HETATM   22  C10 UNL     1      23.073   5.700  48.801  1.00  0.00     0.032 A 
HETATM   23  C14 UNL     1      23.829   3.778  49.894  1.00  0.00     0.008 A 
HETATM   24  C11 UNL     1      24.374   6.057  48.535  1.00  0.00     0.021 A 
HETATM   25  C12 UNL     1      25.441   5.262  48.954  1.00  0.00     0.011 A 
HETATM   26 BR1  UNL     1      27.276   5.635  48.657  1.00  0.00    -0.051 Br
HETATM   27  C13 UNL     1      25.139   4.116  49.640  1.00  0.00     0.033 A 
ENDBRANCH   2  16
TORSDOF 7
ENDMDL
MODEL 9
REMARK VINA RESULT:      -7.8      4.849      8.567
REMARK  7 active torsions:
REMARK  status: ('A' for Active; 'I' for Inactive)
REMARK    1  A    between atoms: C1_2  and  O2_3 
REMARK    2  A    between atoms: C1_2  and  C2_4 
REMARK    3  A    between atoms: C2_4  and  C3_5 
REMARK    4  A    between atoms: C3_5  and  C4_6 
REMARK    5  A    between atoms: C4_6  and  C5_7 
REMARK    6  A    between atoms: C4_6  and  C15_20 
REMARK    7  A    between atoms: C6_8  and  C7_9 
ROOT
HETATM    1  C5  UNL     1      26.251   3.736  50.379  1.00  0.00     0.010 C 
HETATM    2  C6  UNL     1      26.939   4.202  49.199  1.00  0.00     0.018 C 
ENDROOT
BRANCH   1   3
HETATM    3  C4  UNL     1      25.866   2.754  51.166  1.00  0.00    -0.033 C 
BRANCH   3   4
HETATM    4  C3  UNL     1      24.393   2.596  51.398  1.00  0.00     0.051 C 
BRANCH   4   5
HETATM    5  C2  UNL     1      23.683   3.812  50.920  1.00  0.00     0.114 C 
BRANCH   5   6
HETATM    6  C1  UNL     1      23.162   4.530  52.139  1.00  0.00     0.139 C 
HETATM    7  O1  UNL     1      21.964   4.303  52.505  1.00  0.00    -0.650 OA
BRANCH   6   8
HETATM    8  O2  UNL     1      23.874   5.431  52.915  1.00  0.00    -0.776 OA
HETATM    9  H1  UNL     1      24.803   5.262  53.235  1.00  0.00     0.167 HD
ENDBRANCH   6   8
ENDBRANCH   5   6
ENDBRANCH   4   5
ENDBRANCH   3   4
BRANCH   3  10
HETATM   10  C15 UNL     1      26.723   1.744  51.854  1.00  0.00     0.035 C 
HETATM   11  N2  UNL     1      27.694   2.130  52.557  1.00  0.00    -0.294 NA
HETATM   12  C16 UNL     1      28.599   1.281  53.272  1.00  0.00     0.149 C 
HETATM   13  C17 UNL     1      27.742   0.402  54.206  1.00  0.00     0.022 C 
HETATM   14  C18 UNL     1      26.643  -0.224  53.364  1.00  0.00     0.008 C 
HETATM   15  C19 UNL     1      26.731   0.291  51.935  1.00  0.00     0.059 C 
ENDBRANCH   3  10
ENDBRANCH   1   3
BRANCH   2  16
HETATM   16  C7  UNL     1      27.148   5.384  48.661  1.00  0.00     0.044 A 
HETATM   17  C8  UNL     1      26.136   6.412  48.460  1.00  0.00     0.257 A 
HETATM   18  O3  UNL     1      24.920   6.460  48.714  1.00  0.00    -0.267 OA
HETATM   19  N1  UNL     1      26.826   7.490  47.857  1.00  0.00    -0.322 N 
HETATM   20  C9  UNL     1      28.174   7.083  47.724  1.00  0.00     0.046 A 
HETATM   21  H8  UNL     1      26.430   8.408  47.565  1.00  0.00     0.169 HD
HETATM   22  C10 UNL     1      29.257   7.769  47.196  1.00  0.00     0.032 A 
HETATM   23  C14 UNL     1      28.445   5.816  48.190  1.00  0.00     0.008 A 
HETATM   24  C11 UNL     1      30.515   7.215  47.143  1.00  0.00     0.021 A 
HETATM   25  C12 UNL     1      30.758   5.928  47.623  1.00  0.00     0.011 A 
HETATM   26 BR1  UNL     1      32.437   5.046  47.612  1.00  0.00    -0.051 Br
HETATM   27  C13 UNL     1      29.695   5.242  48.147  1.00  0.00     0.033 A 
ENDBRANCH   2  16
TORSDOF 7
ENDMDL
