MODEL 1
REMARK VINA RESULT:      -9.0      0.000      0.000
REMARK  7 active torsions:
REMARK  status: ('A' for Active; 'I' for Inactive)
REMARK    1  A    between atoms: C2_2  and  N1_3 
REMARK    2  A    between atoms: C2_2  and  C13_16 
REMARK    3  A    between atoms: N1_3  and  C3_4 
REMARK    4  A    between atoms: C4_5  and  C5_6 
REMARK    5  A    between atoms: C8_9  and  N2_10 
REMARK    6  A    between atoms: C14_17  and  O1_18 
REMARK    7  A    between atoms: O1_18  and  C15_19 
ROOT
HETATM    1  C1  UNL     1      24.422   3.026  53.402  1.00  0.00     0.039 C 
HETATM    2  C2  UNL     1      25.341   2.487  52.347  1.00  0.00     0.132 C 
ENDROOT
BRANCH   2   3
HETATM    3  N1  UNL     1      25.919   3.418  51.451  1.00  0.00    -0.408 N 
HETATM    4  H5  UNL     1      25.726   4.412  51.598  1.00  0.00     0.154 HD
BRANCH   3   5
HETATM    5  C3  UNL     1      26.377   3.002  50.182  1.00  0.00     0.142 C 
HETATM    6  C4  UNL     1      26.976   3.933  49.256  1.00  0.00     0.002 C 
BRANCH   6   7
HETATM    7  C5  UNL     1      27.440   5.051  48.784  1.00  0.00    -0.031 A 
HETATM    8  C6  UNL     1      28.767   5.336  48.178  1.00  0.00     0.070 A 
HETATM    9  C7  UNL     1      28.122   6.666  48.054  1.00  0.00     0.008 A 
HETATM   10  C8  UNL     1      26.962   6.399  48.592  1.00  0.00     0.033 A 
BRANCH  10  11
HETATM   11  N2  UNL     1      25.822   7.206  48.818  1.00  0.00    -0.377 N 
HETATM   12  C9  UNL     1      25.666   8.012  50.011  1.00  0.00     0.153 C 
HETATM   13  C10 UNL     1      24.155   8.093  50.257  1.00  0.00     0.289 C 
HETATM   14  N3  UNL     1      23.517   6.832  49.929  1.00  0.00     0.086 N 
HETATM   15  C11 UNL     1      23.553   6.557  48.511  1.00  0.00     0.289 C 
HETATM   16  H16 UNL     1      23.917   6.043  50.492  1.00  0.00     0.316 HD
HETATM   17  C12 UNL     1      24.721   7.286  47.866  1.00  0.00     0.153 C 
ENDBRANCH  10  11
ENDBRANCH   6   7
ENDBRANCH   3   5
ENDBRANCH   2   3
BRANCH   2  18
HETATM   18  C13 UNL     1      26.461   1.816  53.123  1.00  0.00     0.104 C 
HETATM   19  C14 UNL     1      26.371   0.490  53.273  1.00  0.00     0.110 C 
HETATM   20  C19 UNL     1      27.286  -0.437  53.966  1.00  0.00     0.057 C 
HETATM   21  C20 UNL     1      28.388  -0.036  54.580  1.00  0.00     0.087 C 
HETATM   22  N6  UNL     1      28.990   1.233  54.762  1.00  0.00    -0.378 N 
HETATM   23  C21 UNL     1      28.827   2.390  53.908  1.00  0.00     0.297 C 
HETATM   24  H26 UNL     1      29.593   1.230  55.629  1.00  0.00     0.161 HD
HETATM   25  O2  UNL     1      27.463   2.644  53.597  1.00  0.00    -0.331 OA
BRANCH  19  26
HETATM   26  O1  UNL     1      25.278  -0.158  52.716  1.00  0.00    -0.289 OA
BRANCH  26  27
HETATM   27  C15 UNL     1      24.254  -0.559  53.560  1.00  0.00     0.172 A 
HETATM   28  C16 UNL     1      22.957  -0.491  53.049  1.00  0.00     0.077 A 
HETATM   29  C17 UNL     1      21.946  -0.892  53.895  1.00  0.00     0.122 A 
HETATM   30  N4  UNL     1      22.153  -1.329  55.140  1.00  0.00    -0.254 NA
HETATM   31  C18 UNL     1      23.425  -1.383  55.607  1.00  0.00     0.235 A 
HETATM   32  N5  UNL     1      24.473  -1.003  54.828  1.00  0.00    -0.218 NA
ENDBRANCH  26  27
ENDBRANCH  19  26
ENDBRANCH   2  18
TORSDOF 7
ENDMDL
MODEL 2
REMARK VINA RESULT:      -8.6      1.892      4.250
REMARK  7 active torsions:
REMARK  status: ('A' for Active; 'I' for Inactive)
REMARK    1  A    between atoms: C2_2  and  N1_3 
REMARK    2  A    between atoms: C2_2  and  C13_16 
REMARK    3  A    between atoms: N1_3  and  C3_4 
REMARK    4  A    between atoms: C4_5  and  C5_6 
REMARK    5  A    between atoms: C8_9  and  N2_10 
REMARK    6  A    between atoms: C14_17  and  O1_18 
REMARK    7  A    between atoms: O1_18  and  C15_19 
ROOT
HETATM    1  C1  UNL     1      22.109   1.430  50.424  1.00  0.00     0.039 C 
HETATM    2  C2  UNL     1      23.191   1.518  51.459  1.00  0.00     0.132 C 
ENDROOT
BRANCH   2   3
HETATM    3  N1  UNL     1      23.392   2.773  52.082  1.00  0.00    -0.408 N 
HETATM    4  H5  UNL     1      23.287   2.828  53.099  1.00  0.00     0.154 HD
BRANCH   3   5
HETATM    5  C3  UNL     1      23.317   3.967  51.333  1.00  0.00     0.142 C 
HETATM    6  C4  UNL     1      24.401   4.390  50.481  1.00  0.00     0.002 C 
BRANCH   6   7
HETATM    7  C5  UNL     1      25.547   4.369  49.867  1.00  0.00    -0.031 A 
HETATM    8  C6  UNL     1      26.411   3.208  49.532  1.00  0.00     0.070 A 
HETATM    9  C7  UNL     1      27.202   4.313  48.938  1.00  0.00     0.008 A 
HETATM   10  C8  UNL     1      26.431   5.323  49.243  1.00  0.00     0.033 A 
BRANCH  10  11
HETATM   11  N2  UNL     1      26.556   6.710  48.993  1.00  0.00    -0.377 N 
HETATM   12  C9  UNL     1      27.834   7.339  48.729  1.00  0.00     0.153 C 
HETATM   13  C10 UNL     1      27.701   8.774  49.251  1.00  0.00     0.289 C 
HETATM   14  N3  UNL     1      26.916   8.801  50.471  1.00  0.00     0.086 N 
HETATM   15  C11 UNL     1      25.530   8.463  50.235  1.00  0.00     0.289 C 
HETATM   16  H16 UNL     1      27.344   8.201  51.216  1.00  0.00     0.316 HD
HETATM   17  C12 UNL     1      25.408   7.608  48.983  1.00  0.00     0.153 C 
ENDBRANCH  10  11
ENDBRANCH   6   7
ENDBRANCH   3   5
ENDBRANCH   2   3
BRANCH   2  18
HETATM   18  C13 UNL     1      22.780   0.519  52.526  1.00  0.00     0.104 C 
HETATM   19  C14 UNL     1      23.707   0.207  53.439  1.00  0.00     0.110 C 
HETATM   20  C19 UNL     1      23.617  -0.719  54.585  1.00  0.00     0.057 C 
HETATM   21  C20 UNL     1      22.526  -1.414  54.865  1.00  0.00     0.087 C 
HETATM   22  N6  UNL     1      21.251  -1.504  54.256  1.00  0.00    -0.378 N 
HETATM   23  C21 UNL     1      20.615  -0.490  53.442  1.00  0.00     0.297 C 
HETATM   24  H26 UNL     1      20.806  -2.436  54.478  1.00  0.00     0.161 HD
HETATM   25  O2  UNL     1      21.488   0.030  52.448  1.00  0.00    -0.331 OA
BRANCH  19  26
HETATM   26  O1  UNL     1      24.951   0.812  53.340  1.00  0.00    -0.289 OA
BRANCH  26  27
HETATM   27  C15 UNL     1      26.077   0.004  53.368  1.00  0.00     0.172 A 
HETATM   28  C16 UNL     1      27.147   0.447  54.146  1.00  0.00     0.077 A 
HETATM   29  C17 UNL     1      28.263  -0.363  54.169  1.00  0.00     0.122 A 
HETATM   30  N4  UNL     1      28.354  -1.514  53.498  1.00  0.00    -0.254 NA
HETATM   31  C18 UNL     1      27.296  -1.916  52.750  1.00  0.00     0.235 A 
HETATM   32  N5  UNL     1      26.162  -1.168  52.681  1.00  0.00    -0.218 NA
ENDBRANCH  26  27
ENDBRANCH  19  26
ENDBRANCH   2  18
TORSDOF 7
ENDMDL
MODEL 3
REMARK VINA RESULT:      -8.5      2.271      4.426
REMARK  7 active torsions:
REMARK  status: ('A' for Active; 'I' for Inactive)
REMARK    1  A    between atoms: C2_2  and  N1_3 
REMARK    2  A    between atoms: C2_2  and  C13_16 
REMARK    3  A    between atoms: N1_3  and  C3_4 
REMARK    4  A    between atoms: C4_5  and  C5_6 
REMARK    5  A    between atoms: C8_9  and  N2_10 
REMARK    6  A    between atoms: C14_17  and  O1_18 
REMARK    7  A    between atoms: O1_18  and  C15_19 
ROOT
HETATM    1  C1  UNL     1      23.780   2.984  49.177  1.00  0.00     0.039 C 
HETATM    2  C2  UNL     1      24.497   2.899  50.492  1.00  0.00     0.132 C 
ENDROOT
BRANCH   2   3
HETATM    3  N1  UNL     1      24.567   4.079  51.271  1.00  0.00    -0.408 N 
HETATM    4  H5  UNL     1      24.384   4.005  52.275  1.00  0.00     0.154 HD
BRANCH   3   5
HETATM    5  C3  UNL     1      24.465   5.348  50.662  1.00  0.00     0.142 C 
HETATM    6  C4  UNL     1      25.520   5.869  49.826  1.00  0.00     0.002 C 
BRANCH   6   7
HETATM    7  C5  UNL     1      26.645   5.920  49.176  1.00  0.00    -0.031 A 
HETATM    8  C6  UNL     1      27.500   4.807  48.689  1.00  0.00     0.070 A 
HETATM    9  C7  UNL     1      28.268   5.975  48.192  1.00  0.00     0.008 A 
HETATM   10  C8  UNL     1      27.505   6.941  48.630  1.00  0.00     0.033 A 
BRANCH  10  11
HETATM   11  N2  UNL     1      27.619   8.348  48.528  1.00  0.00    -0.377 N 
HETATM   12  C9  UNL     1      27.286   9.068  47.316  1.00  0.00     0.153 C 
HETATM   13  C10 UNL     1      28.192  10.304  47.311  1.00  0.00     0.289 C 
HETATM   14  N3  UNL     1      29.505   9.976  47.834  1.00  0.00     0.086 N 
HETATM   15  C11 UNL     1      29.467   9.667  49.246  1.00  0.00     0.289 C 
HETATM   16  H16 UNL     1      29.959   9.212  47.277  1.00  0.00     0.316 HD
HETATM   17  C12 UNL     1      28.081   9.176  49.635  1.00  0.00     0.153 C 
ENDBRANCH  10  11
ENDBRANCH   6   7
ENDBRANCH   3   5
ENDBRANCH   2   3
BRANCH   2  18
HETATM   18  C13 UNL     1      23.725   1.855  51.280  1.00  0.00     0.104 C 
HETATM   19  C14 UNL     1      24.313   1.390  52.388  1.00  0.00     0.110 C 
HETATM   20  C19 UNL     1      23.827   0.385  53.354  1.00  0.00     0.057 C 
HETATM   21  C20 UNL     1      22.664  -0.233  53.225  1.00  0.00     0.087 C 
HETATM   22  N6  UNL     1      21.629  -0.161  52.262  1.00  0.00    -0.378 N 
HETATM   23  C21 UNL     1      21.329   0.968  51.407  1.00  0.00     0.297 C 
HETATM   24  H26 UNL     1      21.084  -1.066  52.244  1.00  0.00     0.161 HD
HETATM   25  O2  UNL     1      22.490   1.489  50.774  1.00  0.00    -0.331 OA
BRANCH  19  26
HETATM   26  O1  UNL     1      25.563   1.891  52.724  1.00  0.00    -0.289 OA
BRANCH  26  27
HETATM   27  C15 UNL     1      26.507   1.011  53.230  1.00  0.00     0.172 A 
HETATM   28  C16 UNL     1      26.896  -0.038  52.395  1.00  0.00     0.077 A 
HETATM   29  C17 UNL     1      27.837  -0.908  52.906  1.00  0.00     0.122 A 
HETATM   30  N4  UNL     1      28.369  -0.788  54.124  1.00  0.00    -0.254 NA
HETATM   31  C18 UNL     1      27.969   0.242  54.911  1.00  0.00     0.235 A 
HETATM   32  N5  UNL     1      27.045   1.139  54.473  1.00  0.00    -0.218 NA
ENDBRANCH  26  27
ENDBRANCH  19  26
ENDBRANCH   2  18
TORSDOF 7
ENDMDL
MODEL 4
REMARK VINA RESULT:      -8.3      2.457      4.188
REMARK  7 active torsions:
REMARK  status: ('A' for Active; 'I' for Inactive)
REMARK    1  A    between atoms: C2_2  and  N1_3 
REMARK    2  A    between atoms: C2_2  and  C13_16 
REMARK    3  A    between atoms: N1_3  and  C3_4 
REMARK    4  A    between atoms: C4_5  and  C5_6 
REMARK    5  A    between atoms: C8_9  and  N2_10 
REMARK    6  A    between atoms: C14_17  and  O1_18 
REMARK    7  A    between atoms: O1_18  and  C15_19 
ROOT
HETATM    1  C1  UNL     1      22.837   2.940  48.247  1.00  0.00     0.039 C 
HETATM    2  C2  UNL     1      23.504   2.570  49.538  1.00  0.00     0.132 C 
ENDROOT
BRANCH   2   3
HETATM    3  N1  UNL     1      24.543   3.414  49.997  1.00  0.00    -0.408 N 
HETATM    4  H5  UNL     1      24.313   4.386  50.218  1.00  0.00     0.154 HD
BRANCH   3   5
HETATM    5  C3  UNL     1      25.895   3.080  49.763  1.00  0.00     0.142 C 
HETATM    6  C4  UNL     1      26.828   4.046  49.237  1.00  0.00     0.002 C 
BRANCH   6   7
HETATM    7  C5  UNL     1      27.290   5.179  48.797  1.00  0.00    -0.031 A 
HETATM    8  C6  UNL     1      28.623   5.491  48.221  1.00  0.00     0.070 A 
HETATM    9  C7  UNL     1      27.967   6.817  48.115  1.00  0.00     0.008 A 
HETATM   10  C8  UNL     1      26.801   6.526  48.626  1.00  0.00     0.033 A 
BRANCH  10  11
HETATM   11  N2  UNL     1      25.649   7.317  48.849  1.00  0.00    -0.377 N 
HETATM   12  C9  UNL     1      25.466   8.099  50.054  1.00  0.00     0.153 C 
HETATM   13  C10 UNL     1      23.950   8.160  50.278  1.00  0.00     0.289 C 
HETATM   14  N3  UNL     1      23.331   6.898  49.917  1.00  0.00     0.086 N 
HETATM   15  C11 UNL     1      23.392   6.649  48.495  1.00  0.00     0.289 C 
HETATM   16  H16 UNL     1      23.731   6.103  50.472  1.00  0.00     0.316 HD
HETATM   17  C12 UNL     1      24.562   7.402  47.882  1.00  0.00     0.153 C 
ENDBRANCH  10  11
ENDBRANCH   6   7
ENDBRANCH   3   5
ENDBRANCH   2   3
BRANCH   2  18
HETATM   18  C13 UNL     1      22.386   2.594  50.565  1.00  0.00     0.104 C 
HETATM   19  C14 UNL     1      22.470   1.702  51.559  1.00  0.00     0.110 C 
HETATM   20  C19 UNL     1      21.553   1.476  52.693  1.00  0.00     0.057 C 
HETATM   21  C20 UNL     1      20.445   2.177  52.874  1.00  0.00     0.087 C 
HETATM   22  N6  UNL     1      19.837   3.232  52.153  1.00  0.00    -0.378 N 
HETATM   23  C21 UNL     1      20.508   4.176  51.284  1.00  0.00     0.297 C 
HETATM   24  H26 UNL     1      18.797   3.247  52.335  1.00  0.00     0.161 HD
HETATM   25  O2  UNL     1      21.390   3.536  50.371  1.00  0.00    -0.331 OA
BRANCH  19  26
HETATM   26  O1  UNL     1      23.556   0.839  51.572  1.00  0.00    -0.289 OA
BRANCH  26  27
HETATM   27  C15 UNL     1      24.496   0.983  52.580  1.00  0.00     0.172 A 
HETATM   28  C16 UNL     1      24.860  -0.176  53.267  1.00  0.00     0.077 A 
HETATM   29  C17 UNL     1      25.796  -0.023  54.268  1.00  0.00     0.122 A 
HETATM   30  N4  UNL     1      26.347   1.149  54.592  1.00  0.00    -0.254 NA
HETATM   31  C18 UNL     1      25.971   2.257  53.906  1.00  0.00     0.235 A 
HETATM   32  N5  UNL     1      25.053   2.182  52.905  1.00  0.00    -0.218 NA
ENDBRANCH  26  27
ENDBRANCH  19  26
ENDBRANCH   2  18
TORSDOF 7
ENDMDL
MODEL 5
REMARK VINA RESULT:      -8.2      3.047      7.276
REMARK  7 active torsions:
REMARK  status: ('A' for Active; 'I' for Inactive)
REMARK    1  A    between atoms: C2_2  and  N1_3 
REMARK    2  A    between atoms: C2_2  and  C13_16 
REMARK    3  A    between atoms: N1_3  and  C3_4 
REMARK    4  A    between atoms: C4_5  and  C5_6 
REMARK    5  A    between atoms: C8_9  and  N2_10 
REMARK    6  A    between atoms: C14_17  and  O1_18 
REMARK    7  A    between atoms: O1_18  and  C15_19 
ROOT
HETATM    1  C1  UNL     1      26.364   3.332  49.548  1.00  0.00     0.039 C 
HETATM    2  C2  UNL     1      25.032   3.599  50.181  1.00  0.00     0.132 C 
ENDROOT
BRANCH   2   3
HETATM    3  N1  UNL     1      25.023   4.334  51.391  1.00  0.00    -0.408 N 
HETATM    4  H5  UNL     1      25.909   4.716  51.729  1.00  0.00     0.154 HD
BRANCH   3   5
HETATM    5  C3  UNL     1      23.958   4.194  52.308  1.00  0.00     0.142 C 
HETATM    6  C4  UNL     1      23.556   2.900  52.802  1.00  0.00     0.002 C 
BRANCH   6   7
HETATM    7  C5  UNL     1      23.553   1.612  52.982  1.00  0.00    -0.031 A 
HETATM    8  C6  UNL     1      22.407   0.667  52.989  1.00  0.00     0.070 A 
HETATM    9  C7  UNL     1      23.534  -0.274  53.203  1.00  0.00     0.008 A 
HETATM   10  C8  UNL     1      24.530   0.572  53.197  1.00  0.00     0.033 A 
BRANCH  10  11
HETATM   11  N2  UNL     1      25.923   0.383  53.352  1.00  0.00    -0.377 N 
HETATM   12  C9  UNL     1      26.502  -0.174  54.557  1.00  0.00     0.153 C 
HETATM   13  C10 UNL     1      27.897   0.452  54.670  1.00  0.00     0.289 C 
HETATM   14  N3  UNL     1      27.870   1.837  54.237  1.00  0.00     0.086 N 
HETATM   15  C11 UNL     1      27.626   1.959  52.818  1.00  0.00     0.289 C 
HETATM   16  H16 UNL     1      27.191   2.402  54.802  1.00  0.00     0.316 HD
HETATM   17  C12 UNL     1      26.879   0.736  52.310  1.00  0.00     0.153 C 
ENDBRANCH  10  11
ENDBRANCH   6   7
ENDBRANCH   3   5
ENDBRANCH   2   3
BRANCH   2  18
HETATM   18  C13 UNL     1      24.266   4.394  49.138  1.00  0.00     0.104 C 
HETATM   19  C14 UNL     1      23.183   3.807  48.617  1.00  0.00     0.110 C 
HETATM   20  C19 UNL     1      22.243   4.312  47.598  1.00  0.00     0.057 C 
HETATM   21  C20 UNL     1      22.374   5.497  47.023  1.00  0.00     0.087 C 
HETATM   22  N6  UNL     1      23.318   6.543  47.162  1.00  0.00    -0.378 N 
HETATM   23  C21 UNL     1      24.130   6.817  48.328  1.00  0.00     0.297 C 
HETATM   24  H26 UNL     1      23.357   7.119  46.277  1.00  0.00     0.161 HD
HETATM   25  O2  UNL     1      24.764   5.648  48.830  1.00  0.00    -0.331 OA
BRANCH  19  26
HETATM   26  O1  UNL     1      22.850   2.536  49.064  1.00  0.00    -0.289 OA
BRANCH  26  27
HETATM   27  C15 UNL     1      21.626   2.360  49.690  1.00  0.00     0.172 A 
HETATM   28  C16 UNL     1      21.009   1.120  49.522  1.00  0.00     0.077 A 
HETATM   29  C17 UNL     1      19.792   0.954  50.149  1.00  0.00     0.122 A 
HETATM   30  N4  UNL     1      19.203   1.902  50.882  1.00  0.00    -0.254 NA
HETATM   31  C18 UNL     1      19.828   3.097  51.025  1.00  0.00     0.235 A 
HETATM   32  N5  UNL     1      21.032   3.332  50.436  1.00  0.00    -0.218 NA
ENDBRANCH  26  27
ENDBRANCH  19  26
ENDBRANCH   2  18
TORSDOF 7
ENDMDL
MODEL 6
REMARK VINA RESULT:      -8.2      1.907      4.504
REMARK  7 active torsions:
REMARK  status: ('A' for Active; 'I' for Inactive)
REMARK    1  A    between atoms: C2_2  and  N1_3 
REMARK    2  A    between atoms: C2_2  and  C13_16 
REMARK    3  A    between atoms: N1_3  and  C3_4 
REMARK    4  A    between atoms: C4_5  and  C5_6 
REMARK    5  A    between atoms: C8_9  and  N2_10 
REMARK    6  A    between atoms: C14_17  and  O1_18 
REMARK    7  A    between atoms: O1_18  and  C15_19 
ROOT
HETATM    1  C1  UNL     1      23.752   3.472  52.875  1.00  0.00     0.039 C 
HETATM    2  C2  UNL     1      22.974   2.745  51.819  1.00  0.00     0.132 C 
ENDROOT
BRANCH   2   3
HETATM    3  N1  UNL     1      23.660   2.396  50.631  1.00  0.00    -0.408 N 
HETATM    4  H5  UNL     1      24.464   1.768  50.705  1.00  0.00     0.154 HD
BRANCH   3   5
HETATM    5  C3  UNL     1      23.532   3.189  49.470  1.00  0.00     0.142 C 
HETATM    6  C4  UNL     1      24.047   4.536  49.417  1.00  0.00     0.002 C 
BRANCH   6   7
HETATM    7  C5  UNL     1      24.645   5.626  49.796  1.00  0.00    -0.031 A 
HETATM    8  C6  UNL     1      24.232   6.616  50.824  1.00  0.00     0.070 A 
HETATM    9  C7  UNL     1      25.523   7.201  50.390  1.00  0.00     0.008 A 
HETATM   10  C8  UNL     1      25.870   6.323  49.487  1.00  0.00     0.033 A 
BRANCH  10  11
HETATM   11  N2  UNL     1      27.005   6.237  48.646  1.00  0.00    -0.377 N 
HETATM   12  C9  UNL     1      27.825   5.047  48.568  1.00  0.00     0.153 C 
HETATM   13  C10 UNL     1      29.236   5.542  48.230  1.00  0.00     0.289 C 
HETATM   14  N3  UNL     1      29.516   6.790  48.917  1.00  0.00     0.086 N 
HETATM   15  C11 UNL     1      28.712   7.880  48.414  1.00  0.00     0.289 C 
HETATM   16  H16 UNL     1      29.427   6.683  49.956  1.00  0.00     0.316 HD
HETATM   17  C12 UNL     1      27.431   7.342  47.796  1.00  0.00     0.153 C 
ENDBRANCH  10  11
ENDBRANCH   6   7
ENDBRANCH   3   5
ENDBRANCH   2   3
BRANCH   2  18
HETATM   18  C13 UNL     1      22.517   1.465  52.496  1.00  0.00     0.104 C 
HETATM   19  C14 UNL     1      23.434   0.501  52.632  1.00  0.00     0.110 C 
HETATM   20  C19 UNL     1      23.302  -0.838  53.236  1.00  0.00     0.057 C 
HETATM   21  C20 UNL     1      22.167  -1.288  53.749  1.00  0.00     0.087 C 
HETATM   22  N6  UNL     1      20.874  -0.728  53.879  1.00  0.00    -0.378 N 
HETATM   23  C21 UNL     1      20.550   0.682  53.932  1.00  0.00     0.297 C 
HETATM   24  H26 UNL     1      20.148  -1.495  53.936  1.00  0.00     0.161 HD
HETATM   25  O2  UNL     1      21.195   1.422  52.905  1.00  0.00    -0.331 OA
BRANCH  19  26
HETATM   26  O1  UNL     1      24.713   0.744  52.151  1.00  0.00    -0.289 OA
BRANCH  26  27
HETATM   27  C15 UNL     1      25.792   0.322  52.913  1.00  0.00     0.172 A 
HETATM   28  C16 UNL     1      26.672  -0.576  52.308  1.00  0.00     0.077 A 
HETATM   29  C17 UNL     1      27.742  -0.990  53.073  1.00  0.00     0.122 A 
HETATM   30  N4  UNL     1      27.959  -0.579  54.324  1.00  0.00    -0.254 NA
HETATM   31  C18 UNL     1      27.084   0.294  54.883  1.00  0.00     0.235 A 
HETATM   32  N5  UNL     1      26.005   0.746  54.188  1.00  0.00    -0.218 NA
ENDBRANCH  26  27
ENDBRANCH  19  26
ENDBRANCH   2  18
TORSDOF 7
ENDMDL
MODEL 7
REMARK VINA RESULT:      -7.9      2.693      8.639
REMARK  7 active torsions:
REMARK  status: ('A' for Active; 'I' for Inactive)
REMARK    1  A    between atoms: C2_2  and  N1_3 
REMARK    2  A    between atoms: C2_2  and  C13_16 
REMARK    3  A    between atoms: N1_3  and  C3_4 
REMARK    4  A    between atoms: C4_5  and  C5_6 
REMARK    5  A    between atoms: C8_9  and  N2_10 
REMARK    6  A    between atoms: C14_17  and  O1_18 
REMARK    7  A    between atoms: O1_18  and  C15_19 
ROOT
HETATM    1  C1  UNL     1      21.758   5.102  51.654  1.00  0.00     0.039 C 
HETATM    2  C2  UNL     1      23.100   5.220  50.996  1.00  0.00     0.132 C 
ENDROOT
BRANCH   2   3
HETATM    3  N1  UNL     1      23.911   4.061  50.961  1.00  0.00    -0.408 N 
HETATM    4  H5  UNL     1      24.927   4.183  50.981  1.00  0.00     0.154 HD
BRANCH   3   5
HETATM    5  C3  UNL     1      23.390   2.835  50.494  1.00  0.00     0.142 C 
HETATM    6  C4  UNL     1      23.415   1.646  51.311  1.00  0.00     0.002 C 
BRANCH   6   7
HETATM    7  C5  UNL     1      23.622   0.881  52.342  1.00  0.00    -0.031 A 
HETATM    8  C6  UNL     1      22.644   0.342  53.322  1.00  0.00     0.070 A 
HETATM    9  C7  UNL     1      23.898  -0.267  53.828  1.00  0.00     0.008 A 
HETATM   10  C8  UNL     1      24.744   0.219  52.959  1.00  0.00     0.033 A 
BRANCH  10  11
HETATM   11  N2  UNL     1      26.144   0.063  52.822  1.00  0.00    -0.377 N 
HETATM   12  C9  UNL     1      26.754  -1.206  52.483  1.00  0.00     0.153 C 
HETATM   13  C10 UNL     1      28.137  -1.186  53.143  1.00  0.00     0.289 C 
HETATM   14  N3  UNL     1      28.076  -0.531  54.436  1.00  0.00     0.086 N 
HETATM   15  C11 UNL     1      27.805   0.884  54.316  1.00  0.00     0.289 C 
HETATM   16  H16 UNL     1      27.395  -1.008  55.075  1.00  0.00     0.316 HD
HETATM   17  C12 UNL     1      27.075   1.168  53.013  1.00  0.00     0.153 C 
ENDBRANCH  10  11
ENDBRANCH   6   7
ENDBRANCH   3   5
ENDBRANCH   2   3
BRANCH   2  18
HETATM   18  C13 UNL     1      22.789   5.624  49.566  1.00  0.00     0.104 C 
HETATM   19  C14 UNL     1      23.712   6.364  48.941  1.00  0.00     0.110 C 
HETATM   20  C19 UNL     1      23.704   6.908  47.569  1.00  0.00     0.057 C 
HETATM   21  C20 UNL     1      22.700   6.722  46.727  1.00  0.00     0.087 C 
HETATM   22  N6  UNL     1      21.464   6.040  46.828  1.00  0.00    -0.378 N 
HETATM   23  C21 UNL     1      21.162   4.936  47.715  1.00  0.00     0.297 C 
HETATM   24  H26 UNL     1      20.763   6.451  46.152  1.00  0.00     0.161 HD
HETATM   25  O2  UNL     1      21.581   5.186  49.050  1.00  0.00    -0.331 OA
BRANCH  19  26
HETATM   26  O1  UNL     1      24.863   6.700  49.640  1.00  0.00    -0.289 OA
BRANCH  26  27
HETATM   27  C15 UNL     1      26.065   6.144  49.229  1.00  0.00     0.172 A 
HETATM   28  C16 UNL     1      27.036   7.029  48.760  1.00  0.00     0.077 A 
HETATM   29  C17 UNL     1      28.229   6.467  48.355  1.00  0.00     0.122 A 
HETATM   30  N4  UNL     1      28.479   5.157  48.392  1.00  0.00    -0.254 NA
HETATM   31  C18 UNL     1      27.513   4.323  48.852  1.00  0.00     0.235 A 
HETATM   32  N5  UNL     1      26.312   4.806  49.270  1.00  0.00    -0.218 NA
ENDBRANCH  26  27
ENDBRANCH  19  26
ENDBRANCH   2  18
TORSDOF 7
ENDMDL
MODEL 8
REMARK VINA RESULT:      -7.8      2.419      8.080
REMARK  7 active torsions:
REMARK  status: ('A' for Active; 'I' for Inactive)
REMARK    1  A    between atoms: C2_2  and  N1_3 
REMARK    2  A    between atoms: C2_2  and  C13_16 
REMARK    3  A    between atoms: N1_3  and  C3_4 
REMARK    4  A    between atoms: C4_5  and  C5_6 
REMARK    5  A    between atoms: C8_9  and  N2_10 
REMARK    6  A    between atoms: C14_17  and  O1_18 
REMARK    7  A    between atoms: O1_18  and  C15_19 
ROOT
HETATM    1  C1  UNL     1      24.151   3.433  49.275  1.00  0.00     0.039 C 
HETATM    2  C2  UNL     1      24.693   4.230  50.423  1.00  0.00     0.132 C 
ENDROOT
BRANCH   2   3
HETATM    3  N1  UNL     1      25.371   3.522  51.444  1.00  0.00    -0.408 N 
HETATM    4  H5  UNL     1      25.607   4.024  52.304  1.00  0.00     0.154 HD
BRANCH   3   5
HETATM    5  C3  UNL     1      26.067   2.329  51.149  1.00  0.00     0.142 C 
HETATM    6  C4  UNL     1      25.988   1.178  52.014  1.00  0.00     0.002 C 
BRANCH   6   7
HETATM    7  C5  UNL     1      25.628   0.429  53.015  1.00  0.00    -0.031 A 
HETATM    8  C6  UNL     1      26.465  -0.178  54.081  1.00  0.00     0.070 A 
HETATM    9  C7  UNL     1      25.118  -0.635  54.502  1.00  0.00     0.008 A 
HETATM   10  C8  UNL     1      24.398  -0.096  53.554  1.00  0.00     0.033 A 
BRANCH  10  11
HETATM   11  N2  UNL     1      23.005  -0.116  53.306  1.00  0.00    -0.377 N 
HETATM   12  C9  UNL     1      22.214   1.094  53.224  1.00  0.00     0.153 C 
HETATM   13  C10 UNL     1      20.812   0.701  53.702  1.00  0.00     0.289 C 
HETATM   14  N3  UNL     1      20.894  -0.252  54.793  1.00  0.00     0.086 N 
HETATM   15  C11 UNL     1      21.407  -1.532  54.360  1.00  0.00     0.289 C 
HETATM   16  H16 UNL     1      21.437   0.136  55.601  1.00  0.00     0.316 HD
HETATM   17  C12 UNL     1      22.264  -1.356  53.115  1.00  0.00     0.153 C 
ENDBRANCH  10  11
ENDBRANCH   6   7
ENDBRANCH   3   5
ENDBRANCH   2   3
BRANCH   2  18
HETATM   18  C13 UNL     1      25.675   5.198  49.786  1.00  0.00     0.104 C 
HETATM   19  C14 UNL     1      25.547   6.486  50.124  1.00  0.00     0.110 C 
HETATM   20  C19 UNL     1      26.336   7.652  49.681  1.00  0.00     0.057 C 
HETATM   21  C20 UNL     1      27.338   7.559  48.821  1.00  0.00     0.087 C 
HETATM   22  N6  UNL     1      27.921   6.472  48.126  1.00  0.00    -0.378 N 
HETATM   23  C21 UNL     1      27.903   5.083  48.534  1.00  0.00     0.297 C 
HETATM   24  H26 UNL     1      28.387   6.813  47.241  1.00  0.00     0.161 HD
HETATM   25  O2  UNL     1      26.605   4.651  48.919  1.00  0.00    -0.331 OA
BRANCH  19  26
HETATM   26  O1  UNL     1      24.542   6.831  51.016  1.00  0.00    -0.289 OA
BRANCH  26  27
HETATM   27  C15 UNL     1      23.370   7.369  50.507  1.00  0.00     0.172 A 
HETATM   28  C16 UNL     1      22.182   6.728  50.860  1.00  0.00     0.077 A 
HETATM   29  C17 UNL     1      21.021   7.270  50.351  1.00  0.00     0.122 A 
HETATM   30  N4  UNL     1      20.993   8.346  49.561  1.00  0.00    -0.254 NA
HETATM   31  C18 UNL     1      22.165   8.946  49.236  1.00  0.00     0.235 A 
HETATM   32  N5  UNL     1      23.350   8.466  49.702  1.00  0.00    -0.218 NA
ENDBRANCH  26  27
ENDBRANCH  19  26
ENDBRANCH   2  18
TORSDOF 7
ENDMDL
MODEL 9
REMARK VINA RESULT:      -7.8      2.744      4.623
REMARK  7 active torsions:
REMARK  status: ('A' for Active; 'I' for Inactive)
REMARK    1  A    between atoms: C2_2  and  N1_3 
REMARK    2  A    between atoms: C2_2  and  C13_16 
REMARK    3  A    between atoms: N1_3  and  C3_4 
REMARK    4  A    between atoms: C4_5  and  C5_6 
REMARK    5  A    between atoms: C8_9  and  N2_10 
REMARK    6  A    between atoms: C14_17  and  O1_18 
REMARK    7  A    between atoms: O1_18  and  C15_19 
ROOT
HETATM    1  C1  UNL     1      20.585   0.427  51.793  1.00  0.00     0.039 C 
HETATM    2  C2  UNL     1      21.577   0.997  50.825  1.00  0.00     0.132 C 
ENDROOT
BRANCH   2   3
HETATM    3  N1  UNL     1      21.104   1.342  49.536  1.00  0.00    -0.408 N 
HETATM    4  H5  UNL     1      20.100   1.268  49.356  1.00  0.00     0.154 HD
BRANCH   3   5
HETATM    5  C3  UNL     1      21.985   1.372  48.433  1.00  0.00     0.142 C 
HETATM    6  C4  UNL     1      22.384   2.616  47.822  1.00  0.00     0.002 C 
BRANCH   6   7
HETATM    7  C5  UNL     1      22.479   3.896  47.617  1.00  0.00    -0.031 A 
HETATM    8  C6  UNL     1      21.760   4.746  46.633  1.00  0.00     0.070 A 
HETATM    9  C7  UNL     1      22.576   5.770  47.329  1.00  0.00     0.008 A 
HETATM   10  C8  UNL     1      23.202   5.008  48.185  1.00  0.00     0.033 A 
BRANCH  10  11
HETATM   11  N2  UNL     1      24.159   5.306  49.184  1.00  0.00    -0.377 N 
HETATM   12  C9  UNL     1      24.151   6.554  49.918  1.00  0.00     0.153 C 
HETATM   13  C10 UNL     1      25.616   6.826  50.279  1.00  0.00     0.289 C 
HETATM   14  N3  UNL     1      26.492   6.420  49.196  1.00  0.00     0.086 N 
HETATM   15  C11 UNL     1      26.512   4.986  49.020  1.00  0.00     0.289 C 
HETATM   16  H16 UNL     1      26.257   6.922  48.305  1.00  0.00     0.316 HD
HETATM   17  C12 UNL     1      25.222   4.377  49.548  1.00  0.00     0.153 C 
ENDBRANCH  10  11
ENDBRANCH   6   7
ENDBRANCH   3   5
ENDBRANCH   2   3
BRANCH   2  18
HETATM   18  C13 UNL     1      22.085   2.260  51.498  1.00  0.00     0.104 C 
HETATM   19  C14 UNL     1      23.331   2.217  51.984  1.00  0.00     0.110 C 
HETATM   20  C19 UNL     1      24.099   3.265  52.683  1.00  0.00     0.057 C 
HETATM   21  C20 UNL     1      23.606   4.466  52.943  1.00  0.00     0.087 C 
HETATM   22  N6  UNL     1      22.357   5.079  52.682  1.00  0.00    -0.378 N 
HETATM   23  C21 UNL     1      21.436   4.731  51.621  1.00  0.00     0.297 C 
HETATM   24  H26 UNL     1      22.175   5.849  53.382  1.00  0.00     0.161 HD
HETATM   25  O2  UNL     1      21.209   3.330  51.541  1.00  0.00    -0.331 OA
BRANCH  19  26
HETATM   26  O1  UNL     1      24.049   1.039  51.838  1.00  0.00    -0.289 OA
BRANCH  26  27
HETATM   27  C15 UNL     1      24.569   0.442  52.976  1.00  0.00     0.172 A 
HETATM   28  C16 UNL     1      23.708  -0.387  53.697  1.00  0.00     0.077 A 
HETATM   29  C17 UNL     1      24.234  -0.977  54.827  1.00  0.00     0.122 A 
HETATM   30  N4  UNL     1      25.489  -0.791  55.242  1.00  0.00    -0.254 NA
HETATM   31  C18 UNL     1      26.300   0.021  54.519  1.00  0.00     0.235 A 
HETATM   32  N5  UNL     1      25.850   0.637  53.393  1.00  0.00    -0.218 NA
ENDBRANCH  26  27
ENDBRANCH  19  26
ENDBRANCH   2  18
TORSDOF 7
ENDMDL
