MODEL 1
REMARK VINA RESULT:      -7.4      0.000      0.000
REMARK  5 active torsions:
REMARK  status: ('A' for Active; 'I' for Inactive)
REMARK    1  A    between atoms: C6_6  and  O1_7 
REMARK    2  A    between atoms: O1_7  and  C7_8 
REMARK    3  A    between atoms: C8_11  and  S1_12 
REMARK    4  A    between atoms: S1_12  and  C9_13 
REMARK    5  A    between atoms: C9_13  and  C10_14 
ROOT
HETATM    1  C7  UNL     1      24.961   2.580  52.499  1.00  0.00     0.319 A 
HETATM    2  N1  UNL     1      24.879   2.930  51.190  1.00  0.00    -0.095 NA
HETATM    3  N2  UNL     1      23.579   3.190  50.983  1.00  0.00    -0.112 NA
HETATM    4  C8  UNL     1      22.916   3.003  52.123  1.00  0.00     0.233 A 
HETATM    5  O2  UNL     1      23.760   2.635  53.030  1.00  0.00    -0.244 OA
ENDROOT
BRANCH   1   6
HETATM    6  O1  UNL     1      26.225   2.259  52.963  1.00  0.00    -0.271 OA
BRANCH   6   7
HETATM    7  C6  UNL     1      26.790   1.013  52.982  1.00  0.00     0.080 A 
HETATM    8  C5  UNL     1      25.980  -0.075  52.664  1.00  0.00     0.037 A 
HETATM    9  C4  UNL     1      26.474  -1.381  52.659  1.00  0.00     0.003 A 
HETATM   10  C3  UNL     1      27.810  -1.630  52.978  1.00  0.00     0.007 A 
HETATM   11  C2  UNL     1      28.598  -0.535  53.291  1.00  0.00    -0.059 A 
HETATM   12  C1  UNL     1      30.031  -0.762  53.637  1.00  0.00     0.048 C 
HETATM   13  C16 UNL     1      28.103   0.758  53.294  1.00  0.00     0.044 A 
ENDBRANCH   6   7
ENDBRANCH   1   6
BRANCH   4  14
HETATM   14  S1  UNL     1      21.156   3.275  52.157  1.00  0.00    -0.078 SA
BRANCH  14  15
HETATM   15  C9  UNL     1      20.254   1.715  52.022  1.00  0.00     0.121 C 
BRANCH  15  16
HETATM   16  C10 UNL     1      20.913   0.713  52.885  1.00  0.00    -0.049 A 
HETATM   17  C11 UNL     1      21.768  -0.149  52.199  1.00  0.00     0.008 A 
HETATM   18  C12 UNL     1      22.450  -1.137  52.892  1.00  0.00     0.001 A 
HETATM   19  C13 UNL     1      22.241  -1.221  54.270  1.00  0.00     0.000 A 
HETATM   20  C14 UNL     1      21.387  -0.360  54.955  1.00  0.00     0.001 A 
HETATM   21  C15 UNL     1      20.715   0.622  54.246  1.00  0.00     0.008 A 
ENDBRANCH  15  16
ENDBRANCH  14  15
ENDBRANCH   4  14
TORSDOF 5
ENDMDL
MODEL 2
REMARK VINA RESULT:      -7.3      2.820      3.962
REMARK  5 active torsions:
REMARK  status: ('A' for Active; 'I' for Inactive)
REMARK    1  A    between atoms: C6_6  and  O1_7 
REMARK    2  A    between atoms: O1_7  and  C7_8 
REMARK    3  A    between atoms: C8_11  and  S1_12 
REMARK    4  A    between atoms: S1_12  and  C9_13 
REMARK    5  A    between atoms: C9_13  and  C10_14 
ROOT
HETATM    1  C7  UNL     1      24.508  -1.016  54.519  1.00  0.00     0.319 A 
HETATM    2  N1  UNL     1      24.000  -1.497  55.682  1.00  0.00    -0.095 NA
HETATM    3  N2  UNL     1      22.669  -1.466  55.516  1.00  0.00    -0.112 NA
HETATM    4  C8  UNL     1      22.398  -0.987  54.303  1.00  0.00     0.233 A 
HETATM    5  O2  UNL     1      23.515  -0.718  53.711  1.00  0.00    -0.244 OA
ENDROOT
BRANCH   1   6
HETATM    6  O1  UNL     1      25.889  -0.948  54.443  1.00  0.00    -0.271 OA
BRANCH   6   7
HETATM    7  C6  UNL     1      26.623   0.086  53.930  1.00  0.00     0.080 A 
HETATM    8  C5  UNL     1      27.821   0.412  54.563  1.00  0.00     0.037 A 
HETATM    9  C4  UNL     1      28.633   1.453  54.107  1.00  0.00     0.003 A 
HETATM   10  C3  UNL     1      28.257   2.202  52.990  1.00  0.00     0.007 A 
HETATM   11  C2  UNL     1      27.064   1.861  52.376  1.00  0.00    -0.059 A 
HETATM   12  C1  UNL     1      26.630   2.639  51.179  1.00  0.00     0.048 C 
HETATM   13  C16 UNL     1      26.263   0.828  52.833  1.00  0.00     0.044 A 
ENDBRANCH   6   7
ENDBRANCH   1   6
BRANCH   4  14
HETATM   14  S1  UNL     1      20.698  -0.827  53.793  1.00  0.00    -0.078 SA
BRANCH  14  15
HETATM   15  C9  UNL     1      20.317   0.876  53.322  1.00  0.00     0.121 C 
BRANCH  15  16
HETATM   16  C10 UNL     1      21.136   1.233  52.145  1.00  0.00    -0.049 A 
HETATM   17  C11 UNL     1      20.737   0.606  50.967  1.00  0.00     0.008 A 
HETATM   18  C12 UNL     1      21.422   0.854  49.788  1.00  0.00     0.001 A 
HETATM   19  C13 UNL     1      22.502   1.739  49.842  1.00  0.00     0.000 A 
HETATM   20  C14 UNL     1      22.900   2.366  51.021  1.00  0.00     0.001 A 
HETATM   21  C15 UNL     1      22.203   2.106  52.188  1.00  0.00     0.008 A 
ENDBRANCH  15  16
ENDBRANCH  14  15
ENDBRANCH   4  14
TORSDOF 5
ENDMDL
MODEL 3
REMARK VINA RESULT:      -7.3      3.452      5.672
REMARK  5 active torsions:
REMARK  status: ('A' for Active; 'I' for Inactive)
REMARK    1  A    between atoms: C6_6  and  O1_7 
REMARK    2  A    between atoms: O1_7  and  C7_8 
REMARK    3  A    between atoms: C8_11  and  S1_12 
REMARK    4  A    between atoms: S1_12  and  C9_13 
REMARK    5  A    between atoms: C9_13  and  C10_14 
ROOT
HETATM    1  C7  UNL     1      24.577   1.343  52.029  1.00  0.00     0.319 A 
HETATM    2  N1  UNL     1      23.250   1.098  51.889  1.00  0.00    -0.095 NA
HETATM    3  N2  UNL     1      22.858   1.887  50.877  1.00  0.00    -0.112 NA
HETATM    4  C8  UNL     1      23.911   2.571  50.433  1.00  0.00     0.233 A 
HETATM    5  O2  UNL     1      24.942   2.235  51.136  1.00  0.00    -0.244 OA
ENDROOT
BRANCH   1   6
HETATM    6  O1  UNL     1      25.222   0.635  53.030  1.00  0.00    -0.271 OA
BRANCH   6   7
HETATM    7  C6  UNL     1      26.571   0.589  53.251  1.00  0.00     0.080 A 
HETATM    8  C5  UNL     1      27.226   1.785  53.539  1.00  0.00     0.037 A 
HETATM    9  C4  UNL     1      28.601   1.830  53.777  1.00  0.00     0.003 A 
HETATM   10  C3  UNL     1      29.363   0.660  53.729  1.00  0.00     0.007 A 
HETATM   11  C2  UNL     1      28.693  -0.517  53.441  1.00  0.00    -0.059 A 
HETATM   12  C1  UNL     1      29.474  -1.786  53.383  1.00  0.00     0.048 C 
HETATM   13  C16 UNL     1      27.329  -0.555  53.206  1.00  0.00     0.044 A 
ENDBRANCH   6   7
ENDBRANCH   1   6
BRANCH   4  14
HETATM   14  S1  UNL     1      23.697   3.711  49.081  1.00  0.00    -0.078 SA
BRANCH  14  15
HETATM   15  C9  UNL     1      24.249   5.371  49.534  1.00  0.00     0.121 C 
BRANCH  15  16
HETATM   16  C10 UNL     1      25.633   5.555  49.049  1.00  0.00    -0.049 A 
HETATM   17  C11 UNL     1      25.883   6.821  48.521  1.00  0.00     0.008 A 
HETATM   18  C12 UNL     1      27.142   7.126  48.030  1.00  0.00     0.001 A 
HETATM   19  C13 UNL     1      28.118   6.128  48.089  1.00  0.00     0.000 A 
HETATM   20  C14 UNL     1      27.868   4.863  48.617  1.00  0.00     0.001 A 
HETATM   21  C15 UNL     1      26.603   4.577  49.104  1.00  0.00     0.008 A 
ENDBRANCH  15  16
ENDBRANCH  14  15
ENDBRANCH   4  14
TORSDOF 5
ENDMDL
MODEL 4
REMARK VINA RESULT:      -7.2      3.864      6.654
REMARK  5 active torsions:
REMARK  status: ('A' for Active; 'I' for Inactive)
REMARK    1  A    between atoms: C6_6  and  O1_7 
REMARK    2  A    between atoms: O1_7  and  C7_8 
REMARK    3  A    between atoms: C8_11  and  S1_12 
REMARK    4  A    between atoms: S1_12  and  C9_13 
REMARK    5  A    between atoms: C9_13  and  C10_14 
ROOT
HETATM    1  C7  UNL     1      24.811   3.656  50.710  1.00  0.00     0.319 A 
HETATM    2  N1  UNL     1      23.950   4.109  51.657  1.00  0.00    -0.095 NA
HETATM    3  N2  UNL     1      24.109   3.274  52.696  1.00  0.00    -0.112 NA
HETATM    4  C8  UNL     1      25.028   2.363  52.379  1.00  0.00     0.233 A 
HETATM    5  O2  UNL     1      25.443   2.604  51.178  1.00  0.00    -0.244 OA
ENDROOT
BRANCH   1   6
HETATM    6  O1  UNL     1      24.832   4.366  49.522  1.00  0.00    -0.271 OA
BRANCH   6   7
HETATM    7  C6  UNL     1      25.877   5.101  49.035  1.00  0.00     0.080 A 
HETATM    8  C5  UNL     1      27.128   4.489  48.965  1.00  0.00     0.037 A 
HETATM    9  C4  UNL     1      28.249   5.165  48.481  1.00  0.00     0.003 A 
HETATM   10  C3  UNL     1      28.143   6.489  48.051  1.00  0.00     0.007 A 
HETATM   11  C2  UNL     1      26.892   7.079  48.129  1.00  0.00    -0.059 A 
HETATM   12  C1  UNL     1      26.740   8.492  47.678  1.00  0.00     0.048 C 
HETATM   13  C16 UNL     1      25.783   6.403  48.610  1.00  0.00     0.044 A 
ENDBRANCH   6   7
ENDBRANCH   1   6
BRANCH   4  14
HETATM   14  S1  UNL     1      25.455   1.110  53.571  1.00  0.00    -0.078 SA
BRANCH  14  15
HETATM   15  C9  UNL     1      25.933  -0.429  52.754  1.00  0.00     0.121 C 
BRANCH  15  16
HETATM   16  C10 UNL     1      27.360  -0.689  53.037  1.00  0.00    -0.049 A 
HETATM   17  C11 UNL     1      28.092   0.455  53.349  1.00  0.00     0.008 A 
HETATM   18  C12 UNL     1      29.444   0.351  53.635  1.00  0.00     0.001 A 
HETATM   19  C13 UNL     1      30.017  -0.922  53.594  1.00  0.00     0.000 A 
HETATM   20  C14 UNL     1      29.285  -2.065  53.282  1.00  0.00     0.001 A 
HETATM   21  C15 UNL     1      27.935  -1.942  53.000  1.00  0.00     0.008 A 
ENDBRANCH  15  16
ENDBRANCH  14  15
ENDBRANCH   4  14
TORSDOF 5
ENDMDL
MODEL 5
REMARK VINA RESULT:      -7.2      3.244      7.723
REMARK  5 active torsions:
REMARK  status: ('A' for Active; 'I' for Inactive)
REMARK    1  A    between atoms: C6_6  and  O1_7 
REMARK    2  A    between atoms: O1_7  and  C7_8 
REMARK    3  A    between atoms: C8_11  and  S1_12 
REMARK    4  A    between atoms: S1_12  and  C9_13 
REMARK    5  A    between atoms: C9_13  and  C10_14 
ROOT
HETATM    1  C7  UNL     1      21.435  -1.073  54.221  1.00  0.00     0.319 A 
HETATM    2  N1  UNL     1      22.139  -1.611  55.249  1.00  0.00    -0.095 NA
HETATM    3  N2  UNL     1      23.408  -1.231  55.035  1.00  0.00    -0.112 NA
HETATM    4  C8  UNL     1      23.455  -0.495  53.925  1.00  0.00     0.233 A 
HETATM    5  O2  UNL     1      22.259  -0.408  53.443  1.00  0.00    -0.244 OA
ENDROOT
BRANCH   1   6
HETATM    6  O1  UNL     1      20.075  -1.330  54.219  1.00  0.00    -0.271 OA
BRANCH   6   7
HETATM    7  C6  UNL     1      19.186  -0.983  53.239  1.00  0.00     0.080 A 
HETATM    8  C5  UNL     1      17.907  -1.535  53.293  1.00  0.00     0.037 A 
HETATM    9  C4  UNL     1      16.937  -1.237  52.334  1.00  0.00     0.003 A 
HETATM   10  C3  UNL     1      17.231  -0.366  51.283  1.00  0.00     0.007 A 
HETATM   11  C2  UNL     1      18.506   0.171  51.247  1.00  0.00    -0.059 A 
HETATM   12  C1  UNL     1      18.856   1.106  50.139  1.00  0.00     0.048 C 
HETATM   13  C16 UNL     1      19.464  -0.129  52.201  1.00  0.00     0.044 A 
ENDBRANCH   6   7
ENDBRANCH   1   6
BRANCH   4  14
HETATM   14  S1  UNL     1      25.021   0.158  53.383  1.00  0.00    -0.078 SA
BRANCH  14  15
HETATM   15  C9  UNL     1      26.080  -1.152  52.726  1.00  0.00     0.121 C 
BRANCH  15  16
HETATM   16  C10 UNL     1      27.486  -0.824  53.044  1.00  0.00    -0.049 A 
HETATM   17  C11 UNL     1      27.711   0.531  53.278  1.00  0.00     0.008 A 
HETATM   18  C12 UNL     1      28.988   0.973  53.586  1.00  0.00     0.001 A 
HETATM   19  C13 UNL     1      30.006   0.019  53.647  1.00  0.00     0.000 A 
HETATM   20  C14 UNL     1      29.779  -1.336  53.412  1.00  0.00     0.001 A 
HETATM   21  C15 UNL     1      28.497  -1.759  53.106  1.00  0.00     0.008 A 
ENDBRANCH  15  16
ENDBRANCH  14  15
ENDBRANCH   4  14
TORSDOF 5
ENDMDL
MODEL 6
REMARK VINA RESULT:      -7.1      2.765      4.883
REMARK  5 active torsions:
REMARK  status: ('A' for Active; 'I' for Inactive)
REMARK    1  A    between atoms: C6_6  and  O1_7 
REMARK    2  A    between atoms: O1_7  and  C7_8 
REMARK    3  A    between atoms: C8_11  and  S1_12 
REMARK    4  A    between atoms: S1_12  and  C9_13 
REMARK    5  A    between atoms: C9_13  and  C10_14 
ROOT
HETATM    1  C7  UNL     1      25.408   1.653  53.614  1.00  0.00     0.319 A 
HETATM    2  N1  UNL     1      24.437   0.710  53.515  1.00  0.00    -0.095 NA
HETATM    3  N2  UNL     1      23.529   1.235  52.679  1.00  0.00    -0.112 NA
HETATM    4  C8  UNL     1      23.945   2.442  52.295  1.00  0.00     0.233 A 
HETATM    5  O2  UNL     1      25.079   2.683  52.867  1.00  0.00    -0.244 OA
ENDROOT
BRANCH   1   6
HETATM    6  O1  UNL     1      26.476   1.340  54.438  1.00  0.00    -0.271 OA
BRANCH   6   7
HETATM    7  C6  UNL     1      27.578   0.607  54.093  1.00  0.00     0.080 A 
HETATM    8  C5  UNL     1      28.822   1.234  54.148  1.00  0.00     0.037 A 
HETATM    9  C4  UNL     1      29.998   0.562  53.812  1.00  0.00     0.003 A 
HETATM   10  C3  UNL     1      29.956  -0.774  53.407  1.00  0.00     0.007 A 
HETATM   11  C2  UNL     1      28.711  -1.378  53.359  1.00  0.00    -0.059 A 
HETATM   12  C1  UNL     1      28.626  -2.805  52.932  1.00  0.00     0.048 C 
HETATM   13  C16 UNL     1      27.547  -0.706  53.693  1.00  0.00     0.044 A 
ENDBRANCH   6   7
ENDBRANCH   1   6
BRANCH   4  14
HETATM   14  S1  UNL     1      22.938   3.390  51.173  1.00  0.00    -0.078 SA
BRANCH  14  15
HETATM   15  C9  UNL     1      23.485   3.173  49.465  1.00  0.00     0.121 C 
BRANCH  15  16
HETATM   16  C10 UNL     1      24.616   4.090  49.213  1.00  0.00    -0.049 A 
HETATM   17  C11 UNL     1      25.868   3.504  49.389  1.00  0.00     0.008 A 
HETATM   18  C12 UNL     1      27.015   4.255  49.185  1.00  0.00     0.001 A 
HETATM   19  C13 UNL     1      26.854   5.589  48.805  1.00  0.00     0.000 A 
HETATM   20  C14 UNL     1      25.602   6.174  48.628  1.00  0.00     0.001 A 
HETATM   21  C15 UNL     1      24.468   5.408  48.836  1.00  0.00     0.008 A 
ENDBRANCH  15  16
ENDBRANCH  14  15
ENDBRANCH   4  14
TORSDOF 5
ENDMDL
MODEL 7
REMARK VINA RESULT:      -7.0      1.281      2.010
REMARK  5 active torsions:
REMARK  status: ('A' for Active; 'I' for Inactive)
REMARK    1  A    between atoms: C6_6  and  O1_7 
REMARK    2  A    between atoms: O1_7  and  C7_8 
REMARK    3  A    between atoms: C8_11  and  S1_12 
REMARK    4  A    between atoms: S1_12  and  C9_13 
REMARK    5  A    between atoms: C9_13  and  C10_14 
ROOT
HETATM    1  C7  UNL     1      25.703   2.887  51.267  1.00  0.00     0.319 A 
HETATM    2  N1  UNL     1      25.474   3.930  50.429  1.00  0.00    -0.095 NA
HETATM    3  N2  UNL     1      24.144   3.942  50.247  1.00  0.00    -0.112 NA
HETATM    4  C8  UNL     1      23.605   2.947  50.951  1.00  0.00     0.233 A 
HETATM    5  O2  UNL     1      24.555   2.318  51.561  1.00  0.00    -0.244 OA
ENDROOT
BRANCH   1   6
HETATM    6  O1  UNL     1      27.026   2.664  51.610  1.00  0.00    -0.271 OA
BRANCH   6   7
HETATM    7  C6  UNL     1      27.506   1.625  52.357  1.00  0.00     0.080 A 
HETATM    8  C5  UNL     1      28.425   1.915  53.364  1.00  0.00     0.037 A 
HETATM    9  C4  UNL     1      28.966   0.915  54.174  1.00  0.00     0.003 A 
HETATM   10  C3  UNL     1      28.595  -0.419  53.990  1.00  0.00     0.007 A 
HETATM   11  C2  UNL     1      27.681  -0.686  52.984  1.00  0.00    -0.059 A 
HETATM   12  C1  UNL     1      27.260  -2.099  52.759  1.00  0.00     0.048 C 
HETATM   13  C16 UNL     1      27.147   0.310  52.184  1.00  0.00     0.044 A 
ENDBRANCH   6   7
ENDBRANCH   1   6
BRANCH   4  14
HETATM   14  S1  UNL     1      21.840   2.710  50.907  1.00  0.00    -0.078 SA
BRANCH  14  15
HETATM   15  C9  UNL     1      21.423   0.988  50.553  1.00  0.00     0.121 C 
BRANCH  15  16
HETATM   16  C10 UNL     1      21.300   0.260  51.833  1.00  0.00    -0.049 A 
HETATM   17  C11 UNL     1      19.986   0.092  52.264  1.00  0.00     0.008 A 
HETATM   18  C12 UNL     1      19.730  -0.574  53.452  1.00  0.00     0.001 A 
HETATM   19  C13 UNL     1      20.826  -1.053  54.173  1.00  0.00     0.000 A 
HETATM   20  C14 UNL     1      22.140  -0.884  53.742  1.00  0.00     0.001 A 
HETATM   21  C15 UNL     1      22.376  -0.217  52.552  1.00  0.00     0.008 A 
ENDBRANCH  15  16
ENDBRANCH  14  15
ENDBRANCH   4  14
TORSDOF 5
ENDMDL
MODEL 8
REMARK VINA RESULT:      -7.0      1.850      6.245
REMARK  5 active torsions:
REMARK  status: ('A' for Active; 'I' for Inactive)
REMARK    1  A    between atoms: C6_6  and  O1_7 
REMARK    2  A    between atoms: O1_7  and  C7_8 
REMARK    3  A    between atoms: C8_11  and  S1_12 
REMARK    4  A    between atoms: S1_12  and  C9_13 
REMARK    5  A    between atoms: C9_13  and  C10_14 
ROOT
HETATM    1  C7  UNL     1      22.788   2.407  51.192  1.00  0.00     0.319 A 
HETATM    2  N1  UNL     1      23.051   3.731  51.341  1.00  0.00    -0.095 NA
HETATM    3  N2  UNL     1      24.389   3.815  51.379  1.00  0.00    -0.112 NA
HETATM    4  C8  UNL     1      24.902   2.592  51.255  1.00  0.00     0.233 A 
HETATM    5  O2  UNL     1      23.926   1.751  51.144  1.00  0.00    -0.244 OA
ENDROOT
BRANCH   1   6
HETATM    6  O1  UNL     1      21.450   2.058  51.126  1.00  0.00    -0.271 OA
BRANCH   6   7
HETATM    7  C6  UNL     1      20.827   1.092  51.866  1.00  0.00     0.080 A 
HETATM    8  C5  UNL     1      19.494   0.807  51.576  1.00  0.00     0.037 A 
HETATM    9  C4  UNL     1      18.780  -0.163  52.282  1.00  0.00     0.003 A 
HETATM   10  C3  UNL     1      19.394  -0.880  53.311  1.00  0.00     0.007 A 
HETATM   11  C2  UNL     1      20.719  -0.581  53.583  1.00  0.00    -0.059 A 
HETATM   12  C1  UNL     1      21.409  -1.327  54.676  1.00  0.00     0.048 C 
HETATM   13  C16 UNL     1      21.422   0.382  52.880  1.00  0.00     0.044 A 
ENDBRANCH   6   7
ENDBRANCH   1   6
BRANCH   4  14
HETATM   14  S1  UNL     1      26.671   2.386  51.270  1.00  0.00    -0.078 SA
BRANCH  14  15
HETATM   15  C9  UNL     1      27.280   2.109  52.948  1.00  0.00     0.121 C 
BRANCH  15  16
HETATM   16  C10 UNL     1      27.799   0.728  53.039  1.00  0.00    -0.049 A 
HETATM   17  C11 UNL     1      29.091   0.642  53.554  1.00  0.00     0.008 A 
HETATM   18  C12 UNL     1      29.696  -0.597  53.691  1.00  0.00     0.001 A 
HETATM   19  C13 UNL     1      28.965  -1.720  53.298  1.00  0.00     0.000 A 
HETATM   20  C14 UNL     1      27.674  -1.633  52.784  1.00  0.00     0.001 A 
HETATM   21  C15 UNL     1      27.085  -0.387  52.655  1.00  0.00     0.008 A 
ENDBRANCH  15  16
ENDBRANCH  14  15
ENDBRANCH   4  14
TORSDOF 5
ENDMDL
MODEL 9
REMARK VINA RESULT:      -6.9      2.293      2.840
REMARK  5 active torsions:
REMARK  status: ('A' for Active; 'I' for Inactive)
REMARK    1  A    between atoms: C6_6  and  O1_7 
REMARK    2  A    between atoms: O1_7  and  C7_8 
REMARK    3  A    between atoms: C8_11  and  S1_12 
REMARK    4  A    between atoms: S1_12  and  C9_13 
REMARK    5  A    between atoms: C9_13  and  C10_14 
ROOT
HETATM    1  C7  UNL     1      24.572   0.986  52.626  1.00  0.00     0.319 A 
HETATM    2  N1  UNL     1      23.823   1.335  51.549  1.00  0.00    -0.095 NA
HETATM    3  N2  UNL     1      22.551   1.227  51.962  1.00  0.00    -0.112 NA
HETATM    4  C8  UNL     1      22.545   0.831  53.234  1.00  0.00     0.233 A 
HETATM    5  O2  UNL     1      23.769   0.689  53.623  1.00  0.00    -0.244 OA
ENDROOT
BRANCH   1   6
HETATM    6  O1  UNL     1      25.944   1.019  52.446  1.00  0.00    -0.271 OA
BRANCH   6   7
HETATM    7  C6  UNL     1      26.814  -0.016  52.650  1.00  0.00     0.080 A 
HETATM    8  C5  UNL     1      26.380  -1.303  52.336  1.00  0.00     0.037 A 
HETATM    9  C4  UNL     1      27.202  -2.418  52.513  1.00  0.00     0.003 A 
HETATM   10  C3  UNL     1      28.495  -2.267  53.017  1.00  0.00     0.007 A 
HETATM   11  C2  UNL     1      28.906  -0.981  53.322  1.00  0.00    -0.059 A 
HETATM   12  C1  UNL     1      30.283  -0.780  53.862  1.00  0.00     0.048 C 
HETATM   13  C16 UNL     1      28.087   0.122  53.144  1.00  0.00     0.044 A 
ENDBRANCH   6   7
ENDBRANCH   1   6
BRANCH   4  14
HETATM   14  S1  UNL     1      20.985   0.599  54.063  1.00  0.00    -0.078 SA
BRANCH  14  15
HETATM   15  C9  UNL     1      20.329  -1.058  53.763  1.00  0.00     0.121 C 
BRANCH  15  16
HETATM   16  C10 UNL     1      19.050  -0.933  53.033  1.00  0.00    -0.049 A 
HETATM   17  C11 UNL     1      19.105  -0.068  51.941  1.00  0.00     0.008 A 
HETATM   18  C12 UNL     1      17.972   0.140  51.170  1.00  0.00     0.001 A 
HETATM   19  C13 UNL     1      16.808  -0.541  51.534  1.00  0.00     0.000 A 
HETATM   20  C14 UNL     1      16.755  -1.406  52.625  1.00  0.00     0.001 A 
HETATM   21  C15 UNL     1      17.897  -1.602  53.383  1.00  0.00     0.008 A 
ENDBRANCH  15  16
ENDBRANCH  14  15
ENDBRANCH   4  14
TORSDOF 5
ENDMDL
