MODEL 1
REMARK VINA RESULT:      -7.8      0.000      0.000
REMARK  7 active torsions:
REMARK  status: ('A' for Active; 'I' for Inactive)
REMARK    1  A    between atoms: C2_2  and  C3_4 
REMARK    2  A    between atoms: C4_5  and  O2_6 
REMARK    3  A    between atoms: C6_8  and  O3_9 
REMARK    4  A    between atoms: O3_9  and  C7_10 
REMARK    5  A    between atoms: C7_10  and  C8_11 
REMARK    6  A    between atoms: C8_11  and  C9_12 
REMARK    7  A    between atoms: C11_15  and  C12_16 
ROOT
HETATM    1  C3  UNL     1      27.158   0.205  53.344  1.00  0.00     0.044 C 
HETATM    2  C4  UNL     1      26.022  -0.198  53.941  1.00  0.00     0.080 C 
HETATM    3  C5  UNL     1      24.600  -0.231  53.614  1.00  0.00     0.074 C 
HETATM    4  C6  UNL     1      23.847   0.493  52.796  1.00  0.00     0.074 C 
HETATM    5  C10 UNL     1      24.178   1.625  51.896  1.00  0.00     0.074 C 
HETATM    6  C11 UNL     1      25.238   2.253  51.431  1.00  0.00     0.082 C 
HETATM    7  O5  UNL     1      26.565   1.933  51.739  1.00  0.00    -0.345 OA
HETATM    8  C18 UNL     1      27.328   0.798  52.015  1.00  0.00     0.221 C 
ENDROOT
BRANCH   6   9
HETATM    9  C12 UNL     1      25.101   3.371  50.525  1.00  0.00    -0.003 A 
HETATM   10  C13 UNL     1      23.961   3.994  50.096  1.00  0.00     0.014 A 
HETATM   11  C14 UNL     1      23.922   5.062  49.231  1.00  0.00     0.001 A 
HETATM   12  C15 UNL     1      25.095   5.582  48.727  1.00  0.00     0.000 A 
HETATM   13  C16 UNL     1      26.263   4.978  49.138  1.00  0.00     0.001 A 
HETATM   14  C17 UNL     1      26.236   3.920  50.000  1.00  0.00     0.014 A 
ENDBRANCH   6   9
BRANCH   4  15
HETATM   15  O3  UNL     1      22.519   0.165  52.749  1.00  0.00    -0.351 OA
BRANCH  15  16
HETATM   16  C7  UNL     1      21.428   0.844  53.227  1.00  0.00     0.182 C 
BRANCH  16  17
HETATM   17  C8  UNL     1      20.953   0.157  54.504  1.00  0.00     0.096 C 
BRANCH  17  18
HETATM   18  C9  UNL     1      21.142  -1.313  54.426  1.00  0.00     0.233 C 
HETATM   19  O4  UNL     1      21.797  -2.031  55.163  1.00  0.00    -0.307 OA
ENDBRANCH  17  18
ENDBRANCH  16  17
ENDBRANCH  15  16
ENDBRANCH   4  15
BRANCH   1  20
HETATM   20  C2  UNL     1      28.384   0.022  54.110  1.00  0.00     0.156 C 
HETATM   21  C1  UNL     1      29.522  -0.872  53.943  1.00  0.00     0.096 C 
HETATM   22  O1  UNL     1      28.462   0.788  55.103  1.00  0.00    -0.293 OA
ENDBRANCH   1  20
BRANCH   2  23
HETATM   23  O2  UNL     1      26.229  -0.732  55.220  1.00  0.00    -0.360 OA
HETATM   24  H4  UNL     1      26.559  -1.663  55.300  1.00  0.00     0.217 HD
ENDBRANCH   2  23
TORSDOF 7
ENDMDL
MODEL 2
REMARK VINA RESULT:      -7.7      1.812      6.665
REMARK  7 active torsions:
REMARK  status: ('A' for Active; 'I' for Inactive)
REMARK    1  A    between atoms: C2_2  and  C3_4 
REMARK    2  A    between atoms: C4_5  and  O2_6 
REMARK    3  A    between atoms: C6_8  and  O3_9 
REMARK    4  A    between atoms: O3_9  and  C7_10 
REMARK    5  A    between atoms: C7_10  and  C8_11 
REMARK    6  A    between atoms: C8_11  and  C9_12 
REMARK    7  A    between atoms: C11_15  and  C12_16 
ROOT
HETATM    1  C3  UNL     1      24.222   3.585  50.151  1.00  0.00     0.044 C 
HETATM    2  C4  UNL     1      25.509   3.529  50.539  1.00  0.00     0.080 C 
HETATM    3  C5  UNL     1      26.405   2.534  51.119  1.00  0.00     0.074 C 
HETATM    4  C6  UNL     1      26.192   1.457  51.865  1.00  0.00     0.074 C 
HETATM    5  C10 UNL     1      24.943   0.857  52.394  1.00  0.00     0.074 C 
HETATM    6  C11 UNL     1      23.640   0.992  52.268  1.00  0.00     0.082 C 
HETATM    7  O5  UNL     1      23.001   1.919  51.436  1.00  0.00    -0.345 OA
HETATM    8  C18 UNL     1      23.209   2.527  50.197  1.00  0.00     0.221 C 
ENDROOT
BRANCH   6   9
HETATM    9  C12 UNL     1      22.729   0.152  53.013  1.00  0.00    -0.003 A 
HETATM   10  C13 UNL     1      23.010  -0.753  54.000  1.00  0.00     0.014 A 
HETATM   11  C14 UNL     1      22.076  -1.512  54.665  1.00  0.00     0.001 A 
HETATM   12  C15 UNL     1      20.740  -1.390  54.348  1.00  0.00     0.000 A 
HETATM   13  C16 UNL     1      20.421  -0.488  53.358  1.00  0.00     0.001 A 
HETATM   14  C17 UNL     1      21.395   0.238  52.734  1.00  0.00     0.014 A 
ENDBRANCH   6   9
BRANCH   4  15
HETATM   15  O3  UNL     1      27.304   0.748  52.231  1.00  0.00    -0.351 OA
BRANCH  15  16
HETATM   16  C7  UNL     1      27.413  -0.533  52.707  1.00  0.00     0.182 C 
BRANCH  16  17
HETATM   17  C8  UNL     1      28.677  -0.627  53.557  1.00  0.00     0.096 C 
BRANCH  17  18
HETATM   18  C9  UNL     1      28.532   0.136  54.822  1.00  0.00     0.233 C 
HETATM   19  O4  UNL     1      28.954   1.249  55.085  1.00  0.00    -0.307 OA
ENDBRANCH  17  18
ENDBRANCH  16  17
ENDBRANCH  15  16
ENDBRANCH   4  15
BRANCH   1  20
HETATM   20  C2  UNL     1      23.771   4.861  49.608  1.00  0.00     0.156 C 
HETATM   21  C1  UNL     1      23.477   5.300  48.251  1.00  0.00     0.096 C 
HETATM   22  O1  UNL     1      23.609   5.741  50.490  1.00  0.00    -0.293 OA
ENDBRANCH   1  20
BRANCH   2  23
HETATM   23  O2  UNL     1      26.198   4.734  50.343  1.00  0.00    -0.360 OA
HETATM   24  H4  UNL     1      26.853   5.025  51.028  1.00  0.00     0.217 HD
ENDBRANCH   2  23
TORSDOF 7
ENDMDL
MODEL 3
REMARK VINA RESULT:      -7.5      1.437      5.151
REMARK  7 active torsions:
REMARK  status: ('A' for Active; 'I' for Inactive)
REMARK    1  A    between atoms: C2_2  and  C3_4 
REMARK    2  A    between atoms: C4_5  and  O2_6 
REMARK    3  A    between atoms: C6_8  and  O3_9 
REMARK    4  A    between atoms: O3_9  and  C7_10 
REMARK    5  A    between atoms: C7_10  and  C8_11 
REMARK    6  A    between atoms: C8_11  and  C9_12 
REMARK    7  A    between atoms: C11_15  and  C12_16 
ROOT
HETATM    1  C3  UNL     1      22.251   0.942  52.637  1.00  0.00     0.044 C 
HETATM    2  C4  UNL     1      23.088  -0.021  53.066  1.00  0.00     0.080 C 
HETATM    3  C5  UNL     1      24.509  -0.137  53.378  1.00  0.00     0.074 C 
HETATM    4  C6  UNL     1      25.578   0.531  52.963  1.00  0.00     0.074 C 
HETATM    5  C10 UNL     1      25.728   1.660  52.013  1.00  0.00     0.074 C 
HETATM    6  C11 UNL     1      24.975   2.512  51.350  1.00  0.00     0.082 C 
HETATM    7  O5  UNL     1      23.577   2.560  51.397  1.00  0.00    -0.345 OA
HETATM    8  C18 UNL     1      22.556   2.340  52.322  1.00  0.00     0.221 C 
ENDROOT
BRANCH   6   9
HETATM    9  C12 UNL     1      25.565   3.508  50.484  1.00  0.00    -0.003 A 
HETATM   10  C13 UNL     1      26.710   3.428  49.740  1.00  0.00     0.014 A 
HETATM   11  C14 UNL     1      27.200   4.428  48.933  1.00  0.00     0.001 A 
HETATM   12  C15 UNL     1      26.521   5.623  48.832  1.00  0.00     0.000 A 
HETATM   13  C16 UNL     1      25.363   5.739  49.568  1.00  0.00     0.001 A 
HETATM   14  C17 UNL     1      24.928   4.709  50.351  1.00  0.00     0.014 A 
ENDBRANCH   6   9
BRANCH   4  15
HETATM   15  O3  UNL     1      26.778   0.131  53.487  1.00  0.00    -0.351 OA
BRANCH  15  16
HETATM   16  C7  UNL     1      27.687  -0.778  53.008  1.00  0.00     0.182 C 
BRANCH  16  17
HETATM   17  C8  UNL     1      29.045  -0.480  53.638  1.00  0.00     0.096 C 
BRANCH  17  18
HETATM   18  C9  UNL     1      29.180   0.961  53.968  1.00  0.00     0.233 C 
HETATM   19  O4  UNL     1      29.137   1.491  55.065  1.00  0.00    -0.307 OA
ENDBRANCH  17  18
ENDBRANCH  16  17
ENDBRANCH  15  16
ENDBRANCH   4  15
BRANCH   1  20
HETATM   20  C2  UNL     1      20.857   0.550  52.469  1.00  0.00     0.156 C 
HETATM   21  C1  UNL     1      20.033   0.340  51.286  1.00  0.00     0.096 C 
HETATM   22  O1  UNL     1      20.264   0.361  53.560  1.00  0.00    -0.293 OA
ENDBRANCH   1  20
BRANCH   2  23
HETATM   23  O2  UNL     1      22.452  -1.252  53.278  1.00  0.00    -0.360 OA
HETATM   24  H4  UNL     1      21.728  -1.304  53.953  1.00  0.00     0.217 HD
ENDBRANCH   2  23
TORSDOF 7
ENDMDL
MODEL 4
REMARK VINA RESULT:      -7.4      1.663      2.381
REMARK  7 active torsions:
REMARK  status: ('A' for Active; 'I' for Inactive)
REMARK    1  A    between atoms: C2_2  and  C3_4 
REMARK    2  A    between atoms: C4_5  and  O2_6 
REMARK    3  A    between atoms: C6_8  and  O3_9 
REMARK    4  A    between atoms: O3_9  and  C7_10 
REMARK    5  A    between atoms: C7_10  and  C8_11 
REMARK    6  A    between atoms: C8_11  and  C9_12 
REMARK    7  A    between atoms: C11_15  and  C12_16 
ROOT
HETATM    1  C3  UNL     1      26.714  -0.179  52.919  1.00  0.00     0.044 C 
HETATM    2  C4  UNL     1      25.516  -0.304  53.519  1.00  0.00     0.080 C 
HETATM    3  C5  UNL     1      24.136   0.070  53.230  1.00  0.00     0.074 C 
HETATM    4  C6  UNL     1      23.600   1.029  52.486  1.00  0.00     0.074 C 
HETATM    5  C10 UNL     1      24.217   2.094  51.657  1.00  0.00     0.074 C 
HETATM    6  C11 UNL     1      25.402   2.447  51.207  1.00  0.00     0.082 C 
HETATM    7  O5  UNL     1      26.597   1.759  51.455  1.00  0.00    -0.345 OA
HETATM    8  C18 UNL     1      27.027   0.444  51.630  1.00  0.00     0.221 C 
ENDROOT
BRANCH   6   9
HETATM    9  C12 UNL     1      25.565   3.624  50.384  1.00  0.00    -0.003 A 
HETATM   10  C13 UNL     1      24.700   4.667  50.199  1.00  0.00     0.014 A 
HETATM   11  C14 UNL     1      24.939   5.758  49.397  1.00  0.00     0.001 A 
HETATM   12  C15 UNL     1      26.126   5.855  48.703  1.00  0.00     0.000 A 
HETATM   13  C16 UNL     1      27.021   4.820  48.866  1.00  0.00     0.001 A 
HETATM   14  C17 UNL     1      26.726   3.764  49.678  1.00  0.00     0.014 A 
ENDBRANCH   6   9
BRANCH   4  15
HETATM   15  O3  UNL     1      22.232   1.073  52.453  1.00  0.00    -0.351 OA
BRANCH  15  16
HETATM   16  C7  UNL     1      21.393   1.673  51.550  1.00  0.00     0.182 C 
BRANCH  16  17
HETATM   17  C8  UNL     1      20.979   0.634  50.512  1.00  0.00     0.096 C 
BRANCH  17  18
HETATM   18  C9  UNL     1      21.411   1.033  49.150  1.00  0.00     0.233 C 
HETATM   19  O4  UNL     1      22.297   1.811  48.836  1.00  0.00    -0.307 OA
ENDBRANCH  17  18
ENDBRANCH  16  17
ENDBRANCH  15  16
ENDBRANCH   4  15
BRANCH   1  20
HETATM   20  C2  UNL     1      27.852  -0.740  53.637  1.00  0.00     0.156 C 
HETATM   21  C1  UNL     1      28.879  -0.136  54.475  1.00  0.00     0.096 C 
HETATM   22  O1  UNL     1      27.955  -1.985  53.498  1.00  0.00    -0.293 OA
ENDBRANCH   1  20
BRANCH   2  23
HETATM   23  O2  UNL     1      25.582  -0.968  54.752  1.00  0.00    -0.360 OA
HETATM   24  H4  UNL     1      26.381  -1.518  54.955  1.00  0.00     0.217 HD
ENDBRANCH   2  23
TORSDOF 7
ENDMDL
MODEL 5
REMARK VINA RESULT:      -7.3      1.188      1.908
REMARK  7 active torsions:
REMARK  status: ('A' for Active; 'I' for Inactive)
REMARK    1  A    between atoms: C2_2  and  C3_4 
REMARK    2  A    between atoms: C4_5  and  O2_6 
REMARK    3  A    between atoms: C6_8  and  O3_9 
REMARK    4  A    between atoms: O3_9  and  C7_10 
REMARK    5  A    between atoms: C7_10  and  C8_11 
REMARK    6  A    between atoms: C8_11  and  C9_12 
REMARK    7  A    between atoms: C11_15  and  C12_16 
ROOT
HETATM    1  C3  UNL     1      26.809   0.157  53.294  1.00  0.00     0.044 C 
HETATM    2  C4  UNL     1      25.707  -0.252  53.949  1.00  0.00     0.080 C 
HETATM    3  C5  UNL     1      24.274  -0.325  53.684  1.00  0.00     0.074 C 
HETATM    4  C6  UNL     1      23.472   0.360  52.879  1.00  0.00     0.074 C 
HETATM    5  C10 UNL     1      23.740   1.474  51.936  1.00  0.00     0.074 C 
HETATM    6  C11 UNL     1      24.764   2.111  51.410  1.00  0.00     0.082 C 
HETATM    7  O5  UNL     1      26.111   1.828  51.670  1.00  0.00    -0.345 OA
HETATM    8  C18 UNL     1      26.910   0.718  51.943  1.00  0.00     0.221 C 
ENDROOT
BRANCH   6   9
HETATM    9  C12 UNL     1      24.565   3.200  50.480  1.00  0.00    -0.003 A 
HETATM   10  C13 UNL     1      25.323   4.326  50.303  1.00  0.00     0.014 A 
HETATM   11  C14 UNL     1      25.063   5.316  49.385  1.00  0.00     0.001 A 
HETATM   12  C15 UNL     1      23.966   5.215  48.557  1.00  0.00     0.000 A 
HETATM   13  C16 UNL     1      23.180   4.094  48.709  1.00  0.00     0.001 A 
HETATM   14  C17 UNL     1      23.491   3.144  49.639  1.00  0.00     0.014 A 
ENDBRANCH   6   9
BRANCH   4  15
HETATM   15  O3  UNL     1      22.151   0.002  52.897  1.00  0.00    -0.351 OA
BRANCH  15  16
HETATM   16  C7  UNL     1      21.211   0.059  51.901  1.00  0.00     0.182 C 
BRANCH  16  17
HETATM   17  C8  UNL     1      19.898   0.551  52.503  1.00  0.00     0.096 C 
BRANCH  17  18
HETATM   18  C9  UNL     1      19.711   2.005  52.269  1.00  0.00     0.233 C 
HETATM   19  O4  UNL     1      20.265   2.937  52.827  1.00  0.00    -0.307 OA
ENDBRANCH  17  18
ENDBRANCH  16  17
ENDBRANCH  15  16
ENDBRANCH   4  15
BRANCH   1  20
HETATM   20  C2  UNL     1      28.069   0.023  54.012  1.00  0.00     0.156 C 
HETATM   21  C1  UNL     1      29.222  -0.847  53.818  1.00  0.00     0.096 C 
HETATM   22  O1  UNL     1      28.168   0.813  54.984  1.00  0.00    -0.293 OA
ENDBRANCH   1  20
BRANCH   2  23
HETATM   23  O2  UNL     1      25.980  -0.747  55.232  1.00  0.00    -0.360 OA
HETATM   24  H4  UNL     1      25.895  -0.134  56.007  1.00  0.00     0.217 HD
ENDBRANCH   2  23
TORSDOF 7
ENDMDL
MODEL 6
REMARK VINA RESULT:      -7.1      2.295      5.665
REMARK  7 active torsions:
REMARK  status: ('A' for Active; 'I' for Inactive)
REMARK    1  A    between atoms: C2_2  and  C3_4 
REMARK    2  A    between atoms: C4_5  and  O2_6 
REMARK    3  A    between atoms: C6_8  and  O3_9 
REMARK    4  A    between atoms: O3_9  and  C7_10 
REMARK    5  A    between atoms: C7_10  and  C8_11 
REMARK    6  A    between atoms: C8_11  and  C9_12 
REMARK    7  A    between atoms: C11_15  and  C12_16 
ROOT
HETATM    1  C3  UNL     1      25.517  -0.043  53.372  1.00  0.00     0.044 C 
HETATM    2  C4  UNL     1      25.781   1.212  52.964  1.00  0.00     0.080 C 
HETATM    3  C5  UNL     1      25.059   2.476  52.869  1.00  0.00     0.074 C 
HETATM    4  C6  UNL     1      23.770   2.769  52.750  1.00  0.00     0.074 C 
HETATM    5  C10 UNL     1      22.566   1.906  52.669  1.00  0.00     0.074 C 
HETATM    6  C11 UNL     1      22.236   0.639  52.812  1.00  0.00     0.082 C 
HETATM    7  O5  UNL     1      23.122  -0.394  53.141  1.00  0.00    -0.345 OA
HETATM    8  C18 UNL     1      24.267  -0.580  53.916  1.00  0.00     0.221 C 
ENDROOT
BRANCH   6   9
HETATM    9  C12 UNL     1      20.869   0.203  52.633  1.00  0.00    -0.003 A 
HETATM   10  C13 UNL     1      20.089  -0.541  53.476  1.00  0.00     0.014 A 
HETATM   11  C14 UNL     1      18.788  -0.909  53.228  1.00  0.00     0.001 A 
HETATM   12  C15 UNL     1      18.177  -0.527  52.053  1.00  0.00     0.000 A 
HETATM   13  C16 UNL     1      18.934   0.223  51.180  1.00  0.00     0.001 A 
HETATM   14  C17 UNL     1      20.222   0.558  51.484  1.00  0.00     0.014 A 
ENDBRANCH   6   9
BRANCH   4  15
HETATM   15  O3  UNL     1      23.457   4.101  52.688  1.00  0.00    -0.351 OA
BRANCH  15  16
HETATM   16  C7  UNL     1      22.300   4.714  52.285  1.00  0.00     0.182 C 
BRANCH  16  17
HETATM   17  C8  UNL     1      22.631   5.664  51.137  1.00  0.00     0.096 C 
BRANCH  17  18
HETATM   18  C9  UNL     1      23.975   6.270  51.312  1.00  0.00     0.233 C 
HETATM   19  O4  UNL     1      24.937   6.199  50.566  1.00  0.00    -0.307 OA
ENDBRANCH  17  18
ENDBRANCH  16  17
ENDBRANCH  15  16
ENDBRANCH   4  15
BRANCH   1  20
HETATM   20  C2  UNL     1      26.615  -0.995  53.267  1.00  0.00     0.156 C 
HETATM   21  C1  UNL     1      26.881  -2.089  52.342  1.00  0.00     0.096 C 
HETATM   22  O1  UNL     1      27.495  -0.830  54.149  1.00  0.00    -0.293 OA
ENDBRANCH   1  20
BRANCH   2  23
HETATM   23  O2  UNL     1      27.095   1.379  52.505  1.00  0.00    -0.360 OA
HETATM   24  H4  UNL     1      27.814   0.825  52.903  1.00  0.00     0.217 HD
ENDBRANCH   2  23
TORSDOF 7
ENDMDL
MODEL 7
REMARK VINA RESULT:      -7.1      1.622      6.279
REMARK  7 active torsions:
REMARK  status: ('A' for Active; 'I' for Inactive)
REMARK    1  A    between atoms: C2_2  and  C3_4 
REMARK    2  A    between atoms: C4_5  and  O2_6 
REMARK    3  A    between atoms: C6_8  and  O3_9 
REMARK    4  A    between atoms: O3_9  and  C7_10 
REMARK    5  A    between atoms: C7_10  and  C8_11 
REMARK    6  A    between atoms: C8_11  and  C9_12 
REMARK    7  A    between atoms: C11_15  and  C12_16 
ROOT
HETATM    1  C3  UNL     1      22.143  -0.039  53.272  1.00  0.00     0.044 C 
HETATM    2  C4  UNL     1      21.863   1.113  52.635  1.00  0.00     0.080 C 
HETATM    3  C5  UNL     1      22.528   1.988  51.674  1.00  0.00     0.074 C 
HETATM    4  C6  UNL     1      23.805   2.204  51.388  1.00  0.00     0.074 C 
HETATM    5  C10 UNL     1      25.052   1.627  51.948  1.00  0.00     0.074 C 
HETATM    6  C11 UNL     1      25.428   0.661  52.760  1.00  0.00     0.082 C 
HETATM    7  O5  UNL     1      24.563  -0.225  53.413  1.00  0.00    -0.345 OA
HETATM    8  C18 UNL     1      23.348  -0.866  53.172  1.00  0.00     0.221 C 
ENDROOT
BRANCH   6   9
HETATM    9  C12 UNL     1      26.826   0.433  53.048  1.00  0.00    -0.003 A 
HETATM   10  C13 UNL     1      27.790   1.341  53.390  1.00  0.00     0.014 A 
HETATM   11  C14 UNL     1      29.104   1.036  53.655  1.00  0.00     0.001 A 
HETATM   12  C15 UNL     1      29.534  -0.272  53.582  1.00  0.00     0.000 A 
HETATM   13  C16 UNL     1      28.589  -1.213  53.239  1.00  0.00     0.001 A 
HETATM   14  C17 UNL     1      27.298  -0.847  52.988  1.00  0.00     0.014 A 
ENDBRANCH   6   9
BRANCH   4  15
HETATM   15  O3  UNL     1      24.055   3.120  50.402  1.00  0.00    -0.351 OA
BRANCH  15  16
HETATM   16  C7  UNL     1      24.544   4.397  50.492  1.00  0.00     0.182 C 
BRANCH  16  17
HETATM   17  C8  UNL     1      25.384   4.682  49.249  1.00  0.00     0.096 C 
BRANCH  17  18
HETATM   18  C9  UNL     1      26.696   3.992  49.318  1.00  0.00     0.233 C 
HETATM   19  O4  UNL     1      27.231   3.483  50.288  1.00  0.00    -0.307 OA
ENDBRANCH  17  18
ENDBRANCH  16  17
ENDBRANCH  15  16
ENDBRANCH   4  15
BRANCH   1  20
HETATM   20  C2  UNL     1      21.113  -0.537  54.175  1.00  0.00     0.156 C 
HETATM   21  C1  UNL     1      20.120  -1.596  54.042  1.00  0.00     0.096 C 
HETATM   22  O1  UNL     1      21.086   0.070  55.274  1.00  0.00    -0.293 OA
ENDBRANCH   1  20
BRANCH   2  23
HETATM   23  O2  UNL     1      20.604   1.635  52.962  1.00  0.00    -0.360 OA
HETATM   24  H4  UNL     1      19.999   1.096  53.533  1.00  0.00     0.217 HD
ENDBRANCH   2  23
TORSDOF 7
ENDMDL
MODEL 8
REMARK VINA RESULT:      -6.7      6.206      9.599
REMARK  7 active torsions:
REMARK  status: ('A' for Active; 'I' for Inactive)
REMARK    1  A    between atoms: C2_2  and  C3_4 
REMARK    2  A    between atoms: C4_5  and  O2_6 
REMARK    3  A    between atoms: C6_8  and  O3_9 
REMARK    4  A    between atoms: O3_9  and  C7_10 
REMARK    5  A    between atoms: C7_10  and  C8_11 
REMARK    6  A    between atoms: C8_11  and  C9_12 
REMARK    7  A    between atoms: C11_15  and  C12_16 
ROOT
HETATM    1  C3  UNL     1      30.155   8.840  48.446  1.00  0.00     0.044 C 
HETATM    2  C4  UNL     1      28.947   8.281  48.252  1.00  0.00     0.080 C 
HETATM    3  C5  UNL     1      28.355   6.953  48.374  1.00  0.00     0.074 C 
HETATM    4  C6  UNL     1      28.868   5.730  48.314  1.00  0.00     0.074 C 
HETATM    5  C10 UNL     1      30.256   5.254  48.097  1.00  0.00     0.074 C 
HETATM    6  C11 UNL     1      31.478   5.739  48.028  1.00  0.00     0.082 C 
HETATM    7  O5  UNL     1      31.820   7.088  48.174  1.00  0.00    -0.345 OA
HETATM    8  C18 UNL     1      31.393   8.201  48.900  1.00  0.00     0.221 C 
ENDROOT
BRANCH   6   9
HETATM    9  C12 UNL     1      32.610   4.872  47.787  1.00  0.00    -0.003 A 
HETATM   10  C13 UNL     1      33.910   5.028  48.183  1.00  0.00     0.014 A 
HETATM   11  C14 UNL     1      34.929   4.146  47.913  1.00  0.00     0.001 A 
HETATM   12  C15 UNL     1      34.674   3.001  47.190  1.00  0.00     0.000 A 
HETATM   13  C16 UNL     1      33.375   2.812  46.774  1.00  0.00     0.001 A 
HETATM   14  C17 UNL     1      32.406   3.725  47.075  1.00  0.00     0.014 A 
ENDBRANCH   6   9
BRANCH   4  15
HETATM   15  O3  UNL     1      27.985   4.697  48.478  1.00  0.00    -0.351 OA
BRANCH  15  16
HETATM   16  C7  UNL     1      26.791   4.660  49.150  1.00  0.00     0.182 C 
BRANCH  16  17
HETATM   17  C8  UNL     1      26.485   3.210  49.513  1.00  0.00     0.096 C 
BRANCH  17  18
HETATM   18  C9  UNL     1      26.516   3.006  50.982  1.00  0.00     0.233 C 
HETATM   19  O4  UNL     1      27.338   2.392  51.643  1.00  0.00    -0.307 OA
ENDBRANCH  17  18
ENDBRANCH  16  17
ENDBRANCH  15  16
ENDBRANCH   4  15
BRANCH   1  20
HETATM   20  C2  UNL     1      30.250  10.269  48.176  1.00  0.00     0.156 C 
HETATM   21  C1  UNL     1      30.426  11.423  49.049  1.00  0.00     0.096 C 
HETATM   22  O1  UNL     1      30.163  10.546  46.954  1.00  0.00    -0.293 OA
ENDBRANCH   1  20
BRANCH   2  23
HETATM   23  O2  UNL     1      27.977   9.196  47.819  1.00  0.00    -0.360 OA
HETATM   24  H4  UNL     1      28.073  10.149  48.075  1.00  0.00     0.217 HD
ENDBRANCH   2  23
TORSDOF 7
ENDMDL
MODEL 9
REMARK VINA RESULT:      -6.6      2.948      5.166
REMARK  7 active torsions:
REMARK  status: ('A' for Active; 'I' for Inactive)
REMARK    1  A    between atoms: C2_2  and  C3_4 
REMARK    2  A    between atoms: C4_5  and  O2_6 
REMARK    3  A    between atoms: C6_8  and  O3_9 
REMARK    4  A    between atoms: O3_9  and  C7_10 
REMARK    5  A    between atoms: C7_10  and  C8_11 
REMARK    6  A    between atoms: C8_11  and  C9_12 
REMARK    7  A    between atoms: C11_15  and  C12_16 
ROOT
HETATM    1  C3  UNL     1      25.646   1.998  52.026  1.00  0.00     0.044 C 
HETATM    2  C4  UNL     1      24.330   2.260  51.928  1.00  0.00     0.080 C 
HETATM    3  C5  UNL     1      23.427   2.826  50.931  1.00  0.00     0.074 C 
HETATM    4  C6  UNL     1      23.614   3.672  49.926  1.00  0.00     0.074 C 
HETATM    5  C10 UNL     1      24.829   4.367  49.436  1.00  0.00     0.074 C 
HETATM    6  C11 UNL     1      26.130   4.359  49.632  1.00  0.00     0.082 C 
HETATM    7  O5  UNL     1      26.806   3.523  50.529  1.00  0.00    -0.345 OA
HETATM    8  C18 UNL     1      26.697   2.226  51.031  1.00  0.00     0.221 C 
ENDROOT
BRANCH   6   9
HETATM    9  C12 UNL     1      26.999   5.254  48.901  1.00  0.00    -0.003 A 
HETATM   10  C13 UNL     1      28.307   5.078  48.543  1.00  0.00     0.014 A 
HETATM   11  C14 UNL     1      29.062   5.985  47.838  1.00  0.00     0.001 A 
HETATM   12  C15 UNL     1      28.504   7.180  47.437  1.00  0.00     0.000 A 
HETATM   13  C16 UNL     1      27.187   7.391  47.780  1.00  0.00     0.001 A 
HETATM   14  C17 UNL     1      26.490   6.450  48.482  1.00  0.00     0.014 A 
ENDBRANCH   6   9
BRANCH   4  15
HETATM   15  O3  UNL     1      22.504   3.982  49.186  1.00  0.00    -0.351 OA
BRANCH  15  16
HETATM   16  C7  UNL     1      22.407   4.430  47.894  1.00  0.00     0.182 C 
BRANCH  16  17
HETATM   17  C8  UNL     1      22.019   3.253  47.002  1.00  0.00     0.096 C 
BRANCH  17  18
HETATM   18  C9  UNL     1      21.921   3.666  45.581  1.00  0.00     0.233 C 
HETATM   19  O4  UNL     1      22.056   4.782  45.107  1.00  0.00    -0.307 OA
ENDBRANCH  17  18
ENDBRANCH  16  17
ENDBRANCH  15  16
ENDBRANCH   4  15
BRANCH   1  20
HETATM   20  C2  UNL     1      26.089   1.402  53.281  1.00  0.00     0.156 C 
HETATM   21  C1  UNL     1      26.365   0.026  53.670  1.00  0.00     0.096 C 
HETATM   22  O1  UNL     1      26.262   2.249  54.193  1.00  0.00    -0.293 OA
ENDBRANCH   1  20
BRANCH   2  23
HETATM   23  O2  UNL     1      23.608   1.903  53.076  1.00  0.00    -0.360 OA
HETATM   24  H4  UNL     1      23.944   1.159  53.638  1.00  0.00     0.217 HD
ENDBRANCH   2  23
TORSDOF 7
ENDMDL
