MODEL 1
REMARK VINA RESULT:      -8.4      0.000      0.000
REMARK  1 active torsions:
REMARK  status: ('A' for Active; 'I' for Inactive)
REMARK    1  A    between atoms: N1_9  and  C7_10 
ROOT
HETATM    1  C7  UNL     1      23.204   3.555  52.332  1.00  0.00     0.231 C 
HETATM    2  C8  UNL     1      24.531   3.373  51.686  1.00  0.00     0.024 C 
HETATM    3  C9  UNL     1      24.734   3.330  50.326  1.00  0.00    -0.078 C 
HETATM    4  C10 UNL     1      26.110   3.155  49.824  1.00  0.00     0.034 C 
HETATM    5  C11 UNL     1      26.811   4.057  48.938  1.00  0.00     0.010 A 
HETATM    6  C12 UNL     1      27.114   5.471  49.110  1.00  0.00     0.061 A 
HETATM    7  C13 UNL     1      26.008   6.431  48.977  1.00  0.00     0.059 A 
HETATM    8  O1  UNL     1      25.866   5.242  48.893  1.00  0.00     0.000 OA
HETATM    9  N2  UNL     1      25.092   7.511  48.882  1.00  0.00    -0.237 N 
HETATM   10  O2  UNL     1      23.740   7.730  48.685  1.00  0.00    -0.112 OA
HETATM   11  O3  UNL     1      22.991   6.870  48.707  1.00  0.00    -0.209 OA
HETATM   12  C14 UNL     1      22.143   5.898  48.731  1.00  0.00     0.191 C 
HETATM   13  C15 UNL     1      21.322   5.661  49.937  1.00  0.00     0.083 C 
HETATM   14  C16 UNL     1      21.967   5.454  51.258  1.00  0.00     0.089 C 
HETATM   15  N3  UNL     1      22.579   4.764  52.037  1.00  0.00    -0.276 NA
HETATM   16  C17 UNL     1      22.345   4.773  47.731  1.00  0.00     0.203 C 
HETATM   17  O4  UNL     1      21.887   3.515  47.982  1.00  0.00    -0.388 OA
HETATM   18  C18 UNL     1      22.994   2.652  48.425  1.00  0.00     0.172 C 
HETATM   19  C19 UNL     1      23.540   3.427  49.488  1.00  0.00     0.060 C 
HETATM   20  H15 UNL     1      26.027   7.920  49.039  1.00  0.00     0.197 HD
ENDROOT
BRANCH   1  21
HETATM   21  N1  UNL     1      22.393   2.411  52.536  1.00  0.00    -0.353 N 
HETATM   22  C2  UNL     1      22.637   1.068  52.926  1.00  0.00     0.030 A 
HETATM   23  C1  UNL     1      24.056   0.706  53.174  1.00  0.00     0.070 C 
HETATM   24  C3  UNL     1      21.681   0.166  53.075  1.00  0.00     0.094 A 
HETATM   25 CL1  UNL     1      22.162  -1.448  53.567  1.00  0.00    -0.079 Cl
HETATM   26  C4  UNL     1      20.280   0.476  52.836  1.00  0.00     0.137 A 
HETATM   27  F1  UNL     1      19.286  -0.417  52.976  1.00  0.00    -0.204 F 
HETATM   28  C5  UNL     1      20.117   1.732  52.469  1.00  0.00     0.037 A 
HETATM   29  C6  UNL     1      21.045   2.856  52.257  1.00  0.00     0.155 A 
ENDBRANCH   1  21
TORSDOF 1
ENDMDL
MODEL 2
REMARK VINA RESULT:      -8.2      2.989      4.274
REMARK  1 active torsions:
REMARK  status: ('A' for Active; 'I' for Inactive)
REMARK    1  A    between atoms: N1_9  and  C7_10 
ROOT
HETATM    1  C7  UNL     1      23.773   3.202  51.232  1.00  0.00     0.231 C 
HETATM    2  C8  UNL     1      23.703   3.159  49.747  1.00  0.00     0.024 C 
HETATM    3  C9  UNL     1      22.679   2.582  49.033  1.00  0.00    -0.078 C 
HETATM    4  C10 UNL     1      22.735   2.623  47.560  1.00  0.00     0.034 C 
HETATM    5  C11 UNL     1      21.738   3.204  46.689  1.00  0.00     0.010 A 
HETATM    6  C12 UNL     1      21.225   4.566  46.651  1.00  0.00     0.061 A 
HETATM    7  C13 UNL     1      20.319   4.988  47.729  1.00  0.00     0.059 A 
HETATM    8  O1  UNL     1      20.830   3.903  47.681  1.00  0.00     0.000 OA
HETATM    9  N2  UNL     1      19.433   5.585  48.664  1.00  0.00    -0.237 N 
HETATM   10  O2  UNL     1      18.793   5.280  49.852  1.00  0.00    -0.112 OA
HETATM   11  O3  UNL     1      19.055   4.338  50.441  1.00  0.00    -0.209 OA
HETATM   12  C14 UNL     1      19.350   3.274  51.107  1.00  0.00     0.191 C 
HETATM   13  C15 UNL     1      20.229   3.361  52.292  1.00  0.00     0.083 C 
HETATM   14  C16 UNL     1      21.582   3.963  52.184  1.00  0.00     0.089 C 
HETATM   15  N3  UNL     1      22.737   3.907  51.838  1.00  0.00    -0.276 NA
HETATM   16  C17 UNL     1      19.179   1.940  50.400  1.00  0.00     0.203 C 
HETATM   17  O4  UNL     1      19.913   0.851  50.761  1.00  0.00    -0.388 OA
HETATM   18  C18 UNL     1      21.020   0.647  49.812  1.00  0.00     0.172 C 
HETATM   19  C19 UNL     1      21.626   1.937  49.816  1.00  0.00     0.060 C 
HETATM   20  H15 UNL     1      19.600   6.281  47.919  1.00  0.00     0.197 HD
ENDROOT
BRANCH   1  21
HETATM   21  N1  UNL     1      24.314   2.083  51.912  1.00  0.00    -0.353 N 
HETATM   22  C2  UNL     1      25.597   1.480  51.986  1.00  0.00     0.030 A 
HETATM   23  C1  UNL     1      26.663   2.110  51.165  1.00  0.00     0.070 C 
HETATM   24  C3  UNL     1      25.865   0.423  52.733  1.00  0.00     0.094 A 
HETATM   25 CL1  UNL     1      27.509  -0.190  52.708  1.00  0.00    -0.079 Cl
HETATM   26  C4  UNL     1      24.850  -0.228  53.546  1.00  0.00     0.137 A 
HETATM   27  F1  UNL     1      25.088  -1.304  54.314  1.00  0.00    -0.204 F 
HETATM   28  C5  UNL     1      23.680   0.368  53.431  1.00  0.00     0.037 A 
HETATM   29  C6  UNL     1      23.206   1.533  52.663  1.00  0.00     0.155 A 
ENDBRANCH   1  21
TORSDOF 1
ENDMDL
MODEL 3
REMARK VINA RESULT:      -8.1      3.993      6.593
REMARK  1 active torsions:
REMARK  status: ('A' for Active; 'I' for Inactive)
REMARK    1  A    between atoms: N1_9  and  C7_10 
ROOT
HETATM    1  C7  UNL     1      24.908   3.511  49.294  1.00  0.00     0.231 C 
HETATM    2  C8  UNL     1      25.443   2.864  50.521  1.00  0.00     0.024 C 
HETATM    3  C9  UNL     1      24.860   2.953  51.764  1.00  0.00    -0.078 C 
HETATM    4  C10 UNL     1      25.496   2.248  52.893  1.00  0.00     0.034 C 
HETATM    5  C11 UNL     1      24.872   1.244  53.725  1.00  0.00     0.010 A 
HETATM    6  C12 UNL     1      24.270  -0.027  53.346  1.00  0.00     0.061 A 
HETATM    7  C13 UNL     1      22.968   0.008  52.663  1.00  0.00     0.059 A 
HETATM    8  O1  UNL     1      23.572   0.994  52.986  1.00  0.00     0.000 OA
HETATM    9  N2  UNL     1      21.722  -0.175  52.009  1.00  0.00    -0.237 N 
HETATM   10  O2  UNL     1      20.699   0.578  51.461  1.00  0.00    -0.112 OA
HETATM   11  O3  UNL     1      20.806   1.705  51.314  1.00  0.00    -0.209 OA
HETATM   12  C14 UNL     1      20.926   2.978  51.147  1.00  0.00     0.191 C 
HETATM   13  C15 UNL     1      21.242   3.524  49.811  1.00  0.00     0.083 C 
HETATM   14  C16 UNL     1      22.450   3.069  49.077  1.00  0.00     0.089 C 
HETATM   15  N3  UNL     1      23.645   3.068  48.911  1.00  0.00    -0.276 NA
HETATM   16  C17 UNL     1      21.200   3.818  52.383  1.00  0.00     0.203 C 
HETATM   17  O4  UNL     1      21.844   5.016  52.293  1.00  0.00    -0.388 OA
HETATM   18  C18 UNL     1      23.253   4.865  52.692  1.00  0.00     0.172 C 
HETATM   19  C19 UNL     1      23.660   3.783  51.860  1.00  0.00     0.060 C 
HETATM   20  H15 UNL     1      22.095  -1.115  52.217  1.00  0.00     0.197 HD
ENDROOT
BRANCH   1  21
HETATM   21  N1  UNL     1      25.252   4.862  49.042  1.00  0.00    -0.353 N 
HETATM   22  C2  UNL     1      26.461   5.552  48.757  1.00  0.00     0.030 A 
HETATM   23  C1  UNL     1      27.693   4.723  48.720  1.00  0.00     0.070 C 
HETATM   24  C3  UNL     1      26.522   6.852  48.529  1.00  0.00     0.094 A 
HETATM   25 CL1  UNL     1      28.100   7.540  48.188  1.00  0.00    -0.079 Cl
HETATM   26  C4  UNL     1      25.341   7.701  48.562  1.00  0.00     0.137 A 
HETATM   27  F1  UNL     1      25.370   9.025  48.337  1.00  0.00    -0.204 F 
HETATM   28  C5  UNL     1      24.254   7.009  48.839  1.00  0.00     0.037 A 
HETATM   29  C6  UNL     1      24.001   5.585  49.115  1.00  0.00     0.155 A 
ENDBRANCH   1  21
TORSDOF 1
ENDMDL
MODEL 4
REMARK VINA RESULT:      -7.9      1.753      2.192
REMARK  1 active torsions:
REMARK  status: ('A' for Active; 'I' for Inactive)
REMARK    1  A    between atoms: N1_9  and  C7_10 
ROOT
HETATM    1  C7  UNL     1      22.900   3.671  52.306  1.00  0.00     0.231 C 
HETATM    2  C8  UNL     1      23.988   4.286  51.499  1.00  0.00     0.024 C 
HETATM    3  C9  UNL     1      24.033   4.282  50.125  1.00  0.00    -0.078 C 
HETATM    4  C10 UNL     1      25.170   4.942  49.455  1.00  0.00     0.034 C 
HETATM    5  C11 UNL     1      25.080   6.021  48.497  1.00  0.00     0.010 A 
HETATM    6  C12 UNL     1      24.476   7.338  48.644  1.00  0.00     0.061 A 
HETATM    7  C13 UNL     1      23.007   7.421  48.658  1.00  0.00     0.059 A 
HETATM    8  O1  UNL     1      23.611   6.386  48.581  1.00  0.00     0.000 OA
HETATM    9  N2  UNL     1      21.619   7.717  48.686  1.00  0.00    -0.237 N 
HETATM   10  O2  UNL     1      20.402   7.060  48.660  1.00  0.00    -0.112 OA
HETATM   11  O3  UNL     1      20.339   5.926  48.766  1.00  0.00    -0.209 OA
HETATM   12  C14 UNL     1      20.266   4.643  48.886  1.00  0.00     0.191 C 
HETATM   13  C15 UNL     1      19.890   4.040  50.182  1.00  0.00     0.083 C 
HETATM   14  C16 UNL     1      20.660   4.356  51.411  1.00  0.00     0.089 C 
HETATM   15  N3  UNL     1      21.642   4.232  52.102  1.00  0.00    -0.276 NA
HETATM   16  C17 UNL     1      21.006   3.806  47.858  1.00  0.00     0.203 C 
HETATM   17  O4  UNL     1      21.438   2.547  48.153  1.00  0.00    -0.388 OA
HETATM   18  C18 UNL     1      22.881   2.562  48.447  1.00  0.00     0.172 C 
HETATM   19  C19 UNL     1      22.947   3.580  49.441  1.00  0.00     0.060 C 
HETATM   20  H15 UNL     1      22.122   8.618  48.731  1.00  0.00     0.197 HD
ENDROOT
BRANCH   1  21
HETATM   21  N1  UNL     1      22.980   2.287  52.598  1.00  0.00    -0.353 N 
HETATM   22  C2  UNL     1      24.000   1.421  53.074  1.00  0.00     0.030 A 
HETATM   23  C1  UNL     1      25.324   2.046  53.325  1.00  0.00     0.070 C 
HETATM   24  C3  UNL     1      23.817   0.131  53.297  1.00  0.00     0.094 A 
HETATM   25 CL1  UNL     1      25.188  -0.790  53.889  1.00  0.00    -0.079 Cl
HETATM   26  C4  UNL     1      22.539  -0.523  53.058  1.00  0.00     0.137 A 
HETATM   27  F1  UNL     1      22.321  -1.831  53.272  1.00  0.00    -0.204 F 
HETATM   28  C5  UNL     1      21.637   0.327  52.610  1.00  0.00     0.037 A 
HETATM   29  C6  UNL     1      21.661   1.769  52.310  1.00  0.00     0.155 A 
ENDBRANCH   1  21
TORSDOF 1
ENDMDL
MODEL 5
REMARK VINA RESULT:      -7.9      3.877      6.625
REMARK  1 active torsions:
REMARK  status: ('A' for Active; 'I' for Inactive)
REMARK    1  A    between atoms: N1_9  and  C7_10 
ROOT
HETATM    1  C7  UNL     1      23.376   4.877  51.063  1.00  0.00     0.231 C 
HETATM    2  C8  UNL     1      22.137   5.466  50.489  1.00  0.00     0.024 C 
HETATM    3  C9  UNL     1      21.345   4.846  49.551  1.00  0.00    -0.078 C 
HETATM    4  C10 UNL     1      20.135   5.545  49.077  1.00  0.00     0.034 C 
HETATM    5  C11 UNL     1      18.781   5.045  49.157  1.00  0.00     0.010 A 
HETATM    6  C12 UNL     1      18.016   4.630  50.325  1.00  0.00     0.061 A 
HETATM    7  C13 UNL     1      18.371   3.352  50.959  1.00  0.00     0.059 A 
HETATM    8  O1  UNL     1      18.958   3.809  50.017  1.00  0.00     0.000 OA
HETATM    9  N2  UNL     1      18.548   2.159  51.707  1.00  0.00    -0.237 N 
HETATM   10  O2  UNL     1      19.382   1.056  51.748  1.00  0.00    -0.112 OA
HETATM   11  O3  UNL     1      20.338   1.012  51.126  1.00  0.00    -0.209 OA
HETATM   12  C14 UNL     1      21.417   0.961  50.422  1.00  0.00     0.191 C 
HETATM   13  C15 UNL     1      22.726   1.232  51.052  1.00  0.00     0.083 C 
HETATM   14  C16 UNL     1      22.966   2.507  51.773  1.00  0.00     0.089 C 
HETATM   15  N3  UNL     1      23.179   3.695  51.773  1.00  0.00    -0.276 NA
HETATM   16  C17 UNL     1      21.272   1.089  48.915  1.00  0.00     0.203 C 
HETATM   17  O4  UNL     1      22.292   1.565  48.146  1.00  0.00    -0.388 OA
HETATM   18  C18 UNL     1      22.042   2.972  47.790  1.00  0.00     0.172 C 
HETATM   19  C19 UNL     1      21.803   3.543  49.073  1.00  0.00     0.060 C 
HETATM   20  H15 UNL     1      17.736   2.652  52.112  1.00  0.00     0.197 HD
ENDROOT
BRANCH   1  21
HETATM   21  N1  UNL     1      24.590   5.039  50.350  1.00  0.00    -0.353 N 
HETATM   22  C2  UNL     1      25.344   6.154  49.898  1.00  0.00     0.030 A 
HETATM   23  C1  UNL     1      24.772   7.493  50.190  1.00  0.00     0.070 C 
HETATM   24  C3  UNL     1      26.495   6.045  49.255  1.00  0.00     0.094 A 
HETATM   25 CL1  UNL     1      27.296   7.529  48.772  1.00  0.00    -0.079 Cl
HETATM   26  C4  UNL     1      27.087   4.753  48.943  1.00  0.00     0.137 A 
HETATM   27  F1  UNL     1      28.252   4.608  48.290  1.00  0.00    -0.204 F 
HETATM   28  C5  UNL     1      26.340   3.759  49.379  1.00  0.00     0.037 A 
HETATM   29  C6  UNL     1      25.057   3.693  50.100  1.00  0.00     0.155 A 
ENDBRANCH   1  21
TORSDOF 1
ENDMDL
MODEL 6
REMARK VINA RESULT:      -7.8      4.110      6.416
REMARK  1 active torsions:
REMARK  status: ('A' for Active; 'I' for Inactive)
REMARK    1  A    between atoms: N1_9  and  C7_10 
ROOT
HETATM    1  C7  UNL     1      22.656   2.497  48.781  1.00  0.00     0.231 C 
HETATM    2  C8  UNL     1      23.689   2.830  49.798  1.00  0.00     0.024 C 
HETATM    3  C9  UNL     1      23.422   3.087  51.122  1.00  0.00    -0.078 C 
HETATM    4  C10 UNL     1      24.549   3.393  52.022  1.00  0.00     0.034 C 
HETATM    5  C11 UNL     1      24.899   2.666  53.222  1.00  0.00     0.010 A 
HETATM    6  C12 UNL     1      25.224   1.256  53.386  1.00  0.00     0.061 A 
HETATM    7  C13 UNL     1      24.126   0.283  53.289  1.00  0.00     0.059 A 
HETATM    8  O1  UNL     1      23.979   1.464  53.133  1.00  0.00     0.000 OA
HETATM    9  N2  UNL     1      23.218  -0.807  53.240  1.00  0.00    -0.237 N 
HETATM   10  O2  UNL     1      21.876  -1.050  53.004  1.00  0.00    -0.112 OA
HETATM   11  O3  UNL     1      21.189  -0.234  52.597  1.00  0.00    -0.209 OA
HETATM   12  C14 UNL     1      20.412   0.687  52.138  1.00  0.00     0.191 C 
HETATM   13  C15 UNL     1      20.049   0.704  50.705  1.00  0.00     0.083 C 
HETATM   14  C16 UNL     1      21.105   0.734  49.661  1.00  0.00     0.089 C 
HETATM   15  N3  UNL     1      21.953   1.322  49.035  1.00  0.00    -0.276 NA
HETATM   16  C17 UNL     1      20.279   1.958  52.958  1.00  0.00     0.203 C 
HETATM   17  O4  UNL     1      19.948   3.144  52.373  1.00  0.00    -0.388 OA
HETATM   18  C18 UNL     1      21.151   3.974  52.198  1.00  0.00     0.172 C 
HETATM   19  C19 UNL     1      22.013   3.069  51.515  1.00  0.00     0.060 C 
HETATM   20  H15 UNL     1      24.145  -1.197  53.471  1.00  0.00     0.197 HD
ENDROOT
BRANCH   1  21
HETATM   21  N1  UNL     1      21.976   3.562  48.140  1.00  0.00    -0.353 N 
HETATM   22  C2  UNL     1      22.282   4.920  47.858  1.00  0.00     0.030 A 
HETATM   23  C1  UNL     1      23.601   5.406  48.338  1.00  0.00     0.070 C 
HETATM   24  C3  UNL     1      21.468   5.731  47.204  1.00  0.00     0.094 A 
HETATM   25 CL1  UNL     1      22.009   7.379  46.939  1.00  0.00    -0.079 Cl
HETATM   26  C4  UNL     1      20.166   5.298  46.721  1.00  0.00     0.137 A 
HETATM   27  F1  UNL     1      19.315   6.097  46.057  1.00  0.00    -0.204 F 
HETATM   28  C5  UNL     1      19.934   4.035  47.020  1.00  0.00     0.037 A 
HETATM   29  C6  UNL     1      20.709   3.000  47.726  1.00  0.00     0.155 A 
ENDBRANCH   1  21
TORSDOF 1
ENDMDL
MODEL 7
REMARK VINA RESULT:      -7.8      4.186      6.915
REMARK  1 active torsions:
REMARK  status: ('A' for Active; 'I' for Inactive)
REMARK    1  A    between atoms: N1_9  and  C7_10 
ROOT
HETATM    1  C7  UNL     1      22.489   6.039  50.250  1.00  0.00     0.231 C 
HETATM    2  C8  UNL     1      22.182   5.030  49.201  1.00  0.00     0.024 C 
HETATM    3  C9  UNL     1      22.917   3.889  48.982  1.00  0.00    -0.078 C 
HETATM    4  C10 UNL     1      22.488   2.969  47.911  1.00  0.00     0.034 C 
HETATM    5  C11 UNL     1      22.149   1.573  48.077  1.00  0.00     0.010 A 
HETATM    6  C12 UNL     1      21.137   0.963  48.928  1.00  0.00     0.061 A 
HETATM    7  C13 UNL     1      21.391   0.924  50.376  1.00  0.00     0.059 A 
HETATM    8  O1  UNL     1      22.137   1.436  49.587  1.00  0.00     0.000 OA
HETATM    9  N2  UNL     1      21.447   0.780  51.787  1.00  0.00    -0.237 N 
HETATM   10  O2  UNL     1      22.267   1.119  52.849  1.00  0.00    -0.112 OA
HETATM   11  O3  UNL     1      23.144   1.836  52.715  1.00  0.00    -0.209 OA
HETATM   12  C14 UNL     1      24.136   2.647  52.564  1.00  0.00     0.191 C 
HETATM   13  C15 UNL     1      24.010   4.058  52.983  1.00  0.00     0.083 C 
HETATM   14  C16 UNL     1      22.918   4.909  52.446  1.00  0.00     0.089 C 
HETATM   15  N3  UNL     1      22.426   5.555  51.553  1.00  0.00    -0.276 NA
HETATM   16  C17 UNL     1      25.205   2.258  51.557  1.00  0.00     0.203 C 
HETATM   17  O4  UNL     1      25.971   3.202  50.941  1.00  0.00    -0.388 OA
HETATM   18  C18 UNL     1      25.476   3.442  49.575  1.00  0.00     0.172 C 
HETATM   19  C19 UNL     1      24.099   3.706  49.824  1.00  0.00     0.060 C 
HETATM   20  H15 UNL     1      20.579   0.319  51.470  1.00  0.00     0.197 HD
ENDROOT
BRANCH   1  21
HETATM   21  N1  UNL     1      23.436   7.050  49.953  1.00  0.00    -0.353 N 
HETATM   22  C2  UNL     1      23.459   8.181  49.094  1.00  0.00     0.030 A 
HETATM   23  C1  UNL     1      22.242   8.401  48.272  1.00  0.00     0.070 C 
HETATM   24  C3  UNL     1      24.482   9.013  49.009  1.00  0.00     0.094 A 
HETATM   25 CL1  UNL     1      24.338  10.363  47.897  1.00  0.00    -0.079 Cl
HETATM   26  C4  UNL     1      25.695   8.831  49.792  1.00  0.00     0.137 A 
HETATM   27  F1  UNL     1      26.753   9.656  49.727  1.00  0.00    -0.204 F 
HETATM   28  C5  UNL     1      25.620   7.763  50.561  1.00  0.00     0.037 A 
HETATM   29  C6  UNL     1      24.581   6.743  50.782  1.00  0.00     0.155 A 
ENDBRANCH   1  21
TORSDOF 1
ENDMDL
MODEL 8
REMARK VINA RESULT:      -7.7      9.809     11.815
REMARK  1 active torsions:
REMARK  status: ('A' for Active; 'I' for Inactive)
REMARK    1  A    between atoms: N1_9  and  C7_10 
ROOT
HETATM    1  C7  UNL     1      30.163   8.215  46.786  1.00  0.00     0.231 C 
HETATM    2  C8  UNL     1      30.982   7.958  45.570  1.00  0.00     0.024 C 
HETATM    3  C9  UNL     1      32.323   7.654  45.587  1.00  0.00    -0.078 C 
HETATM    4  C10 UNL     1      33.007   7.412  44.302  1.00  0.00     0.034 C 
HETATM    5  C11 UNL     1      33.714   6.206  43.932  1.00  0.00     0.010 A 
HETATM    6  C12 UNL     1      33.230   4.834  43.869  1.00  0.00     0.061 A 
HETATM    7  C13 UNL     1      32.992   4.132  45.138  1.00  0.00     0.059 A 
HETATM    8  O1  UNL     1      33.353   5.275  45.072  1.00  0.00     0.000 OA
HETATM    9  N2  UNL     1      32.710   3.282  46.240  1.00  0.00    -0.237 N 
HETATM   10  O2  UNL     1      32.690   3.322  47.623  1.00  0.00    -0.112 OA
HETATM   11  O3  UNL     1      32.797   4.308  48.189  1.00  0.00    -0.209 OA
HETATM   12  C14 UNL     1      32.919   5.421  48.829  1.00  0.00     0.191 C 
HETATM   13  C15 UNL     1      31.726   6.091  49.385  1.00  0.00     0.083 C 
HETATM   14  C16 UNL     1      30.580   6.440  48.507  1.00  0.00     0.089 C 
HETATM   15  N3  UNL     1      30.074   7.135  47.660  1.00  0.00    -0.276 NA
HETATM   16  C17 UNL     1      34.185   6.226  48.590  1.00  0.00     0.203 C 
HETATM   17  O4  UNL     1      34.205   7.577  48.763  1.00  0.00    -0.388 OA
HETATM   18  C18 UNL     1      34.122   8.256  47.459  1.00  0.00     0.172 C 
HETATM   19  C19 UNL     1      32.968   7.635  46.899  1.00  0.00     0.060 C 
HETATM   20  H15 UNL     1      32.563   2.725  45.383  1.00  0.00     0.197 HD
ENDROOT
BRANCH   1  21
HETATM   21  N1  UNL     1      30.159   9.523  47.329  1.00  0.00    -0.353 N 
HETATM   22  C2  UNL     1      29.762  10.803  46.857  1.00  0.00     0.030 A 
HETATM   23  C1  UNL     1      29.236  10.853  45.469  1.00  0.00     0.070 C 
HETATM   24  C3  UNL     1      29.836  11.904  47.585  1.00  0.00     0.094 A 
HETATM   25 CL1  UNL     1      29.296  13.401  46.844  1.00  0.00    -0.079 Cl
HETATM   26  C4  UNL     1      30.350  11.900  48.946  1.00  0.00     0.137 A 
HETATM   27  F1  UNL     1      30.441  13.001  49.710  1.00  0.00    -0.204 F 
HETATM   28  C5  UNL     1      30.711  10.690  49.324  1.00  0.00     0.037 A 
HETATM   29  C6  UNL     1      30.699   9.374  48.663  1.00  0.00     0.155 A 
ENDBRANCH   1  21
TORSDOF 1
ENDMDL
MODEL 9
REMARK VINA RESULT:      -7.7      2.078      4.076
REMARK  1 active torsions:
REMARK  status: ('A' for Active; 'I' for Inactive)
REMARK    1  A    between atoms: N1_9  and  C7_10 
ROOT
HETATM    1  C7  UNL     1      22.433   1.864  50.090  1.00  0.00     0.231 C 
HETATM    2  C8  UNL     1      21.196   2.682  49.973  1.00  0.00     0.024 C 
HETATM    3  C9  UNL     1      21.060   3.958  50.468  1.00  0.00    -0.078 C 
HETATM    4  C10 UNL     1      19.776   4.657  50.269  1.00  0.00     0.034 C 
HETATM    5  C11 UNL     1      19.596   5.925  49.596  1.00  0.00     0.010 A 
HETATM    6  C12 UNL     1      19.951   6.308  48.237  1.00  0.00     0.061 A 
HETATM    7  C13 UNL     1      21.375   6.512  47.931  1.00  0.00     0.059 A 
HETATM    8  O1  UNL     1      20.973   6.159  49.006  1.00  0.00     0.000 OA
HETATM    9  N2  UNL     1      22.682   6.764  47.437  1.00  0.00    -0.237 N 
HETATM   10  O2  UNL     1      23.996   6.725  47.867  1.00  0.00    -0.112 OA
HETATM   11  O3  UNL     1      24.279   6.254  48.867  1.00  0.00    -0.209 OA
HETATM   12  C14 UNL     1      24.599   5.721  49.997  1.00  0.00     0.191 C 
HETATM   13  C15 UNL     1      25.169   4.358  50.040  1.00  0.00     0.083 C 
HETATM   14  C16 UNL     1      24.439   3.217  49.432  1.00  0.00     0.089 C 
HETATM   15  N3  UNL     1      23.546   2.405  49.452  1.00  0.00    -0.276 NA
HETATM   16  C17 UNL     1      23.961   6.304  51.247  1.00  0.00     0.203 C 
HETATM   17  O4  UNL     1      23.794   5.551  52.370  1.00  0.00    -0.388 OA
HETATM   18  C18 UNL     1      22.398   5.096  52.472  1.00  0.00     0.172 C 
HETATM   19  C19 UNL     1      22.209   4.500  51.192  1.00  0.00     0.060 C 
HETATM   20  H15 UNL     1      22.023   6.959  46.666  1.00  0.00     0.197 HD
ENDROOT
BRANCH   1  21
HETATM   21  N1  UNL     1      22.634   1.116  51.277  1.00  0.00    -0.353 N 
HETATM   22  C2  UNL     1      21.822   0.270  52.078  1.00  0.00     0.030 A 
HETATM   23  C1  UNL     1      20.415   0.102  51.632  1.00  0.00     0.070 C 
HETATM   24  C3  UNL     1      22.260  -0.352  53.159  1.00  0.00     0.094 A 
HETATM   25 CL1  UNL     1      21.120  -1.365  54.028  1.00  0.00    -0.079 Cl
HETATM   26  C4  UNL     1      23.628  -0.210  53.633  1.00  0.00     0.137 A 
HETATM   27  F1  UNL     1      24.104  -0.826  54.728  1.00  0.00    -0.204 F 
HETATM   28  C5  UNL     1      24.330   0.592  52.858  1.00  0.00     0.037 A 
HETATM   29  C6  UNL     1      24.015   1.355  51.638  1.00  0.00     0.155 A 
ENDBRANCH   1  21
TORSDOF 1
ENDMDL
