MODEL 1
REMARK VINA RESULT:      -8.5      0.000      0.000
REMARK  4 active torsions:
REMARK  status: ('A' for Active; 'I' for Inactive)
REMARK       I    between atoms: C1_2  and  N1_3 
REMARK       I    between atoms: C1_2  and  N3_12 
REMARK    1  A    between atoms: N1_3  and  C2_4 
REMARK    2  A    between atoms: C2_4  and  C3_5 
REMARK    3  A    between atoms: C3_5  and  N2_6 
REMARK    4  A    between atoms: N3_12  and  C8_13 
ROOT
HETATM    1  C8  UNL     1      21.919   1.315  50.675  1.00  0.00     0.037 A 
HETATM    2  C9  UNL     1      21.634   0.358  51.684  1.00  0.00     0.032 A 
HETATM    3  C10 UNL     1      22.422  -0.165  52.738  1.00  0.00     0.034 A 
HETATM    4  C11 UNL     1      23.702   0.427  52.708  1.00  0.00     0.065 A 
HETATM    5  C12 UNL     1      24.112   1.405  51.741  1.00  0.00    -0.009 A 
HETATM    6  C13 UNL     1      23.190   1.729  50.850  1.00  0.00     0.040 A 
HETATM    7  C14 UNL     1      25.503   1.765  52.122  1.00  0.00     0.051 A 
HETATM    8  C15 UNL     1      26.190   0.830  51.440  1.00  0.00    -0.004 A 
HETATM    9  C16 UNL     1      27.175   0.487  52.361  1.00  0.00     0.023 A 
HETATM   10  C17 UNL     1      27.057   1.198  53.555  1.00  0.00     0.020 A 
HETATM   11  C18 UNL     1      26.021   2.046  53.493  1.00  0.00     0.095 A 
HETATM   12  C19 UNL     1      24.956   2.711  53.037  1.00  0.00    -0.004 A 
HETATM   13 BR1  UNL     1      23.574   3.935  53.026  1.00  0.00    -0.058 Br
HETATM   14  N4  UNL     1      27.753   0.994  54.749  1.00  0.00    -0.358 N 
HETATM   15  C20 UNL     1      26.668   0.201  55.371  1.00  0.00     0.308 C 
HETATM   16  N5  UNL     1      25.636  -0.623  55.198  1.00  0.00    -0.263 NA
HETATM   17  C21 UNL     1      25.355  -0.982  53.783  1.00  0.00     0.174 C 
HETATM   18  N6  UNL     1      24.525  -0.043  53.729  1.00  0.00    -0.250 NA
HETATM   19  H21 UNL     1      28.491   1.028  55.463  1.00  0.00     0.166 HD
ENDROOT
BRANCH   1  20
HETATM   20  N3  UNL     1      20.905   1.645  49.796  1.00  0.00    -0.309 N 
HETATM   21  C1  UNL     1      20.124   2.694  50.308  1.00  0.00     0.320 C 
HETATM   22  O1  UNL     1      20.473   3.125  51.465  1.00  0.00    -0.247 OA
HETATM   23  N1  UNL     1      19.013   3.373  49.765  1.00  0.00    -0.341 N 
HETATM   24  H1  UNL     1      18.757   2.937  48.822  1.00  0.00     0.164 HD
HETATM   25  H14 UNL     1      20.585   1.316  48.863  1.00  0.00     0.170 HD
BRANCH  23  26
HETATM   26  C2  UNL     1      18.200   4.480  50.216  1.00  0.00     0.143 C 
BRANCH  26  27
HETATM   27  C3  UNL     1      16.770   4.048  49.951  1.00  0.00     0.136 C 
BRANCH  27  28
HETATM   28  N2  UNL     1      16.044   3.596  51.069  1.00  0.00    -0.407 N 
HETATM   29  C4  UNL     1      16.094   4.323  52.269  1.00  0.00     0.143 C 
HETATM   30  C5  UNL     1      14.934   3.996  53.179  1.00  0.00     0.187 C 
HETATM   31  O2  UNL     1      14.110   2.995  52.681  1.00  0.00    -0.388 OA
HETATM   32  C6  UNL     1      14.968   1.916  52.392  1.00  0.00     0.187 C 
HETATM   33  C7  UNL     1      15.632   2.243  51.085  1.00  0.00     0.143 C 
ENDBRANCH  27  28
ENDBRANCH  26  27
ENDBRANCH  23  26
ENDBRANCH   1  20
TORSDOF 4
ENDMDL
MODEL 2
REMARK VINA RESULT:      -8.5      2.341      3.799
REMARK  4 active torsions:
REMARK  status: ('A' for Active; 'I' for Inactive)
REMARK       I    between atoms: C1_2  and  N1_3 
REMARK       I    between atoms: C1_2  and  N3_12 
REMARK    1  A    between atoms: N1_3  and  C2_4 
REMARK    2  A    between atoms: C2_4  and  C3_5 
REMARK    3  A    between atoms: C3_5  and  N2_6 
REMARK    4  A    between atoms: N3_12  and  C8_13 
ROOT
HETATM    1  C8  UNL     1      22.088   1.520  50.607  1.00  0.00     0.037 A 
HETATM    2  C9  UNL     1      21.735   0.543  51.573  1.00  0.00     0.032 A 
HETATM    3  C10 UNL     1      22.465  -0.039  52.638  1.00  0.00     0.034 A 
HETATM    4  C11 UNL     1      23.764   0.510  52.673  1.00  0.00     0.065 A 
HETATM    5  C12 UNL     1      24.242   1.503  51.753  1.00  0.00    -0.009 A 
HETATM    6  C13 UNL     1      23.364   1.885  50.841  1.00  0.00     0.040 A 
HETATM    7  C14 UNL     1      25.629   1.804  52.195  1.00  0.00     0.051 A 
HETATM    8  C15 UNL     1      26.310   0.868  51.509  1.00  0.00    -0.004 A 
HETATM    9  C16 UNL     1      27.248   0.463  52.453  1.00  0.00     0.023 A 
HETATM   10  C17 UNL     1      27.109   1.140  53.665  1.00  0.00     0.020 A 
HETATM   11  C18 UNL     1      26.105   2.025  53.593  1.00  0.00     0.095 A 
HETATM   12  C19 UNL     1      25.080   2.740  53.120  1.00  0.00    -0.004 A 
HETATM   13 BR1  UNL     1      23.740   4.009  53.098  1.00  0.00    -0.058 Br
HETATM   14  N4  UNL     1      27.754   0.876  54.876  1.00  0.00    -0.358 N 
HETATM   15  C20 UNL     1      26.621   0.102  55.432  1.00  0.00     0.308 C 
HETATM   16  N5  UNL     1      25.570  -0.681  55.196  1.00  0.00    -0.263 NA
HETATM   17  C21 UNL     1      25.329  -0.987  53.762  1.00  0.00     0.174 C 
HETATM   18  N6  UNL     1      24.534  -0.019  53.707  1.00  0.00    -0.250 NA
HETATM   19  H21 UNL     1      28.465   0.863  55.616  1.00  0.00     0.166 HD
ENDROOT
BRANCH   1  20
HETATM   20  N3  UNL     1      21.119   1.912  49.703  1.00  0.00    -0.309 N 
HETATM   21  C1  UNL     1      20.498   3.100  50.122  1.00  0.00     0.320 C 
HETATM   22  O1  UNL     1      20.919   3.577  51.236  1.00  0.00    -0.247 OA
HETATM   23  N1  UNL     1      19.486   3.879  49.522  1.00  0.00    -0.341 N 
HETATM   24  H1  UNL     1      19.160   3.403  48.621  1.00  0.00     0.164 HD
HETATM   25  H14 UNL     1      20.744   1.552  48.803  1.00  0.00     0.170 HD
BRANCH  23  26
HETATM   26  C2  UNL     1      18.841   5.124  49.875  1.00  0.00     0.143 C 
BRANCH  26  27
HETATM   27  C3  UNL     1      19.492   6.167  48.987  1.00  0.00     0.136 C 
BRANCH  27  28
HETATM   28  N2  UNL     1      20.851   6.431  49.239  1.00  0.00    -0.407 N 
HETATM   29  C4  UNL     1      21.217   7.145  50.392  1.00  0.00     0.143 C 
HETATM   30  C5  UNL     1      22.667   6.932  50.755  1.00  0.00     0.187 C 
HETATM   31  O2  UNL     1      23.354   6.147  49.838  1.00  0.00    -0.388 OA
HETATM   32  C6  UNL     1      23.131   6.755  48.588  1.00  0.00     0.187 C 
HETATM   33  C7  UNL     1      21.753   6.341  48.155  1.00  0.00     0.143 C 
ENDBRANCH  27  28
ENDBRANCH  26  27
ENDBRANCH  23  26
ENDBRANCH   1  20
TORSDOF 4
ENDMDL
MODEL 3
REMARK VINA RESULT:      -8.4      5.335      9.729
REMARK  4 active torsions:
REMARK  status: ('A' for Active; 'I' for Inactive)
REMARK       I    between atoms: C1_2  and  N1_3 
REMARK       I    between atoms: C1_2  and  N3_12 
REMARK    1  A    between atoms: N1_3  and  C2_4 
REMARK    2  A    between atoms: C2_4  and  C3_5 
REMARK    3  A    between atoms: C3_5  and  N2_6 
REMARK    4  A    between atoms: N3_12  and  C8_13 
ROOT
HETATM    1  C8  UNL     1      24.748   3.522  50.962  1.00  0.00     0.037 A 
HETATM    2  C9  UNL     1      23.910   4.495  51.567  1.00  0.00     0.032 A 
HETATM    3  C10 UNL     1      22.515   4.517  51.814  1.00  0.00     0.034 A 
HETATM    4  C11 UNL     1      21.935   3.319  51.347  1.00  0.00     0.065 A 
HETATM    5  C12 UNL     1      22.673   2.261  50.718  1.00  0.00    -0.009 A 
HETATM    6  C13 UNL     1      23.971   2.482  50.598  1.00  0.00     0.040 A 
HETATM    7  C14 UNL     1      21.668   1.202  50.436  1.00  0.00     0.051 A 
HETATM    8  C15 UNL     1      21.236   1.596  49.224  1.00  0.00    -0.004 A 
HETATM    9  C16 UNL     1      19.869   1.358  49.329  1.00  0.00     0.023 A 
HETATM   10  C17 UNL     1      19.513   0.848  50.577  1.00  0.00     0.020 A 
HETATM   11  C18 UNL     1      20.598   0.706  51.351  1.00  0.00     0.095 A 
HETATM   12  C19 UNL     1      21.868   0.727  51.765  1.00  0.00    -0.004 A 
HETATM   13 BR1  UNL     1      23.310   0.462  52.885  1.00  0.00    -0.058 Br
HETATM   14  N4  UNL     1      18.228   0.656  51.092  1.00  0.00    -0.358 N 
HETATM   15  C20 UNL     1      18.230   1.924  51.857  1.00  0.00     0.308 C 
HETATM   16  N5  UNL     1      18.672   3.176  51.958  1.00  0.00    -0.263 NA
HETATM   17  C21 UNL     1      19.578   3.608  50.861  1.00  0.00     0.174 C 
HETATM   18  N6  UNL     1      20.560   3.277  51.568  1.00  0.00    -0.250 NA
HETATM   19  H21 UNL     1      17.313   0.235  51.292  1.00  0.00     0.166 HD
ENDROOT
BRANCH   1  20
HETATM   20  N3  UNL     1      26.102   3.788  50.900  1.00  0.00    -0.309 N 
HETATM   21  C1  UNL     1      26.406   4.573  49.776  1.00  0.00     0.320 C 
HETATM   22  O1  UNL     1      25.407   4.875  49.030  1.00  0.00    -0.247 OA
HETATM   23  N1  UNL     1      27.631   5.104  49.320  1.00  0.00    -0.341 N 
HETATM   24  H1  UNL     1      28.420   4.782  49.966  1.00  0.00     0.164 HD
HETATM   25  H14 UNL     1      26.939   3.555  51.472  1.00  0.00     0.170 HD
BRANCH  23  26
HETATM   26  C2  UNL     1      28.001   5.950  48.207  1.00  0.00     0.143 C 
BRANCH  26  27
HETATM   27  C3  UNL     1      29.512   5.846  48.123  1.00  0.00     0.136 C 
BRANCH  27  28
HETATM   28  N2  UNL     1      30.232   6.983  48.535  1.00  0.00    -0.407 N 
HETATM   29  C4  UNL     1      31.511   6.830  49.094  1.00  0.00     0.143 C 
HETATM   30  C5  UNL     1      32.312   8.108  49.035  1.00  0.00     0.187 C 
HETATM   31  O2  UNL     1      31.599   9.182  48.519  1.00  0.00    -0.388 OA
HETATM   32  C6  UNL     1      30.420   9.248  49.286  1.00  0.00     0.187 C 
HETATM   33  C7  UNL     1      29.509   8.178  48.755  1.00  0.00     0.143 C 
ENDBRANCH  27  28
ENDBRANCH  26  27
ENDBRANCH  23  26
ENDBRANCH   1  20
TORSDOF 4
ENDMDL
MODEL 4
REMARK VINA RESULT:      -8.3      7.202      9.978
REMARK  4 active torsions:
REMARK  status: ('A' for Active; 'I' for Inactive)
REMARK       I    between atoms: C1_2  and  N1_3 
REMARK       I    between atoms: C1_2  and  N3_12 
REMARK    1  A    between atoms: N1_3  and  C2_4 
REMARK    2  A    between atoms: C2_4  and  C3_5 
REMARK    3  A    between atoms: C3_5  and  N2_6 
REMARK    4  A    between atoms: N3_12  and  C8_13 
ROOT
HETATM    1  C8  UNL     1      25.380   6.220  49.567  1.00  0.00     0.037 A 
HETATM    2  C9  UNL     1      25.650   7.331  50.408  1.00  0.00     0.032 A 
HETATM    3  C10 UNL     1      26.563   8.407  50.287  1.00  0.00     0.034 A 
HETATM    4  C11 UNL     1      27.291   8.274  49.086  1.00  0.00     0.065 A 
HETATM    5  C12 UNL     1      27.112   7.199  48.154  1.00  0.00    -0.009 A 
HETATM    6  C13 UNL     1      26.195   6.310  48.496  1.00  0.00     0.040 A 
HETATM    7  C14 UNL     1      28.050   7.495  47.038  1.00  0.00     0.051 A 
HETATM    8  C15 UNL     1      29.164   6.890  47.493  1.00  0.00    -0.004 A 
HETATM    9  C16 UNL     1      30.143   7.809  47.128  1.00  0.00     0.023 A 
HETATM   10  C17 UNL     1      29.610   8.927  46.486  1.00  0.00     0.020 A 
HETATM   11  C18 UNL     1      28.279   8.812  46.375  1.00  0.00     0.095 A 
HETATM   12  C19 UNL     1      27.039   8.325  46.473  1.00  0.00    -0.004 A 
HETATM   13 BR1  UNL     1      25.211   8.233  46.242  1.00  0.00    -0.058 Br
HETATM   14  N4  UNL     1      30.264  10.112  46.140  1.00  0.00    -0.358 N 
HETATM   15  C20 UNL     1      29.791  10.847  47.335  1.00  0.00     0.308 C 
HETATM   16  N5  UNL     1      29.404  10.794  48.608  1.00  0.00    -0.263 NA
HETATM   17  C21 UNL     1      29.416   9.434  49.207  1.00  0.00     0.174 C 
HETATM   18  N6  UNL     1      28.205   9.310  48.906  1.00  0.00    -0.250 NA
HETATM   19  H21 UNL     1      30.834  10.794  45.625  1.00  0.00     0.166 HD
ENDROOT
BRANCH   1  20
HETATM   20  N3  UNL     1      24.383   5.345  49.953  1.00  0.00    -0.309 N 
HETATM   21  C1  UNL     1      24.932   4.160  50.468  1.00  0.00     0.320 C 
HETATM   22  O1  UNL     1      26.214   4.102  50.468  1.00  0.00    -0.247 OA
HETATM   23  N1  UNL     1      24.316   3.007  51.001  1.00  0.00    -0.341 N 
HETATM   24  H1  UNL     1      23.253   3.110  50.933  1.00  0.00     0.164 HD
HETATM   25  H14 UNL     1      23.344   5.349  49.959  1.00  0.00     0.170 HD
BRANCH  23  26
HETATM   26  C2  UNL     1      24.820   1.783  51.583  1.00  0.00     0.143 C 
BRANCH  26  27
HETATM   27  C3  UNL     1      25.134   2.137  53.024  1.00  0.00     0.136 C 
BRANCH  27  28
HETATM   28  N2  UNL     1      26.380   1.697  53.510  1.00  0.00    -0.407 N 
HETATM   29  C4  UNL     1      27.557   2.074  52.843  1.00  0.00     0.143 C 
HETATM   30  C5  UNL     1      28.776   1.936  53.724  1.00  0.00     0.187 C 
HETATM   31  O2  UNL     1      28.495   1.394  54.971  1.00  0.00    -0.388 OA
HETATM   32  C6  UNL     1      27.806   0.194  54.708  1.00  0.00     0.187 C 
HETATM   33  C7  UNL     1      26.392   0.582  54.379  1.00  0.00     0.143 C 
ENDBRANCH  27  28
ENDBRANCH  26  27
ENDBRANCH  23  26
ENDBRANCH   1  20
TORSDOF 4
ENDMDL
MODEL 5
REMARK VINA RESULT:      -8.2      4.413      8.998
REMARK  4 active torsions:
REMARK  status: ('A' for Active; 'I' for Inactive)
REMARK       I    between atoms: C1_2  and  N1_3 
REMARK       I    between atoms: C1_2  and  N3_12 
REMARK    1  A    between atoms: N1_3  and  C2_4 
REMARK    2  A    between atoms: C2_4  and  C3_5 
REMARK    3  A    between atoms: C3_5  and  N2_6 
REMARK    4  A    between atoms: N3_12  and  C8_13 
ROOT
HETATM    1  C8  UNL     1      22.760   2.570  51.284  1.00  0.00     0.037 A 
HETATM    2  C9  UNL     1      22.135   3.632  51.988  1.00  0.00     0.032 A 
HETATM    3  C10 UNL     1      22.085   5.026  51.744  1.00  0.00     0.034 A 
HETATM    4  C11 UNL     1      22.808   5.325  50.570  1.00  0.00     0.065 A 
HETATM    5  C12 UNL     1      23.483   4.343  49.771  1.00  0.00    -0.009 A 
HETATM    6  C13 UNL     1      23.384   3.100  50.213  1.00  0.00     0.040 A 
HETATM    7  C14 UNL     1      24.062   5.103  48.631  1.00  0.00     0.051 A 
HETATM    8  C15 UNL     1      25.248   5.461  49.158  1.00  0.00    -0.004 A 
HETATM    9  C16 UNL     1      25.373   6.765  48.690  1.00  0.00     0.023 A 
HETATM   10  C17 UNL     1      24.281   7.160  47.919  1.00  0.00     0.020 A 
HETATM   11  C18 UNL     1      23.394   6.160  47.818  1.00  0.00     0.095 A 
HETATM   12  C19 UNL     1      22.808   4.969  47.968  1.00  0.00    -0.004 A 
HETATM   13 BR1  UNL     1      21.551   3.636  47.743  1.00  0.00    -0.058 Br
HETATM   14  N4  UNL     1      23.986   8.438  47.436  1.00  0.00    -0.358 N 
HETATM   15  C20 UNL     1      23.043   8.751  48.534  1.00  0.00     0.308 C 
HETATM   16  N5  UNL     1      22.689   8.556  49.803  1.00  0.00    -0.263 NA
HETATM   17  C21 UNL     1      23.568   7.627  50.560  1.00  0.00     0.174 C 
HETATM   18  N6  UNL     1      22.791   6.685  50.271  1.00  0.00    -0.250 NA
HETATM   19  H21 UNL     1      23.984   9.279  46.846  1.00  0.00     0.166 HD
ENDROOT
BRANCH   1  20
HETATM   20  N3  UNL     1      22.590   1.287  51.768  1.00  0.00    -0.309 N 
HETATM   21  C1  UNL     1      23.694   0.896  52.542  1.00  0.00     0.320 C 
HETATM   22  O1  UNL     1      24.633   1.765  52.639  1.00  0.00    -0.247 OA
HETATM   23  N1  UNL     1      23.955  -0.297  53.249  1.00  0.00    -0.341 N 
HETATM   24  H1  UNL     1      23.151  -0.985  53.092  1.00  0.00     0.164 HD
HETATM   25  H14 UNL     1      21.856   0.553  51.704  1.00  0.00     0.170 HD
BRANCH  23  26
HETATM   26  C2  UNL     1      25.042  -0.741  54.093  1.00  0.00     0.143 C 
BRANCH  26  27
HETATM   27  C3  UNL     1      26.170  -1.076  53.135  1.00  0.00     0.136 C 
BRANCH  27  28
HETATM   28  N2  UNL     1      27.450  -0.625  53.508  1.00  0.00    -0.407 N 
HETATM   29  C4  UNL     1      28.554  -1.481  53.369  1.00  0.00     0.143 C 
HETATM   30  C5  UNL     1      29.860  -0.724  53.350  1.00  0.00     0.187 C 
HETATM   31  O2  UNL     1      29.707   0.642  53.554  1.00  0.00    -0.388 OA
HETATM   32  C6  UNL     1      28.962   0.759  54.743  1.00  0.00     0.187 C 
HETATM   33  C7  UNL     1      27.531   0.489  54.374  1.00  0.00     0.143 C 
ENDBRANCH  27  28
ENDBRANCH  26  27
ENDBRANCH  23  26
ENDBRANCH   1  20
TORSDOF 4
ENDMDL
MODEL 6
REMARK VINA RESULT:      -8.2      5.828      8.906
REMARK  4 active torsions:
REMARK  status: ('A' for Active; 'I' for Inactive)
REMARK       I    between atoms: C1_2  and  N1_3 
REMARK       I    between atoms: C1_2  and  N3_12 
REMARK    1  A    between atoms: N1_3  and  C2_4 
REMARK    2  A    between atoms: C2_4  and  C3_5 
REMARK    3  A    between atoms: C3_5  and  N2_6 
REMARK    4  A    between atoms: N3_12  and  C8_13 
ROOT
HETATM    1  C8  UNL     1      24.634   3.879  49.250  1.00  0.00     0.037 A 
HETATM    2  C9  UNL     1      26.050   3.804  49.322  1.00  0.00     0.032 A 
HETATM    3  C10 UNL     1      27.059   4.774  49.103  1.00  0.00     0.034 A 
HETATM    4  C11 UNL     1      26.462   6.005  48.760  1.00  0.00     0.065 A 
HETATM    5  C12 UNL     1      25.046   6.209  48.654  1.00  0.00    -0.009 A 
HETATM    6  C13 UNL     1      24.308   5.141  48.905  1.00  0.00     0.040 A 
HETATM    7  C14 UNL     1      24.887   7.649  48.316  1.00  0.00     0.051 A 
HETATM    8  C15 UNL     1      24.960   7.591  46.973  1.00  0.00    -0.004 A 
HETATM    9  C16 UNL     1      25.724   8.719  46.691  1.00  0.00     0.023 A 
HETATM   10  C17 UNL     1      26.097   9.410  47.844  1.00  0.00     0.020 A 
HETATM   11  C18 UNL     1      25.601   8.806  48.932  1.00  0.00     0.095 A 
HETATM   12  C19 UNL     1      24.954   7.933  49.711  1.00  0.00    -0.004 A 
HETATM   13 BR1  UNL     1      24.280   7.191  51.260  1.00  0.00    -0.058 Br
HETATM   14  N4  UNL     1      26.997  10.474  47.954  1.00  0.00    -0.358 N 
HETATM   15  C20 UNL     1      28.127   9.613  48.372  1.00  0.00     0.308 C 
HETATM   16  N5  UNL     1      28.707   8.416  48.321  1.00  0.00    -0.263 NA
HETATM   17  C21 UNL     1      27.987   7.407  47.501  1.00  0.00     0.174 C 
HETATM   18  N6  UNL     1      27.406   7.006  48.537  1.00  0.00    -0.250 NA
HETATM   19  H21 UNL     1      27.385  11.424  47.944  1.00  0.00     0.166 HD
ENDROOT
BRANCH   1  20
HETATM   20  N3  UNL     1      23.912   2.743  49.562  1.00  0.00    -0.309 N 
HETATM   21  C1  UNL     1      24.015   2.448  50.931  1.00  0.00     0.320 C 
HETATM   22  O1  UNL     1      24.748   3.250  51.613  1.00  0.00    -0.247 OA
HETATM   23  N1  UNL     1      23.439   1.417  51.703  1.00  0.00    -0.341 N 
HETATM   24  H1  UNL     1      22.875   0.769  51.065  1.00  0.00     0.164 HD
HETATM   25  H14 UNL     1      23.320   2.065  49.042  1.00  0.00     0.170 HD
BRANCH  23  26
HETATM   26  C2  UNL     1      23.468   1.087  53.110  1.00  0.00     0.143 C 
BRANCH  26  27
HETATM   27  C3  UNL     1      24.157  -0.263  53.181  1.00  0.00     0.136 C 
BRANCH  27  28
HETATM   28  N2  UNL     1      25.539  -0.236  53.447  1.00  0.00    -0.407 N 
HETATM   29  C4  UNL     1      26.111   0.903  54.036  1.00  0.00     0.143 C 
HETATM   30  C5  UNL     1      27.445   0.602  54.675  1.00  0.00     0.187 C 
HETATM   31  O2  UNL     1      27.866  -0.707  54.480  1.00  0.00    -0.388 OA
HETATM   32  C6  UNL     1      27.806  -0.913  53.088  1.00  0.00     0.187 C 
HETATM   33  C7  UNL     1      26.361  -1.157  52.757  1.00  0.00     0.143 C 
ENDBRANCH  27  28
ENDBRANCH  26  27
ENDBRANCH  23  26
ENDBRANCH   1  20
TORSDOF 4
ENDMDL
MODEL 7
REMARK VINA RESULT:      -8.1      5.706     10.016
REMARK  4 active torsions:
REMARK  status: ('A' for Active; 'I' for Inactive)
REMARK       I    between atoms: C1_2  and  N1_3 
REMARK       I    between atoms: C1_2  and  N3_12 
REMARK    1  A    between atoms: N1_3  and  C2_4 
REMARK    2  A    between atoms: C2_4  and  C3_5 
REMARK    3  A    between atoms: C3_5  and  N2_6 
REMARK    4  A    between atoms: N3_12  and  C8_13 
ROOT
HETATM    1  C8  UNL     1      24.621   6.354  50.602  1.00  0.00     0.037 A 
HETATM    2  C9  UNL     1      23.312   6.901  50.621  1.00  0.00     0.032 A 
HETATM    3  C10 UNL     1      22.043   6.321  50.376  1.00  0.00     0.034 A 
HETATM    4  C11 UNL     1      22.202   4.954  50.067  1.00  0.00     0.065 A 
HETATM    5  C12 UNL     1      23.470   4.284  50.015  1.00  0.00    -0.009 A 
HETATM    6  C13 UNL     1      24.515   5.048  50.282  1.00  0.00     0.040 A 
HETATM    7  C14 UNL     1      23.146   2.868  49.698  1.00  0.00     0.051 A 
HETATM    8  C15 UNL     1      23.139   2.918  48.353  1.00  0.00    -0.004 A 
HETATM    9  C16 UNL     1      22.049   2.105  48.054  1.00  0.00     0.023 A 
HETATM   10  C17 UNL     1      21.430   1.605  49.199  1.00  0.00     0.020 A 
HETATM   11  C18 UNL     1      22.067   2.031  50.299  1.00  0.00     0.095 A 
HETATM   12  C19 UNL     1      22.944   2.652  51.092  1.00  0.00    -0.004 A 
HETATM   13 BR1  UNL     1      23.781   3.160  52.657  1.00  0.00    -0.058 Br
HETATM   14  N4  UNL     1      20.223   0.907  49.288  1.00  0.00    -0.358 N 
HETATM   15  C20 UNL     1      19.435   2.105  49.655  1.00  0.00     0.308 C 
HETATM   16  N5  UNL     1      19.292   3.427  49.571  1.00  0.00    -0.263 NA
HETATM   17  C21 UNL     1      20.335   4.117  48.767  1.00  0.00     0.174 C 
HETATM   18  N6  UNL     1      20.984   4.323  49.820  1.00  0.00    -0.250 NA
HETATM   19  H21 UNL     1      19.538   0.142  49.272  1.00  0.00     0.166 HD
ENDROOT
BRANCH   1  20
HETATM   20  N3  UNL     1      25.673   7.188  50.929  1.00  0.00    -0.309 N 
HETATM   21  C1  UNL     1      26.470   7.450  49.804  1.00  0.00     0.320 C 
HETATM   22  O1  UNL     1      26.098   6.872  48.720  1.00  0.00    -0.247 OA
HETATM   23  N1  UNL     1      27.620   8.254  49.648  1.00  0.00    -0.341 N 
HETATM   24  H1  UNL     1      27.892   8.670  50.595  1.00  0.00     0.164 HD
HETATM   25  H14 UNL     1      26.013   7.664  51.789  1.00  0.00     0.170 HD
BRANCH  23  26
HETATM   26  C2  UNL     1      28.453   8.598  48.517  1.00  0.00     0.143 C 
BRANCH  26  27
HETATM   27  C3  UNL     1      29.870   8.587  49.059  1.00  0.00     0.136 C 
BRANCH  27  28
HETATM   28  N2  UNL     1      30.617   7.420  48.810  1.00  0.00    -0.407 N 
HETATM   29  C4  UNL     1      32.009   7.435  48.989  1.00  0.00     0.143 C 
HETATM   30  C5  UNL     1      32.576   6.045  49.147  1.00  0.00     0.187 C 
HETATM   31  O2  UNL     1      31.625   5.043  49.003  1.00  0.00    -0.388 OA
HETATM   32  C6  UNL     1      31.000   5.300  47.768  1.00  0.00     0.187 C 
HETATM   33  C7  UNL     1      30.023   6.415  48.011  1.00  0.00     0.143 C 
ENDBRANCH  27  28
ENDBRANCH  26  27
ENDBRANCH  23  26
ENDBRANCH   1  20
TORSDOF 4
ENDMDL
MODEL 8
REMARK VINA RESULT:      -7.9      9.045     11.514
REMARK  4 active torsions:
REMARK  status: ('A' for Active; 'I' for Inactive)
REMARK       I    between atoms: C1_2  and  N1_3 
REMARK       I    between atoms: C1_2  and  N3_12 
REMARK    1  A    between atoms: N1_3  and  C2_4 
REMARK    2  A    between atoms: C2_4  and  C3_5 
REMARK    3  A    between atoms: C3_5  and  N2_6 
REMARK    4  A    between atoms: N3_12  and  C8_13 
ROOT
HETATM    1  C8  UNL     1      28.656   7.161  48.235  1.00  0.00     0.037 A 
HETATM    2  C9  UNL     1      28.385   7.537  46.894  1.00  0.00     0.032 A 
HETATM    3  C10 UNL     1      29.235   7.954  45.840  1.00  0.00     0.034 A 
HETATM    4  C11 UNL     1      30.571   7.969  46.291  1.00  0.00     0.065 A 
HETATM    5  C12 UNL     1      30.974   7.612  47.620  1.00  0.00    -0.009 A 
HETATM    6  C13 UNL     1      29.988   7.257  48.426  1.00  0.00     0.040 A 
HETATM    7  C14 UNL     1      32.456   7.734  47.621  1.00  0.00     0.051 A 
HETATM    8  C15 UNL     1      32.591   9.032  47.950  1.00  0.00    -0.004 A 
HETATM    9  C16 UNL     1      33.637   9.418  47.117  1.00  0.00     0.023 A 
HETATM   10  C17 UNL     1      34.093   8.372  46.316  1.00  0.00     0.020 A 
HETATM   11  C18 UNL     1      33.404   7.252  46.573  1.00  0.00     0.095 A 
HETATM   12  C19 UNL     1      32.518   6.406  47.107  1.00  0.00    -0.004 A 
HETATM   13 BR1  UNL     1      31.647   4.810  47.424  1.00  0.00    -0.058 Br
HETATM   14  N4  UNL     1      35.000   8.435  45.254  1.00  0.00    -0.358 N 
HETATM   15  C20 UNL     1      33.944   8.476  44.216  1.00  0.00     0.308 C 
HETATM   16  N5  UNL     1      32.702   8.826  43.889  1.00  0.00    -0.263 NA
HETATM   17  C21 UNL     1      31.932   9.485  44.977  1.00  0.00     0.174 C 
HETATM   18  N6  UNL     1      31.460   8.367  45.294  1.00  0.00    -0.250 NA
HETATM   19  H21 UNL     1      35.881   8.467  44.729  1.00  0.00     0.166 HD
ENDROOT
BRANCH   1  20
HETATM   20  N3  UNL     1      27.592   6.760  49.020  1.00  0.00    -0.309 N 
HETATM   21  C1  UNL     1      27.487   5.360  49.040  1.00  0.00     0.320 C 
HETATM   22  O1  UNL     1      28.358   4.734  48.337  1.00  0.00    -0.247 OA
HETATM   23  N1  UNL     1      26.587   4.507  49.713  1.00  0.00    -0.341 N 
HETATM   24  H1  UNL     1      25.870   5.097  50.246  1.00  0.00     0.164 HD
HETATM   25  H14 UNL     1      26.863   7.232  49.592  1.00  0.00     0.170 HD
BRANCH  23  26
HETATM   26  C2  UNL     1      26.454   3.071  49.810  1.00  0.00     0.143 C 
BRANCH  26  27
HETATM   27  C3  UNL     1      25.787   2.830  51.152  1.00  0.00     0.136 C 
BRANCH  27  28
HETATM   28  N2  UNL     1      26.317   1.781  51.925  1.00  0.00    -0.407 N 
HETATM   29  C4  UNL     1      25.502   0.690  52.268  1.00  0.00     0.143 C 
HETATM   30  C5  UNL     1      26.313  -0.521  52.662  1.00  0.00     0.187 C 
HETATM   31  O2  UNL     1      27.681  -0.284  52.683  1.00  0.00    -0.388 OA
HETATM   32  C6  UNL     1      27.850   0.845  53.507  1.00  0.00     0.187 C 
HETATM   33  C7  UNL     1      27.493   2.039  52.668  1.00  0.00     0.143 C 
ENDBRANCH  27  28
ENDBRANCH  26  27
ENDBRANCH  23  26
ENDBRANCH   1  20
TORSDOF 4
ENDMDL
MODEL 9
REMARK VINA RESULT:      -7.8      6.331      9.069
REMARK  4 active torsions:
REMARK  status: ('A' for Active; 'I' for Inactive)
REMARK       I    between atoms: C1_2  and  N1_3 
REMARK       I    between atoms: C1_2  and  N3_12 
REMARK    1  A    between atoms: N1_3  and  C2_4 
REMARK    2  A    between atoms: C2_4  and  C3_5 
REMARK    3  A    between atoms: C3_5  and  N2_6 
REMARK    4  A    between atoms: N3_12  and  C8_13 
ROOT
HETATM    1  C8  UNL     1      25.200   5.184  50.329  1.00  0.00     0.037 A 
HETATM    2  C9  UNL     1      24.210   5.832  51.113  1.00  0.00     0.032 A 
HETATM    3  C10 UNL     1      23.002   5.364  51.685  1.00  0.00     0.034 A 
HETATM    4  C11 UNL     1      22.833   3.998  51.374  1.00  0.00     0.065 A 
HETATM    5  C12 UNL     1      23.760   3.232  50.593  1.00  0.00    -0.009 A 
HETATM    6  C13 UNL     1      24.817   3.901  50.166  1.00  0.00     0.040 A 
HETATM    7  C14 UNL     1      23.196   1.856  50.563  1.00  0.00     0.051 A 
HETATM    8  C15 UNL     1      22.394   1.947  49.487  1.00  0.00    -0.004 A 
HETATM    9  C16 UNL     1      21.278   1.234  49.916  1.00  0.00     0.023 A 
HETATM   10  C17 UNL     1      21.424   0.749  51.215  1.00  0.00     0.020 A 
HETATM   11  C18 UNL     1      22.624   1.089  51.708  1.00  0.00     0.095 A 
HETATM   12  C19 UNL     1      23.848   1.615  51.808  1.00  0.00    -0.004 A 
HETATM   13 BR1  UNL     1      25.490   2.005  52.553  1.00  0.00    -0.058 Br
HETATM   14  N4  UNL     1      20.455   0.147  52.022  1.00  0.00    -0.358 N 
HETATM   15  C20 UNL     1      20.143   1.393  52.759  1.00  0.00     0.308 C 
HETATM   16  N5  UNL     1      20.088   2.723  52.746  1.00  0.00    -0.263 NA
HETATM   17  C21 UNL     1      20.498   3.353  51.464  1.00  0.00     0.174 C 
HETATM   18  N6  UNL     1      21.661   3.474  51.917  1.00  0.00    -0.250 NA
HETATM   19  H21 UNL     1      19.836  -0.560  52.435  1.00  0.00     0.166 HD
ENDROOT
BRANCH   1  20
HETATM   20  N3  UNL     1      26.304   5.921  49.946  1.00  0.00    -0.309 N 
HETATM   21  C1  UNL     1      26.049   6.616  48.753  1.00  0.00     0.320 C 
HETATM   22  O1  UNL     1      24.884   6.431  48.247  1.00  0.00    -0.247 OA
HETATM   23  N1  UNL     1      26.854   7.501  48.004  1.00  0.00    -0.341 N 
HETATM   24  H1  UNL     1      27.818   7.577  48.463  1.00  0.00     0.164 HD
HETATM   25  H14 UNL     1      27.260   6.088  50.318  1.00  0.00     0.170 HD
BRANCH  23  26
HETATM   26  C2  UNL     1      26.637   8.277  46.804  1.00  0.00     0.143 C 
BRANCH  26  27
HETATM   27  C3  UNL     1      27.908   9.087  46.627  1.00  0.00     0.136 C 
BRANCH  27  28
HETATM   28  N2  UNL     1      27.929  10.347  47.252  1.00  0.00    -0.407 N 
HETATM   29  C4  UNL     1      27.411  11.465  46.578  1.00  0.00     0.143 C 
HETATM   30  C5  UNL     1      27.074  12.592  47.525  1.00  0.00     0.187 C 
HETATM   31  O2  UNL     1      27.418  12.324  48.844  1.00  0.00    -0.388 OA
HETATM   32  C6  UNL     1      28.777  11.957  48.806  1.00  0.00     0.187 C 
HETATM   33  C7  UNL     1      28.818  10.531  48.337  1.00  0.00     0.143 C 
ENDBRANCH  27  28
ENDBRANCH  26  27
ENDBRANCH  23  26
ENDBRANCH   1  20
TORSDOF 4
ENDMDL
