MODEL 1
REMARK VINA RESULT:      -6.5      0.000      0.000
REMARK  9 active torsions:
REMARK  status: ('A' for Active; 'I' for Inactive)
REMARK    1  A    between atoms: C2_2  and  O1_3 
REMARK    2  A    between atoms: O1_3  and  C3_4 
REMARK       I    between atoms: C3_4  and  N1_6 
REMARK    3  A    between atoms: N1_6  and  C4_7 
REMARK    4  A    between atoms: C7_10  and  O3_11 
REMARK    5  A    between atoms: O3_11  and  C8_12 
REMARK    6  A    between atoms: C8_12  and  C9_13 
REMARK    7  A    between atoms: C10_14  and  C11_15 
REMARK    8  A    between atoms: C11_15  and  O4_16 
REMARK    9  A    between atoms: C13_18  and  O5_20 
ROOT
HETATM    1  C4  UNL     1      24.707  -0.606  54.048  1.00  0.00     0.037 A 
HETATM    2  C5  UNL     1      24.419   0.110  52.903  1.00  0.00     0.032 A 
HETATM    3  C6  UNL     1      23.127   0.440  52.629  1.00  0.00     0.039 A 
HETATM    4  C7  UNL     1      22.090   0.091  53.442  1.00  0.00     0.069 A 
HETATM    5  C15 UNL     1      22.380  -0.637  54.605  1.00  0.00     0.039 A 
HETATM    6  C16 UNL     1      23.697  -0.992  54.916  1.00  0.00     0.032 A 
ENDROOT
BRANCH   4   7
HETATM    7  O3  UNL     1      20.728   0.303  53.379  1.00  0.00    -0.347 OA
BRANCH   7   8
HETATM    8  C8  UNL     1      20.053   1.076  52.433  1.00  0.00     0.203 C 
BRANCH   8   9
HETATM    9  C9  UNL     1      20.383   2.504  52.658  1.00  0.00     0.002 C 
HETATM   10  C10 UNL     1      20.892   3.255  51.669  1.00  0.00     0.038 C 
BRANCH  10  11
HETATM   11  C11 UNL     1      21.315   4.643  51.548  1.00  0.00     0.113 C 
HETATM   12  C13 UNL     1      20.966   5.569  50.686  1.00  0.00     0.172 C 
HETATM   13 CL1  UNL     1      21.712   7.140  50.878  1.00  0.00    -0.054 Cl
BRANCH  11  14
HETATM   14  O4  UNL     1      22.223   4.853  52.573  1.00  0.00    -0.352 OA
HETATM   15  C12 UNL     1      23.580   4.406  52.523  1.00  0.00     0.210 C 
ENDBRANCH  11  14
BRANCH  12  16
HETATM   16  O5  UNL     1      20.057   5.320  49.675  1.00  0.00    -0.343 OA
HETATM   17  C14 UNL     1      20.434   5.161  48.322  1.00  0.00     0.211 C 
ENDBRANCH  12  16
ENDBRANCH  10  11
ENDBRANCH   8   9
ENDBRANCH   7   8
ENDBRANCH   4   7
BRANCH   1  18
HETATM   18  N1  UNL     1      26.053  -0.957  54.351  1.00  0.00    -0.303 N 
HETATM   19  C3  UNL     1      26.936   0.062  54.805  1.00  0.00     0.365 C 
HETATM   20  O2  UNL     1      26.368   1.193  54.878  1.00  0.00    -0.238 OA
HETATM   21  H6  UNL     1      26.440  -1.944  54.260  1.00  0.00     0.171 HD
BRANCH  19  22
HETATM   22  O1  UNL     1      28.271  -0.161  55.131  1.00  0.00    -0.304 OA
BRANCH  22  23
HETATM   23  C2  UNL     1      29.250   0.135  54.141  1.00  0.00     0.176 C 
HETATM   24  C1  UNL     1      29.756  -1.109  53.460  1.00  0.00     0.034 C 
ENDBRANCH  22  23
ENDBRANCH  19  22
ENDBRANCH   1  18
TORSDOF 9
ENDMDL
MODEL 2
REMARK VINA RESULT:      -6.5      3.310      4.696
REMARK  9 active torsions:
REMARK  status: ('A' for Active; 'I' for Inactive)
REMARK    1  A    between atoms: C2_2  and  O1_3 
REMARK    2  A    between atoms: O1_3  and  C3_4 
REMARK       I    between atoms: C3_4  and  N1_6 
REMARK    3  A    between atoms: N1_6  and  C4_7 
REMARK    4  A    between atoms: C7_10  and  O3_11 
REMARK    5  A    between atoms: O3_11  and  C8_12 
REMARK    6  A    between atoms: C8_12  and  C9_13 
REMARK    7  A    between atoms: C10_14  and  C11_15 
REMARK    8  A    between atoms: C11_15  and  O4_16 
REMARK    9  A    between atoms: C13_18  and  O5_20 
ROOT
HETATM    1  C4  UNL     1      24.743  -0.360  53.748  1.00  0.00     0.037 A 
HETATM    2  C5  UNL     1      23.654  -0.827  54.456  1.00  0.00     0.032 A 
HETATM    3  C6  UNL     1      22.409  -0.369  54.147  1.00  0.00     0.039 A 
HETATM    4  C7  UNL     1      22.184   0.542  53.159  1.00  0.00     0.069 A 
HETATM    5  C15 UNL     1      23.288   1.019  52.439  1.00  0.00     0.039 A 
HETATM    6  C16 UNL     1      24.581   0.569  52.730  1.00  0.00     0.032 A 
ENDROOT
BRANCH   4   7
HETATM    7  O3  UNL     1      21.042   1.144  52.673  1.00  0.00    -0.347 OA
BRANCH   7   8
HETATM    8  C8  UNL     1      20.638   1.196  51.338  1.00  0.00     0.203 C 
BRANCH   8   9
HETATM    9  C9  UNL     1      19.482   0.286  51.153  1.00  0.00     0.002 C 
HETATM   10  C10 UNL     1      18.534   0.181  52.096  1.00  0.00     0.038 C 
BRANCH  10  11
HETATM   11  C11 UNL     1      17.305  -0.588  52.236  1.00  0.00     0.113 C 
HETATM   12  C13 UNL     1      16.308  -0.761  51.401  1.00  0.00     0.172 C 
HETATM   13 CL1  UNL     1      14.991  -1.775  51.951  1.00  0.00    -0.054 Cl
BRANCH  11  14
HETATM   14  O4  UNL     1      17.357  -1.159  53.497  1.00  0.00    -0.352 OA
HETATM   15  C12 UNL     1      18.028  -2.390  53.774  1.00  0.00     0.210 C 
ENDBRANCH  11  14
BRANCH  12  16
HETATM   16  O5  UNL     1      16.292  -0.173  50.150  1.00  0.00    -0.343 OA
HETATM   17  C14 UNL     1      15.734   1.102  49.906  1.00  0.00     0.211 C 
ENDBRANCH  12  16
ENDBRANCH  10  11
ENDBRANCH   8   9
ENDBRANCH   7   8
ENDBRANCH   4   7
BRANCH   1  18
HETATM   18  N1  UNL     1      26.050  -0.829  54.055  1.00  0.00    -0.303 N 
HETATM   19  C3  UNL     1      26.948   0.048  54.727  1.00  0.00     0.365 C 
HETATM   20  O2  UNL     1      26.427   1.178  54.968  1.00  0.00    -0.238 OA
HETATM   21  H6  UNL     1      26.399  -1.805  53.812  1.00  0.00     0.171 HD
BRANCH  19  22
HETATM   22  O1  UNL     1      28.250  -0.301  55.079  1.00  0.00    -0.304 OA
BRANCH  22  23
HETATM   23  C2  UNL     1      29.281  -0.033  54.135  1.00  0.00     0.176 C 
HETATM   24  C1  UNL     1      29.796  -1.293  53.492  1.00  0.00     0.034 C 
ENDBRANCH  22  23
ENDBRANCH  19  22
ENDBRANCH   1  18
TORSDOF 9
ENDMDL
MODEL 3
REMARK VINA RESULT:      -6.4      1.689      2.197
REMARK  9 active torsions:
REMARK  status: ('A' for Active; 'I' for Inactive)
REMARK    1  A    between atoms: C2_2  and  O1_3 
REMARK    2  A    between atoms: O1_3  and  C3_4 
REMARK       I    between atoms: C3_4  and  N1_6 
REMARK    3  A    between atoms: N1_6  and  C4_7 
REMARK    4  A    between atoms: C7_10  and  O3_11 
REMARK    5  A    between atoms: O3_11  and  C8_12 
REMARK    6  A    between atoms: C8_12  and  C9_13 
REMARK    7  A    between atoms: C10_14  and  C11_15 
REMARK    8  A    between atoms: C11_15  and  O4_16 
REMARK    9  A    between atoms: C13_18  and  O5_20 
ROOT
HETATM    1  C4  UNL     1      24.819   0.090  53.149  1.00  0.00     0.037 A 
HETATM    2  C5  UNL     1      23.630  -0.192  53.790  1.00  0.00     0.032 A 
HETATM    3  C6  UNL     1      22.487   0.422  53.378  1.00  0.00     0.039 A 
HETATM    4  C7  UNL     1      22.460   1.314  52.349  1.00  0.00     0.069 A 
HETATM    5  C15 UNL     1      23.667   1.603  51.696  1.00  0.00     0.039 A 
HETATM    6  C16 UNL     1      24.860   0.989  52.094  1.00  0.00     0.032 A 
ENDROOT
BRANCH   4   7
HETATM    7  O3  UNL     1      21.451   2.049  51.762  1.00  0.00    -0.347 OA
BRANCH   7   8
HETATM    8  C8  UNL     1      20.858   3.202  52.279  1.00  0.00     0.203 C 
BRANCH   8   9
HETATM    9  C9  UNL     1      21.266   4.362  51.451  1.00  0.00     0.002 C 
HETATM   10  C10 UNL     1      22.431   4.990  51.676  1.00  0.00     0.038 C 
BRANCH  10  11
HETATM   11  C11 UNL     1      23.121   6.122  51.073  1.00  0.00     0.113 C 
HETATM   12  C13 UNL     1      22.667   7.293  50.693  1.00  0.00     0.172 C 
HETATM   13 CL1  UNL     1      23.833   8.399  50.001  1.00  0.00    -0.054 Cl
BRANCH  11  14
HETATM   14  O4  UNL     1      24.445   5.737  50.951  1.00  0.00    -0.352 OA
HETATM   15  C12 UNL     1      24.923   4.886  49.906  1.00  0.00     0.210 C 
ENDBRANCH  11  14
BRANCH  12  16
HETATM   16  O5  UNL     1      21.336   7.640  50.830  1.00  0.00    -0.343 OA
HETATM   17  C14 UNL     1      20.435   7.681  49.742  1.00  0.00     0.211 C 
ENDBRANCH  12  16
ENDBRANCH  10  11
ENDBRANCH   8   9
ENDBRANCH   7   8
ENDBRANCH   4   7
BRANCH   1  18
HETATM   18  N1  UNL     1      26.023  -0.545  53.565  1.00  0.00    -0.303 N 
HETATM   19  C3  UNL     1      26.872   0.140  54.480  1.00  0.00     0.365 C 
HETATM   20  O2  UNL     1      26.410   1.273  54.809  1.00  0.00    -0.238 OA
HETATM   21  H6  UNL     1      26.328  -1.508  53.232  1.00  0.00     0.171 HD
BRANCH  19  22
HETATM   22  O1  UNL     1      28.073  -0.380  54.956  1.00  0.00    -0.304 OA
BRANCH  22  23
HETATM   23  C2  UNL     1      29.245  -0.144  54.185  1.00  0.00     0.176 C 
HETATM   24  C1  UNL     1      29.683  -1.373  53.435  1.00  0.00     0.034 C 
ENDBRANCH  22  23
ENDBRANCH  19  22
ENDBRANCH   1  18
TORSDOF 9
ENDMDL
MODEL 4
REMARK VINA RESULT:      -6.4      2.916      4.821
REMARK  9 active torsions:
REMARK  status: ('A' for Active; 'I' for Inactive)
REMARK    1  A    between atoms: C2_2  and  O1_3 
REMARK    2  A    between atoms: O1_3  and  C3_4 
REMARK       I    between atoms: C3_4  and  N1_6 
REMARK    3  A    between atoms: N1_6  and  C4_7 
REMARK    4  A    between atoms: C7_10  and  O3_11 
REMARK    5  A    between atoms: O3_11  and  C8_12 
REMARK    6  A    between atoms: C8_12  and  C9_13 
REMARK    7  A    between atoms: C10_14  and  C11_15 
REMARK    8  A    between atoms: C11_15  and  O4_16 
REMARK    9  A    between atoms: C13_18  and  O5_20 
ROOT
HETATM    1  C4  UNL     1      25.137   2.104  53.310  1.00  0.00     0.037 A 
HETATM    2  C5  UNL     1      24.557   3.356  53.312  1.00  0.00     0.032 A 
HETATM    3  C6  UNL     1      23.477   3.594  52.519  1.00  0.00     0.039 A 
HETATM    4  C7  UNL     1      22.933   2.641  51.711  1.00  0.00     0.069 A 
HETATM    5  C15 UNL     1      23.521   1.367  51.706  1.00  0.00     0.039 A 
HETATM    6  C16 UNL     1      24.632   1.090  52.510  1.00  0.00     0.032 A 
ENDROOT
BRANCH   4   7
HETATM    7  O3  UNL     1      21.866   2.640  50.836  1.00  0.00    -0.347 OA
BRANCH   7   8
HETATM    8  C8  UNL     1      20.616   3.223  51.054  1.00  0.00     0.203 C 
BRANCH   8   9
HETATM    9  C9  UNL     1      19.813   2.323  51.916  1.00  0.00     0.002 C 
HETATM   10  C10 UNL     1      19.583   1.052  51.554  1.00  0.00     0.038 C 
BRANCH  10  11
HETATM   11  C11 UNL     1      18.862  -0.069  52.142  1.00  0.00     0.113 C 
HETATM   12  C13 UNL     1      19.114  -0.774  53.219  1.00  0.00     0.172 C 
HETATM   13 CL1  UNL     1      17.989  -2.061  53.595  1.00  0.00    -0.054 Cl
BRANCH  11  14
HETATM   14  O4  UNL     1      17.774  -0.294  51.316  1.00  0.00    -0.352 OA
HETATM   15  C12 UNL     1      17.622   0.319  50.034  1.00  0.00     0.210 C 
ENDBRANCH  11  14
BRANCH  12  16
HETATM   16  O5  UNL     1      20.212  -0.519  54.019  1.00  0.00    -0.343 OA
HETATM   17  C14 UNL     1      21.455  -1.171  53.850  1.00  0.00     0.211 C 
ENDBRANCH  12  16
ENDBRANCH  10  11
ENDBRANCH   8   9
ENDBRANCH   7   8
ENDBRANCH   4   7
BRANCH   1  18
HETATM   18  N1  UNL     1      26.265   1.837  54.135  1.00  0.00    -0.303 N 
HETATM   19  C3  UNL     1      27.565   1.925  53.560  1.00  0.00     0.365 C 
HETATM   20  O2  UNL     1      27.528   2.244  52.334  1.00  0.00    -0.238 OA
HETATM   21  H6  UNL     1      26.196   1.577  55.164  1.00  0.00     0.171 HD
BRANCH  19  22
HETATM   22  O1  UNL     1      28.740   1.686  54.268  1.00  0.00    -0.304 OA
BRANCH  22  23
HETATM   23  C2  UNL     1      29.046   0.337  54.601  1.00  0.00     0.176 C 
HETATM   24  C1  UNL     1      29.953  -0.302  53.584  1.00  0.00     0.034 C 
ENDBRANCH  22  23
ENDBRANCH  19  22
ENDBRANCH   1  18
TORSDOF 9
ENDMDL
MODEL 5
REMARK VINA RESULT:      -6.4      3.106      4.711
REMARK  9 active torsions:
REMARK  status: ('A' for Active; 'I' for Inactive)
REMARK    1  A    between atoms: C2_2  and  O1_3 
REMARK    2  A    between atoms: O1_3  and  C3_4 
REMARK       I    between atoms: C3_4  and  N1_6 
REMARK    3  A    between atoms: N1_6  and  C4_7 
REMARK    4  A    between atoms: C7_10  and  O3_11 
REMARK    5  A    between atoms: O3_11  and  C8_12 
REMARK    6  A    between atoms: C8_12  and  C9_13 
REMARK    7  A    between atoms: C10_14  and  C11_15 
REMARK    8  A    between atoms: C11_15  and  O4_16 
REMARK    9  A    between atoms: C13_18  and  O5_20 
ROOT
HETATM    1  C4  UNL     1      25.232   2.128  53.345  1.00  0.00     0.037 A 
HETATM    2  C5  UNL     1      24.769   0.983  52.728  1.00  0.00     0.032 A 
HETATM    3  C6  UNL     1      23.625   1.037  51.992  1.00  0.00     0.039 A 
HETATM    4  C7  UNL     1      22.905   2.183  51.833  1.00  0.00     0.069 A 
HETATM    5  C15 UNL     1      23.372   3.347  52.460  1.00  0.00     0.039 A 
HETATM    6  C16 UNL     1      24.545   3.326  53.223  1.00  0.00     0.032 A 
ENDROOT
BRANCH   4   7
HETATM    7  O3  UNL     1      21.742   2.481  51.153  1.00  0.00    -0.347 OA
BRANCH   7   8
HETATM    8  C8  UNL     1      20.573   3.009  51.703  1.00  0.00     0.203 C 
BRANCH   8   9
HETATM    9  C9  UNL     1      20.024   2.040  52.681  1.00  0.00     0.002 C 
HETATM   10  C10 UNL     1      19.798   0.765  52.329  1.00  0.00     0.038 C 
BRANCH  10  11
HETATM   11  C11 UNL     1      19.284  -0.414  53.015  1.00  0.00     0.113 C 
HETATM   12  C13 UNL     1      18.206  -1.127  52.793  1.00  0.00     0.172 C 
HETATM   13 CL1  UNL     1      17.935  -2.491  53.855  1.00  0.00    -0.054 Cl
BRANCH  11  14
HETATM   14  O4  UNL     1      20.190  -0.688  54.025  1.00  0.00    -0.352 OA
HETATM   15  C12 UNL     1      21.438  -1.349  53.802  1.00  0.00     0.210 C 
ENDBRANCH  11  14
BRANCH  12  16
HETATM   16  O5  UNL     1      17.324  -0.820  51.773  1.00  0.00    -0.343 OA
HETATM   17  C14 UNL     1      16.163  -0.038  51.969  1.00  0.00     0.211 C 
ENDBRANCH  12  16
ENDBRANCH  10  11
ENDBRANCH   8   9
ENDBRANCH   7   8
ENDBRANCH   4   7
BRANCH   1  18
HETATM   18  N1  UNL     1      26.427   2.090  54.116  1.00  0.00    -0.303 N 
HETATM   19  C3  UNL     1      27.673   2.275  53.451  1.00  0.00     0.365 C 
HETATM   20  O2  UNL     1      27.530   2.457  52.205  1.00  0.00    -0.238 OA
HETATM   21  H6  UNL     1      26.446   1.932  55.168  1.00  0.00     0.171 HD
BRANCH  19  22
HETATM   22  O1  UNL     1      28.905   2.258  54.100  1.00  0.00    -0.304 OA
BRANCH  22  23
HETATM   23  C2  UNL     1      29.344   1.020  54.647  1.00  0.00     0.176 C 
HETATM   24  C1  UNL     1      29.725   0.035  53.575  1.00  0.00     0.034 C 
ENDBRANCH  22  23
ENDBRANCH  19  22
ENDBRANCH   1  18
TORSDOF 9
ENDMDL
MODEL 6
REMARK VINA RESULT:      -6.4      1.687      2.571
REMARK  9 active torsions:
REMARK  status: ('A' for Active; 'I' for Inactive)
REMARK    1  A    between atoms: C2_2  and  O1_3 
REMARK    2  A    between atoms: O1_3  and  C3_4 
REMARK       I    between atoms: C3_4  and  N1_6 
REMARK    3  A    between atoms: N1_6  and  C4_7 
REMARK    4  A    between atoms: C7_10  and  O3_11 
REMARK    5  A    between atoms: O3_11  and  C8_12 
REMARK    6  A    between atoms: C8_12  and  C9_13 
REMARK    7  A    between atoms: C10_14  and  C11_15 
REMARK    8  A    between atoms: C11_15  and  O4_16 
REMARK    9  A    between atoms: C13_18  and  O5_20 
ROOT
HETATM    1  C4  UNL     1      24.780  -0.026  53.269  1.00  0.00     0.037 A 
HETATM    2  C5  UNL     1      23.582  -0.421  53.831  1.00  0.00     0.032 A 
HETATM    3  C6  UNL     1      22.423   0.148  53.401  1.00  0.00     0.039 A 
HETATM    4  C7  UNL     1      22.387   1.102  52.428  1.00  0.00     0.069 A 
HETATM    5  C15 UNL     1      23.602   1.505  51.856  1.00  0.00     0.039 A 
HETATM    6  C16 UNL     1      24.812   0.940  52.275  1.00  0.00     0.032 A 
ENDROOT
BRANCH   4   7
HETATM    7  O3  UNL     1      21.362   1.811  51.838  1.00  0.00    -0.347 OA
BRANCH   7   8
HETATM    8  C8  UNL     1      20.712   2.927  52.370  1.00  0.00     0.203 C 
BRANCH   8   9
HETATM    9  C9  UNL     1      21.003   4.102  51.515  1.00  0.00     0.002 C 
HETATM   10  C10 UNL     1      22.053   4.896  51.774  1.00  0.00     0.038 C 
BRANCH  10  11
HETATM   11  C11 UNL     1      22.612   6.093  51.159  1.00  0.00     0.113 C 
HETATM   12  C13 UNL     1      23.807   6.320  50.667  1.00  0.00     0.172 C 
HETATM   13 CL1  UNL     1      24.092   7.915  50.007  1.00  0.00    -0.054 Cl
BRANCH  11  14
HETATM   14  O4  UNL     1      21.598   7.036  51.176  1.00  0.00    -0.352 OA
HETATM   15  C12 UNL     1      20.788   7.338  50.038  1.00  0.00     0.210 C 
ENDBRANCH  11  14
BRANCH  12  16
HETATM   16  O5  UNL     1      24.794   5.352  50.669  1.00  0.00    -0.343 OA
HETATM   17  C14 UNL     1      25.722   5.198  49.615  1.00  0.00     0.211 C 
ENDBRANCH  12  16
ENDBRANCH  10  11
ENDBRANCH   8   9
ENDBRANCH   7   8
ENDBRANCH   4   7
BRANCH   1  18
HETATM   18  N1  UNL     1      26.001  -0.612  53.705  1.00  0.00    -0.303 N 
HETATM   19  C3  UNL     1      26.855   0.146  54.555  1.00  0.00     0.365 C 
HETATM   20  O2  UNL     1      26.380   1.293  54.814  1.00  0.00    -0.238 OA
HETATM   21  H6  UNL     1      26.315  -1.592  53.433  1.00  0.00     0.171 HD
BRANCH  19  22
HETATM   22  O1  UNL     1      28.072  -0.321  55.043  1.00  0.00    -0.304 OA
BRANCH  22  23
HETATM   23  C2  UNL     1      29.243  -0.021  54.291  1.00  0.00     0.176 C 
HETATM   24  C1  UNL     1      29.735  -1.213  53.516  1.00  0.00     0.034 C 
ENDBRANCH  22  23
ENDBRANCH  19  22
ENDBRANCH   1  18
TORSDOF 9
ENDMDL
MODEL 7
REMARK VINA RESULT:      -6.3      3.274      4.270
REMARK  9 active torsions:
REMARK  status: ('A' for Active; 'I' for Inactive)
REMARK    1  A    between atoms: C2_2  and  O1_3 
REMARK    2  A    between atoms: O1_3  and  C3_4 
REMARK       I    between atoms: C3_4  and  N1_6 
REMARK    3  A    between atoms: N1_6  and  C4_7 
REMARK    4  A    between atoms: C7_10  and  O3_11 
REMARK    5  A    between atoms: O3_11  and  C8_12 
REMARK    6  A    between atoms: C8_12  and  C9_13 
REMARK    7  A    between atoms: C10_14  and  C11_15 
REMARK    8  A    between atoms: C11_15  and  O4_16 
REMARK    9  A    between atoms: C13_18  and  O5_20 
ROOT
HETATM    1  C4  UNL     1      25.258  -0.790  54.351  1.00  0.00     0.037 A 
HETATM    2  C5  UNL     1      24.612  -0.297  53.235  1.00  0.00     0.032 A 
HETATM    3  C6  UNL     1      23.251  -0.255  53.215  1.00  0.00     0.039 A 
HETATM    4  C7  UNL     1      22.486  -0.683  54.258  1.00  0.00     0.069 A 
HETATM    5  C15 UNL     1      23.140  -1.186  55.392  1.00  0.00     0.039 A 
HETATM    6  C16 UNL     1      24.538  -1.243  55.446  1.00  0.00     0.032 A 
ENDROOT
BRANCH   4   7
HETATM    7  O3  UNL     1      21.124  -0.741  54.469  1.00  0.00    -0.347 OA
BRANCH   7   8
HETATM    8  C8  UNL     1      20.177   0.185  54.028  1.00  0.00     0.203 C 
BRANCH   8   9
HETATM    9  C9  UNL     1      19.448  -0.389  52.872  1.00  0.00     0.002 C 
HETATM   10  C10 UNL     1      18.767   0.402  52.029  1.00  0.00     0.038 C 
BRANCH  10  11
HETATM   11  C11 UNL     1      17.968   0.179  50.832  1.00  0.00     0.113 C 
HETATM   12  C13 UNL     1      16.826  -0.447  50.673  1.00  0.00     0.172 C 
HETATM   13 CL1  UNL     1      16.178  -0.497  49.049  1.00  0.00    -0.054 Cl
BRANCH  11  14
HETATM   14  O4  UNL     1      18.661   0.784  49.796  1.00  0.00    -0.352 OA
HETATM   15  C12 UNL     1      18.798   2.200  49.665  1.00  0.00     0.210 C 
ENDBRANCH  11  14
BRANCH  12  16
HETATM   16  O5  UNL     1      16.164  -1.038  51.733  1.00  0.00    -0.343 OA
HETATM   17  C14 UNL     1      15.415  -0.304  52.680  1.00  0.00     0.211 C 
ENDBRANCH  12  16
ENDBRANCH  10  11
ENDBRANCH   8   9
ENDBRANCH   7   8
ENDBRANCH   4   7
BRANCH   1  18
HETATM   18  N1  UNL     1      26.680  -0.839  54.390  1.00  0.00    -0.303 N 
HETATM   19  C3  UNL     1      27.390   0.327  54.793  1.00  0.00     0.365 C 
HETATM   20  O2  UNL     1      26.614   1.290  55.074  1.00  0.00    -0.238 OA
HETATM   21  H6  UNL     1      27.248  -1.702  54.136  1.00  0.00     0.171 HD
BRANCH  19  22
HETATM   22  O1  UNL     1      28.779   0.398  54.869  1.00  0.00    -0.304 OA
BRANCH  22  23
HETATM   23  C2  UNL     1      29.517   0.159  53.676  1.00  0.00     0.176 C 
HETATM   24  C1  UNL     1      30.069  -1.241  53.628  1.00  0.00     0.034 C 
ENDBRANCH  22  23
ENDBRANCH  19  22
ENDBRANCH   1  18
TORSDOF 9
ENDMDL
MODEL 8
REMARK VINA RESULT:      -6.2      3.005      3.500
REMARK  9 active torsions:
REMARK  status: ('A' for Active; 'I' for Inactive)
REMARK    1  A    between atoms: C2_2  and  O1_3 
REMARK    2  A    between atoms: O1_3  and  C3_4 
REMARK       I    between atoms: C3_4  and  N1_6 
REMARK    3  A    between atoms: N1_6  and  C4_7 
REMARK    4  A    between atoms: C7_10  and  O3_11 
REMARK    5  A    between atoms: O3_11  and  C8_12 
REMARK    6  A    between atoms: C8_12  and  C9_13 
REMARK    7  A    between atoms: C10_14  and  C11_15 
REMARK    8  A    between atoms: C11_15  and  O4_16 
REMARK    9  A    between atoms: C13_18  and  O5_20 
ROOT
HETATM    1  C4  UNL     1      25.017   0.057  53.504  1.00  0.00     0.037 A 
HETATM    2  C5  UNL     1      23.760  -0.325  53.082  1.00  0.00     0.032 A 
HETATM    3  C6  UNL     1      22.871   0.626  52.684  1.00  0.00     0.039 A 
HETATM    4  C7  UNL     1      23.167   1.956  52.684  1.00  0.00     0.069 A 
HETATM    5  C15 UNL     1      24.443   2.347  53.113  1.00  0.00     0.039 A 
HETATM    6  C16 UNL     1      25.381   1.395  53.528  1.00  0.00     0.032 A 
ENDROOT
BRANCH   4   7
HETATM    7  O3  UNL     1      22.451   3.083  52.335  1.00  0.00    -0.347 OA
BRANCH   7   8
HETATM    8  C8  UNL     1      22.167   3.517  51.039  1.00  0.00     0.203 C 
BRANCH   8   9
HETATM    9  C9  UNL     1      23.177   4.526  50.642  1.00  0.00     0.002 C 
HETATM   10  C10 UNL     1      24.178   4.204  49.808  1.00  0.00     0.038 C 
BRANCH  10  11
HETATM   11  C11 UNL     1      25.304   4.925  49.228  1.00  0.00     0.113 C 
HETATM   12  C13 UNL     1      25.386   6.150  48.768  1.00  0.00     0.172 C 
HETATM   13 CL1  UNL     1      26.942   6.650  48.143  1.00  0.00    -0.054 Cl
BRANCH  11  14
HETATM   14  O4  UNL     1      26.367   4.037  49.240  1.00  0.00    -0.352 OA
HETATM   15  C12 UNL     1      26.682   3.205  50.358  1.00  0.00     0.210 C 
ENDBRANCH  11  14
BRANCH  12  16
HETATM   16  O5  UNL     1      24.301   7.007  48.773  1.00  0.00    -0.343 OA
HETATM   17  C14 UNL     1      23.485   7.222  47.639  1.00  0.00     0.211 C 
ENDBRANCH  12  16
ENDBRANCH  10  11
ENDBRANCH   8   9
ENDBRANCH   7   8
ENDBRANCH   4   7
BRANCH   1  18
HETATM   18  N1  UNL     1      25.960  -0.924  53.921  1.00  0.00    -0.303 N 
HETATM   19  C3  UNL     1      26.917  -1.393  52.976  1.00  0.00     0.365 C 
HETATM   20  O2  UNL     1      26.785  -0.840  51.843  1.00  0.00    -0.238 OA
HETATM   21  H6  UNL     1      25.994  -1.330  54.903  1.00  0.00     0.171 HD
BRANCH  19  22
HETATM   22  O1  UNL     1      27.886  -2.349  53.269  1.00  0.00    -0.304 OA
BRANCH  22  23
HETATM   23  C2  UNL     1      29.250  -1.962  53.153  1.00  0.00     0.176 C 
HETATM   24  C1  UNL     1      29.541  -0.694  53.910  1.00  0.00     0.034 C 
ENDBRANCH  22  23
ENDBRANCH  19  22
ENDBRANCH   1  18
TORSDOF 9
ENDMDL
MODEL 9
REMARK VINA RESULT:      -6.1      1.934      2.672
REMARK  9 active torsions:
REMARK  status: ('A' for Active; 'I' for Inactive)
REMARK    1  A    between atoms: C2_2  and  O1_3 
REMARK    2  A    between atoms: O1_3  and  C3_4 
REMARK       I    between atoms: C3_4  and  N1_6 
REMARK    3  A    between atoms: N1_6  and  C4_7 
REMARK    4  A    between atoms: C7_10  and  O3_11 
REMARK    5  A    between atoms: O3_11  and  C8_12 
REMARK    6  A    between atoms: C8_12  and  C9_13 
REMARK    7  A    between atoms: C10_14  and  C11_15 
REMARK    8  A    between atoms: C11_15  and  O4_16 
REMARK    9  A    between atoms: C13_18  and  O5_20 
ROOT
HETATM    1  C4  UNL     1      25.081   0.606  52.727  1.00  0.00     0.037 A 
HETATM    2  C5  UNL     1      24.602  -0.473  53.443  1.00  0.00     0.032 A 
HETATM    3  C6  UNL     1      23.286  -0.514  53.788  1.00  0.00     0.039 A 
HETATM    4  C7  UNL     1      22.406   0.473  53.456  1.00  0.00     0.069 A 
HETATM    5  C15 UNL     1      22.890   1.570  52.730  1.00  0.00     0.039 A 
HETATM    6  C16 UNL     1      24.238   1.643  52.359  1.00  0.00     0.032 A 
ENDROOT
BRANCH   4   7
HETATM    7  O3  UNL     1      21.058   0.653  53.688  1.00  0.00    -0.347 OA
BRANCH   7   8
HETATM    8  C8  UNL     1      20.011  -0.005  53.040  1.00  0.00     0.203 C 
BRANCH   8   9
HETATM    9  C9  UNL     1      19.439   0.900  52.015  1.00  0.00     0.002 C 
HETATM   10  C10 UNL     1      19.476   2.232  52.178  1.00  0.00     0.038 C 
BRANCH  10  11
HETATM   11  C11 UNL     1      19.024   3.375  51.397  1.00  0.00     0.113 C 
HETATM   12  C13 UNL     1      19.550   3.946  50.339  1.00  0.00     0.172 C 
HETATM   13 CL1  UNL     1      18.690   5.321  49.681  1.00  0.00    -0.054 Cl
BRANCH  11  14
HETATM   14  O4  UNL     1      17.852   3.804  51.996  1.00  0.00    -0.352 OA
HETATM   15  C12 UNL     1      16.571   3.238  51.709  1.00  0.00     0.210 C 
ENDBRANCH  11  14
BRANCH  12  16
HETATM   16  O5  UNL     1      20.723   3.489  49.769  1.00  0.00    -0.343 OA
HETATM   17  C14 UNL     1      21.984   4.073  50.030  1.00  0.00     0.211 C 
ENDBRANCH  12  16
ENDBRANCH  10  11
ENDBRANCH   8   9
ENDBRANCH   7   8
ENDBRANCH   4   7
BRANCH   1  18
HETATM   18  N1  UNL     1      26.454   0.664  52.355  1.00  0.00    -0.303 N 
HETATM   19  C3  UNL     1      27.386   1.214  53.280  1.00  0.00     0.365 C 
HETATM   20  O2  UNL     1      26.832   1.591  54.356  1.00  0.00    -0.238 OA
HETATM   21  H6  UNL     1      26.827   0.317  51.422  1.00  0.00     0.171 HD
BRANCH  19  22
HETATM   22  O1  UNL     1      28.751   1.323  53.027  1.00  0.00    -0.304 OA
BRANCH  22  23
HETATM   23  C2  UNL     1      29.633   0.531  53.815  1.00  0.00     0.176 C 
HETATM   24  C1  UNL     1      29.475  -0.939  53.530  1.00  0.00     0.034 C 
ENDBRANCH  22  23
ENDBRANCH  19  22
ENDBRANCH   1  18
TORSDOF 9
ENDMDL
