MODEL 1
REMARK VINA RESULT:      -9.4      0.000      0.000
REMARK  5 active torsions:
REMARK  status: ('A' for Active; 'I' for Inactive)
REMARK    1  A    between atoms: C6_8  and  O1_9 
REMARK    2  A    between atoms: O1_9  and  C7_10 
REMARK    3  A    between atoms: C10_13  and  N3_14 
REMARK       I    between atoms: N3_14  and  C11_15 
REMARK       I    between atoms: C11_15  and  N4_17 
REMARK    4  A    between atoms: N4_17  and  C12_18 
REMARK    5  A    between atoms: C22_28  and  O3_29 
ROOT
HETATM    1  C7  UNL     1      26.575   5.803  48.636  1.00  0.00     0.078 A 
HETATM    2  C8  UNL     1      25.188   5.957  48.680  1.00  0.00     0.039 A 
HETATM    3  C9  UNL     1      24.384   4.920  49.112  1.00  0.00     0.032 A 
HETATM    4  C10 UNL     1      24.892   3.702  49.516  1.00  0.00     0.036 A 
HETATM    5  C18 UNL     1      26.258   3.572  49.464  1.00  0.00     0.032 A 
HETATM    6  C19 UNL     1      27.090   4.591  49.036  1.00  0.00     0.039 A 
ENDROOT
BRANCH   1   7
HETATM    7  O1  UNL     1      27.308   6.866  48.199  1.00  0.00    -0.291 OA
BRANCH   7   8
HETATM    8  C6  UNL     1      28.645   7.086  48.417  1.00  0.00     0.179 A 
HETATM    9  N2  UNL     1      29.445   5.997  48.463  1.00  0.00    -0.217 NA
HETATM   10  C5  UNL     1      30.780   6.146  48.675  1.00  0.00     0.236 A 
HETATM   11  N1  UNL     1      31.275   7.405  48.838  1.00  0.00    -0.241 NA
HETATM   12  C4  UNL     1      30.473   8.483  48.791  1.00  0.00     0.069 A 
HETATM   13  C3  UNL     1      31.066   9.806  48.974  1.00  0.00     0.037 A 
HETATM   14  C20 UNL     1      29.110   8.361  48.576  1.00  0.00     0.027 A 
HETATM   15  C2  UNL     1      30.210  10.814  48.913  1.00  0.00    -0.053 A 
HETATM   16  C1  UNL     1      30.730  12.199  49.088  1.00  0.00     0.046 C 
HETATM   17  C22 UNL     1      28.752  10.825  48.692  1.00  0.00     0.151 A 
HETATM   18  C21 UNL     1      28.135   9.479  48.506  1.00  0.00     0.081 A 
BRANCH  17  19
HETATM   19  O3  UNL     1      28.050  11.479  49.701  1.00  0.00    -0.391 OA
HETATM   20  H20 UNL     1      28.177  11.004  50.559  1.00  0.00     0.210 HD
ENDBRANCH  17  19
ENDBRANCH   7   8
ENDBRANCH   1   7
BRANCH   4  21
HETATM   21  N3  UNL     1      23.990   2.693  49.945  1.00  0.00    -0.309 N 
HETATM   22  C11 UNL     1      23.790   2.204  51.259  1.00  0.00     0.325 C 
HETATM   23  O2  UNL     1      24.409   2.615  52.259  1.00  0.00    -0.247 OA
HETATM   24  N4  UNL     1      22.801   1.187  51.318  1.00  0.00    -0.309 N 
HETATM   25  H9  UNL     1      22.251   0.801  50.518  1.00  0.00     0.170 HD
HETATM   26  H8  UNL     1      23.501   2.383  49.084  1.00  0.00     0.170 HD
BRANCH  24  27
HETATM   27  C12 UNL     1      22.442   0.556  52.545  1.00  0.00     0.036 A 
HETATM   28  C13 UNL     1      21.243   0.935  53.146  1.00  0.00     0.029 A 
HETATM   29  C14 UNL     1      20.811   0.379  54.335  1.00  0.00     0.002 A 
HETATM   30  C15 UNL     1      21.581  -0.591  54.970  1.00  0.00     0.000 A 
HETATM   31  C16 UNL     1      22.766  -0.966  54.376  1.00  0.00     0.002 A 
HETATM   32  C17 UNL     1      23.209  -0.411  53.179  1.00  0.00     0.029 A 
ENDBRANCH  24  27
ENDBRANCH   4  21
TORSDOF 5
ENDMDL
MODEL 2
REMARK VINA RESULT:      -9.2      2.727     10.589
REMARK  5 active torsions:
REMARK  status: ('A' for Active; 'I' for Inactive)
REMARK    1  A    between atoms: C6_8  and  O1_9 
REMARK    2  A    between atoms: O1_9  and  C7_10 
REMARK    3  A    between atoms: C10_13  and  N3_14 
REMARK       I    between atoms: N3_14  and  C11_15 
REMARK       I    between atoms: C11_15  and  N4_17 
REMARK    4  A    between atoms: N4_17  and  C12_18 
REMARK    5  A    between atoms: C22_28  and  O3_29 
ROOT
HETATM    1  C7  UNL     1      23.755   3.578  49.562  1.00  0.00     0.078 A 
HETATM    2  C8  UNL     1      24.968   3.230  50.162  1.00  0.00     0.039 A 
HETATM    3  C9  UNL     1      26.066   4.059  50.045  1.00  0.00     0.032 A 
HETATM    4  C10 UNL     1      26.031   5.250  49.346  1.00  0.00     0.036 A 
HETATM    5  C18 UNL     1      24.829   5.571  48.765  1.00  0.00     0.032 A 
HETATM    6  C19 UNL     1      23.711   4.762  48.863  1.00  0.00     0.039 A 
ENDROOT
BRANCH   1   7
HETATM    7  O1  UNL     1      22.712   2.713  49.717  1.00  0.00    -0.291 OA
BRANCH   7   8
HETATM    8  C6  UNL     1      21.753   2.751  50.698  1.00  0.00     0.179 A 
HETATM    9  N2  UNL     1      20.839   3.745  50.622  1.00  0.00    -0.217 NA
HETATM   10  C5  UNL     1      19.862   3.839  51.563  1.00  0.00     0.236 A 
HETATM   11  N1  UNL     1      19.836   2.917  52.567  1.00  0.00    -0.241 NA
HETATM   12  C4  UNL     1      20.749   1.932  52.635  1.00  0.00     0.069 A 
HETATM   13  C3  UNL     1      20.666   0.976  53.737  1.00  0.00     0.037 A 
HETATM   14  C20 UNL     1      21.755   1.812  51.690  1.00  0.00     0.027 A 
HETATM   15  C2  UNL     1      21.601   0.038  53.733  1.00  0.00    -0.053 A 
HETATM   16  C1  UNL     1      21.591  -0.979  54.820  1.00  0.00     0.046 C 
HETATM   17  C22 UNL     1      22.716  -0.203  52.798  1.00  0.00     0.151 A 
HETATM   18  C21 UNL     1      22.811   0.769  51.669  1.00  0.00     0.081 A 
BRANCH  17  19
HETATM   19  O3  UNL     1      23.957  -0.248  53.427  1.00  0.00    -0.391 OA
HETATM   20  H20 UNL     1      24.671  -0.364  52.752  1.00  0.00     0.210 HD
ENDBRANCH  17  19
ENDBRANCH   7   8
ENDBRANCH   1   7
BRANCH   4  21
HETATM   21  N3  UNL     1      27.210   6.039  49.279  1.00  0.00    -0.309 N 
HETATM   22  C11 UNL     1      28.459   5.692  48.710  1.00  0.00     0.325 C 
HETATM   23  O2  UNL     1      28.700   4.597  48.166  1.00  0.00    -0.247 OA
HETATM   24  N4  UNL     1      29.418   6.734  48.824  1.00  0.00    -0.309 N 
HETATM   25  H9  UNL     1      29.276   7.669  49.267  1.00  0.00     0.170 HD
HETATM   26  H8  UNL     1      26.962   6.934  49.741  1.00  0.00     0.170 HD
BRANCH  24  27
HETATM   27  C12 UNL     1      30.742   6.596  48.317  1.00  0.00     0.036 A 
HETATM   28  C13 UNL     1      31.731   6.140  49.188  1.00  0.00     0.029 A 
HETATM   29  C14 UNL     1      33.042   5.973  48.787  1.00  0.00     0.002 A 
HETATM   30  C15 UNL     1      33.412   6.264  47.477  1.00  0.00     0.000 A 
HETATM   31  C16 UNL     1      32.436   6.713  46.616  1.00  0.00     0.002 A 
HETATM   32  C17 UNL     1      31.112   6.884  47.011  1.00  0.00     0.029 A 
ENDBRANCH  24  27
ENDBRANCH   4  21
TORSDOF 5
ENDMDL
MODEL 3
REMARK VINA RESULT:      -9.1      2.240      4.056
REMARK  5 active torsions:
REMARK  status: ('A' for Active; 'I' for Inactive)
REMARK    1  A    between atoms: C6_8  and  O1_9 
REMARK    2  A    between atoms: O1_9  and  C7_10 
REMARK    3  A    between atoms: C10_13  and  N3_14 
REMARK       I    between atoms: N3_14  and  C11_15 
REMARK       I    between atoms: C11_15  and  N4_17 
REMARK    4  A    between atoms: N4_17  and  C12_18 
REMARK    5  A    between atoms: C22_28  and  O3_29 
ROOT
HETATM    1  C7  UNL     1      27.978   6.135  48.290  1.00  0.00     0.078 A 
HETATM    2  C8  UNL     1      27.858   4.779  48.602  1.00  0.00     0.039 A 
HETATM    3  C9  UNL     1      26.753   4.317  49.289  1.00  0.00     0.032 A 
HETATM    4  C10 UNL     1      25.727   5.146  49.697  1.00  0.00     0.036 A 
HETATM    5  C18 UNL     1      25.866   6.475  49.379  1.00  0.00     0.032 A 
HETATM    6  C19 UNL     1      26.960   6.969  48.693  1.00  0.00     0.039 A 
ENDROOT
BRANCH   1   7
HETATM    7  O1  UNL     1      29.094   6.523  47.611  1.00  0.00    -0.291 OA
BRANCH   7   8
HETATM    8  C6  UNL     1      30.322   6.817  48.149  1.00  0.00     0.179 A 
HETATM    9  N2  UNL     1      30.431   7.983  48.826  1.00  0.00    -0.217 NA
HETATM   10  C5  UNL     1      31.619   8.333  49.384  1.00  0.00     0.236 A 
HETATM   11  N1  UNL     1      32.679   7.488  49.242  1.00  0.00    -0.241 NA
HETATM   12  C4  UNL     1      32.563   6.330  48.567  1.00  0.00     0.069 A 
HETATM   13  C3  UNL     1      33.737   5.468  48.449  1.00  0.00     0.037 A 
HETATM   14  C20 UNL     1      31.364   5.947  47.988  1.00  0.00     0.027 A 
HETATM   15  C2  UNL     1      33.540   4.348  47.771  1.00  0.00    -0.053 A 
HETATM   16  C1  UNL     1      34.683   3.409  47.603  1.00  0.00     0.046 C 
HETATM   17  C22 UNL     1      32.329   3.824  47.111  1.00  0.00     0.151 A 
HETATM   18  C21 UNL     1      31.124   4.697  47.224  1.00  0.00     0.081 A 
BRANCH  17  19
HETATM   19  O3  UNL     1      32.521   3.536  45.763  1.00  0.00    -0.391 OA
HETATM   20  H20 UNL     1      32.024   4.185  45.208  1.00  0.00     0.210 HD
ENDBRANCH  17  19
ENDBRANCH   7   8
ENDBRANCH   1   7
BRANCH   4  21
HETATM   21  N3  UNL     1      24.629   4.582  50.398  1.00  0.00    -0.309 N 
HETATM   22  C11 UNL     1      24.488   3.257  50.875  1.00  0.00     0.325 C 
HETATM   23  O2  UNL     1      25.350   2.368  50.737  1.00  0.00    -0.247 OA
HETATM   24  N4  UNL     1      23.248   3.044  51.535  1.00  0.00    -0.309 N 
HETATM   25  H9  UNL     1      22.488   3.745  51.682  1.00  0.00     0.170 HD
HETATM   26  H8  UNL     1      23.941   5.353  50.488  1.00  0.00     0.170 HD
BRANCH  24  27
HETATM   27  C12 UNL     1      22.901   1.779  52.093  1.00  0.00     0.036 A 
HETATM   28  C13 UNL     1      21.768   1.136  51.596  1.00  0.00     0.029 A 
HETATM   29  C14 UNL     1      21.353  -0.092  52.073  1.00  0.00     0.002 A 
HETATM   30  C15 UNL     1      22.072  -0.726  53.082  1.00  0.00     0.000 A 
HETATM   31  C16 UNL     1      23.192  -0.092  53.573  1.00  0.00     0.002 A 
HETATM   32  C17 UNL     1      23.617   1.146  53.098  1.00  0.00     0.029 A 
ENDBRANCH  24  27
ENDBRANCH   4  21
TORSDOF 5
ENDMDL
MODEL 4
REMARK VINA RESULT:      -9.1      2.047     10.585
REMARK  5 active torsions:
REMARK  status: ('A' for Active; 'I' for Inactive)
REMARK    1  A    between atoms: C6_8  and  O1_9 
REMARK    2  A    between atoms: O1_9  and  C7_10 
REMARK    3  A    between atoms: C10_13  and  N3_14 
REMARK       I    between atoms: N3_14  and  C11_15 
REMARK       I    between atoms: C11_15  and  N4_17 
REMARK    4  A    between atoms: N4_17  and  C12_18 
REMARK    5  A    between atoms: C22_28  and  O3_29 
ROOT
HETATM    1  C7  UNL     1      25.510   3.808  50.070  1.00  0.00     0.078 A 
HETATM    2  C8  UNL     1      26.692   3.675  49.338  1.00  0.00     0.039 A 
HETATM    3  C9  UNL     1      27.301   4.787  48.789  1.00  0.00     0.032 A 
HETATM    4  C10 UNL     1      26.790   6.062  48.927  1.00  0.00     0.036 A 
HETATM    5  C18 UNL     1      25.627   6.169  49.650  1.00  0.00     0.032 A 
HETATM    6  C19 UNL     1      24.993   5.075  50.212  1.00  0.00     0.039 A 
ENDROOT
BRANCH   1   7
HETATM    7  O1  UNL     1      24.963   2.670  50.583  1.00  0.00    -0.291 OA
BRANCH   7   8
HETATM    8  C6  UNL     1      25.484   1.886  51.582  1.00  0.00     0.179 A 
HETATM    9  N2  UNL     1      26.825   1.923  51.752  1.00  0.00    -0.217 NA
HETATM   10  C5  UNL     1      27.405   1.171  52.724  1.00  0.00     0.236 A 
HETATM   11  N1  UNL     1      26.606   0.393  53.507  1.00  0.00    -0.241 NA
HETATM   12  C4  UNL     1      25.273   0.361  53.332  1.00  0.00     0.069 A 
HETATM   13  C3  UNL     1      24.472  -0.495  54.204  1.00  0.00     0.037 A 
HETATM   14  C20 UNL     1      24.655   1.118  52.349  1.00  0.00     0.027 A 
HETATM   15  C2  UNL     1      23.170  -0.469  53.968  1.00  0.00    -0.053 A 
HETATM   16  C1  UNL     1      22.277  -1.311  54.811  1.00  0.00     0.046 C 
HETATM   17  C22 UNL     1      22.389   0.283  52.966  1.00  0.00     0.151 A 
HETATM   18  C21 UNL     1      23.198   1.160  52.069  1.00  0.00     0.081 A 
BRANCH  17  19
HETATM   19  O3  UNL     1      21.598  -0.534  52.164  1.00  0.00    -0.391 OA
HETATM   20  H20 UNL     1      21.581  -1.451  52.533  1.00  0.00     0.210 HD
ENDBRANCH  17  19
ENDBRANCH   7   8
ENDBRANCH   1   7
BRANCH   4  21
HETATM   21  N3  UNL     1      27.484   7.146  48.329  1.00  0.00    -0.309 N 
HETATM   22  C11 UNL     1      27.830   8.388  48.913  1.00  0.00     0.325 C 
HETATM   23  O2  UNL     1      27.559   8.708  50.087  1.00  0.00    -0.247 OA
HETATM   24  N4  UNL     1      28.526   9.240  48.014  1.00  0.00    -0.309 N 
HETATM   25  H9  UNL     1      28.781   9.029  47.023  1.00  0.00     0.170 HD
HETATM   26  H8  UNL     1      27.687   6.836  47.360  1.00  0.00     0.170 HD
BRANCH  24  27
HETATM   27  C12 UNL     1      28.969  10.539  48.398  1.00  0.00     0.036 A 
HETATM   28  C13 UNL     1      30.326  10.713  48.662  1.00  0.00     0.029 A 
HETATM   29  C14 UNL     1      30.849  11.935  49.039  1.00  0.00     0.002 A 
HETATM   30  C15 UNL     1      30.013  13.041  49.166  1.00  0.00     0.000 A 
HETATM   31  C16 UNL     1      28.672  12.869  48.906  1.00  0.00     0.002 A 
HETATM   32  C17 UNL     1      28.136  11.641  48.525  1.00  0.00     0.029 A 
ENDBRANCH  24  27
ENDBRANCH   4  21
TORSDOF 5
ENDMDL
MODEL 5
REMARK VINA RESULT:      -9.0      2.252     10.686
REMARK  5 active torsions:
REMARK  status: ('A' for Active; 'I' for Inactive)
REMARK    1  A    between atoms: C6_8  and  O1_9 
REMARK    2  A    between atoms: O1_9  and  C7_10 
REMARK    3  A    between atoms: C10_13  and  N3_14 
REMARK       I    between atoms: N3_14  and  C11_15 
REMARK       I    between atoms: C11_15  and  N4_17 
REMARK    4  A    between atoms: N4_17  and  C12_18 
REMARK    5  A    between atoms: C22_28  and  O3_29 
ROOT
HETATM    1  C7  UNL     1      25.882   4.190  49.912  1.00  0.00     0.078 A 
HETATM    2  C8  UNL     1      25.351   5.481  49.932  1.00  0.00     0.039 A 
HETATM    3  C9  UNL     1      25.974   6.503  49.243  1.00  0.00     0.032 A 
HETATM    4  C10 UNL     1      27.130   6.312  48.511  1.00  0.00     0.036 A 
HETATM    5  C18 UNL     1      27.635   5.035  48.506  1.00  0.00     0.032 A 
HETATM    6  C19 UNL     1      27.034   3.991  49.186  1.00  0.00     0.039 A 
ENDROOT
BRANCH   1   7
HETATM    7  O1  UNL     1      25.215   3.230  50.614  1.00  0.00    -0.291 OA
BRANCH   7   8
HETATM    8  C6  UNL     1      25.746   2.386  51.558  1.00  0.00     0.179 A 
HETATM    9  N2  UNL     1      27.085   2.438  51.741  1.00  0.00    -0.217 NA
HETATM   10  C5  UNL     1      27.674   1.628  52.660  1.00  0.00     0.236 A 
HETATM   11  N1  UNL     1      26.886   0.778  53.377  1.00  0.00    -0.241 NA
HETATM   12  C4  UNL     1      25.555   0.732  53.189  1.00  0.00     0.069 A 
HETATM   13  C3  UNL     1      24.767  -0.202  53.989  1.00  0.00     0.037 A 
HETATM   14  C20 UNL     1      24.928   1.546  52.259  1.00  0.00     0.027 A 
HETATM   15  C2  UNL     1      23.466  -0.185  53.744  1.00  0.00    -0.053 A 
HETATM   16  C1  UNL     1      22.586  -1.106  54.516  1.00  0.00     0.046 C 
HETATM   17  C22 UNL     1      22.677   0.621  52.794  1.00  0.00     0.151 A 
HETATM   18  C21 UNL     1      23.473   1.578  51.970  1.00  0.00     0.081 A 
BRANCH  17  19
HETATM   19  O3  UNL     1      21.909  -0.150  51.927  1.00  0.00    -0.391 OA
HETATM   20  H20 UNL     1      22.108   0.099  50.991  1.00  0.00     0.210 HD
ENDBRANCH  17  19
ENDBRANCH   7   8
ENDBRANCH   1   7
BRANCH   4  21
HETATM   21  N3  UNL     1      27.702   7.421  47.834  1.00  0.00    -0.309 N 
HETATM   22  C11 UNL     1      28.979   7.999  48.033  1.00  0.00     0.325 C 
HETATM   23  O2  UNL     1      29.809   7.591  48.868  1.00  0.00    -0.247 OA
HETATM   24  N4  UNL     1      29.218   9.103  47.172  1.00  0.00    -0.309 N 
HETATM   25  H9  UNL     1      28.564   9.491  46.455  1.00  0.00     0.170 HD
HETATM   26  H8  UNL     1      26.980   7.724  47.154  1.00  0.00     0.170 HD
BRANCH  24  27
HETATM   27  C12 UNL     1      30.442   9.832  47.205  1.00  0.00     0.036 A 
HETATM   28  C13 UNL     1      31.504   9.358  46.436  1.00  0.00     0.029 A 
HETATM   29  C14 UNL     1      32.728   9.997  46.402  1.00  0.00     0.002 A 
HETATM   30  C15 UNL     1      32.931  11.152  47.153  1.00  0.00     0.000 A 
HETATM   31  C16 UNL     1      31.883  11.621  47.912  1.00  0.00     0.002 A 
HETATM   32  C17 UNL     1      30.646  10.983  47.952  1.00  0.00     0.029 A 
ENDBRANCH  24  27
ENDBRANCH   4  21
TORSDOF 5
ENDMDL
MODEL 6
REMARK VINA RESULT:      -8.8      2.168     10.814
REMARK  5 active torsions:
REMARK  status: ('A' for Active; 'I' for Inactive)
REMARK    1  A    between atoms: C6_8  and  O1_9 
REMARK    2  A    between atoms: O1_9  and  C7_10 
REMARK    3  A    between atoms: C10_13  and  N3_14 
REMARK       I    between atoms: N3_14  and  C11_15 
REMARK       I    between atoms: C11_15  and  N4_17 
REMARK    4  A    between atoms: N4_17  and  C12_18 
REMARK    5  A    between atoms: C22_28  and  O3_29 
ROOT
HETATM    1  C7  UNL     1      23.522   4.422  49.988  1.00  0.00     0.078 A 
HETATM    2  C8  UNL     1      23.307   5.428  50.933  1.00  0.00     0.039 A 
HETATM    3  C9  UNL     1      24.238   6.434  51.105  1.00  0.00     0.032 A 
HETATM    4  C10 UNL     1      25.406   6.502  50.372  1.00  0.00     0.036 A 
HETATM    5  C18 UNL     1      25.597   5.502  49.449  1.00  0.00     0.032 A 
HETATM    6  C19 UNL     1      24.683   4.482  49.254  1.00  0.00     0.039 A 
ENDROOT
BRANCH   1   7
HETATM    7  O1  UNL     1      22.562   3.461  49.871  1.00  0.00    -0.291 OA
BRANCH   7   8
HETATM    8  C6  UNL     1      21.551   3.198  50.762  1.00  0.00     0.179 A 
HETATM    9  N2  UNL     1      20.433   3.952  50.659  1.00  0.00    -0.217 NA
HETATM   10  C5  UNL     1      19.394   3.742  51.510  1.00  0.00     0.236 A 
HETATM   11  N1  UNL     1      19.515   2.765  52.453  1.00  0.00    -0.241 NA
HETATM   12  C4  UNL     1      20.630   2.020  52.549  1.00  0.00     0.069 A 
HETATM   13  C3  UNL     1      20.696   0.989  53.583  1.00  0.00     0.037 A 
HETATM   14  C20 UNL     1      21.704   2.212  51.695  1.00  0.00     0.027 A 
HETATM   15  C2  UNL     1      21.826   0.300  53.611  1.00  0.00    -0.053 A 
HETATM   16  C1  UNL     1      21.979  -0.772  54.633  1.00  0.00     0.046 C 
HETATM   17  C22 UNL     1      23.034   0.399  52.770  1.00  0.00     0.151 A 
HETATM   18  C21 UNL     1      22.978   1.450  51.711  1.00  0.00     0.081 A 
BRANCH  17  19
HETATM   19  O3  UNL     1      24.198   0.599  53.506  1.00  0.00    -0.391 OA
HETATM   20  H20 UNL     1      24.856   1.100  52.964  1.00  0.00     0.210 HD
ENDBRANCH  17  19
ENDBRANCH   7   8
ENDBRANCH   1   7
BRANCH   4  21
HETATM   21  N3  UNL     1      26.307   7.572  50.616  1.00  0.00    -0.309 N 
HETATM   22  C11 UNL     1      27.106   8.269  49.678  1.00  0.00     0.325 C 
HETATM   23  O2  UNL     1      27.125   8.024  48.456  1.00  0.00    -0.247 OA
HETATM   24  N4  UNL     1      27.891   9.287  50.281  1.00  0.00    -0.309 N 
HETATM   25  H9  UNL     1      27.919   9.539  51.295  1.00  0.00     0.170 HD
HETATM   26  H8  UNL     1      26.258   7.739  51.639  1.00  0.00     0.170 HD
BRANCH  24  27
HETATM   27  C12 UNL     1      28.768  10.112  49.519  1.00  0.00     0.036 A 
HETATM   28  C13 UNL     1      30.091   9.696  49.371  1.00  0.00     0.029 A 
HETATM   29  C14 UNL     1      31.014  10.428  48.649  1.00  0.00     0.002 A 
HETATM   30  C15 UNL     1      30.634  11.622  48.041  1.00  0.00     0.000 A 
HETATM   31  C16 UNL     1      29.328  12.032  48.186  1.00  0.00     0.002 A 
HETATM   32  C17 UNL     1      28.391  11.301  48.911  1.00  0.00     0.029 A 
ENDBRANCH  24  27
ENDBRANCH   4  21
TORSDOF 5
ENDMDL
MODEL 7
REMARK VINA RESULT:      -8.8      5.375      8.648
REMARK  5 active torsions:
REMARK  status: ('A' for Active; 'I' for Inactive)
REMARK    1  A    between atoms: C6_8  and  O1_9 
REMARK    2  A    between atoms: O1_9  and  C7_10 
REMARK    3  A    between atoms: C10_13  and  N3_14 
REMARK       I    between atoms: N3_14  and  C11_15 
REMARK       I    between atoms: C11_15  and  N4_17 
REMARK    4  A    between atoms: N4_17  and  C12_18 
REMARK    5  A    between atoms: C22_28  and  O3_29 
ROOT
HETATM    1  C7  UNL     1      22.179   1.807  51.175  1.00  0.00     0.078 A 
HETATM    2  C8  UNL     1      21.820   2.542  52.307  1.00  0.00     0.039 A 
HETATM    3  C9  UNL     1      20.609   3.204  52.353  1.00  0.00     0.032 A 
HETATM    4  C10 UNL     1      19.704   3.177  51.311  1.00  0.00     0.036 A 
HETATM    5  C18 UNL     1      20.077   2.448  50.208  1.00  0.00     0.032 A 
HETATM    6  C19 UNL     1      21.283   1.775  50.131  1.00  0.00     0.039 A 
ENDROOT
BRANCH   1   7
HETATM    7  O1  UNL     1      23.389   1.180  51.196  1.00  0.00    -0.291 OA
BRANCH   7   8
HETATM    8  C6  UNL     1      24.624   1.779  51.198  1.00  0.00     0.179 A 
HETATM    9  N2  UNL     1      24.830   2.760  50.290  1.00  0.00    -0.217 NA
HETATM   10  C5  UNL     1      26.031   3.394  50.239  1.00  0.00     0.236 A 
HETATM   11  N1  UNL     1      27.004   3.014  51.115  1.00  0.00    -0.241 NA
HETATM   12  C4  UNL     1      26.792   2.037  52.014  1.00  0.00     0.069 A 
HETATM   13  C3  UNL     1      27.876   1.677  52.925  1.00  0.00     0.037 A 
HETATM   14  C20 UNL     1      25.578   1.374  52.089  1.00  0.00     0.027 A 
HETATM   15  C2  UNL     1      27.588   0.708  53.779  1.00  0.00    -0.053 A 
HETATM   16  C1  UNL     1      28.636   0.277  54.746  1.00  0.00     0.046 C 
HETATM   17  C22 UNL     1      26.350  -0.073  53.965  1.00  0.00     0.151 A 
HETATM   18  C21 UNL     1      25.236   0.286  53.039  1.00  0.00     0.081 A 
BRANCH  17  19
HETATM   19  O3  UNL     1      26.551  -1.448  53.876  1.00  0.00    -0.391 OA
HETATM   20  H20 UNL     1      26.661  -1.710  52.929  1.00  0.00     0.210 HD
ENDBRANCH  17  19
ENDBRANCH   7   8
ENDBRANCH   1   7
BRANCH   4  21
HETATM   21  N3  UNL     1      18.481   3.887  51.447  1.00  0.00    -0.309 N 
HETATM   22  C11 UNL     1      17.199   3.364  51.740  1.00  0.00     0.325 C 
HETATM   23  O2  UNL     1      16.962   2.155  51.928  1.00  0.00    -0.247 OA
HETATM   24  N4  UNL     1      16.200   4.372  51.800  1.00  0.00    -0.309 N 
HETATM   25  H9  UNL     1      16.335   5.397  51.653  1.00  0.00     0.170 HD
HETATM   26  H8  UNL     1      18.727   4.881  51.284  1.00  0.00     0.170 HD
BRANCH  24  27
HETATM   27  C12 UNL     1      14.837   4.065  52.083  1.00  0.00     0.036 A 
HETATM   28  C13 UNL     1      14.364   4.320  53.369  1.00  0.00     0.029 A 
HETATM   29  C14 UNL     1      13.059   4.057  53.736  1.00  0.00     0.002 A 
HETATM   30  C15 UNL     1      12.170   3.519  52.810  1.00  0.00     0.000 A 
HETATM   31  C16 UNL     1      12.636   3.267  51.539  1.00  0.00     0.002 A 
HETATM   32  C17 UNL     1      13.950   3.529  51.160  1.00  0.00     0.029 A 
ENDBRANCH  24  27
ENDBRANCH   4  21
TORSDOF 5
ENDMDL
MODEL 8
REMARK VINA RESULT:      -8.7      7.178     12.882
REMARK  5 active torsions:
REMARK  status: ('A' for Active; 'I' for Inactive)
REMARK    1  A    between atoms: C6_8  and  O1_9 
REMARK    2  A    between atoms: O1_9  and  C7_10 
REMARK    3  A    between atoms: C10_13  and  N3_14 
REMARK       I    between atoms: N3_14  and  C11_15 
REMARK       I    between atoms: C11_15  and  N4_17 
REMARK    4  A    between atoms: N4_17  and  C12_18 
REMARK    5  A    between atoms: C22_28  and  O3_29 
ROOT
HETATM    1  C7  UNL     1      19.562   0.093  52.937  1.00  0.00     0.078 A 
HETATM    2  C8  UNL     1      20.508   0.296  53.943  1.00  0.00     0.039 A 
HETATM    3  C9  UNL     1      21.833   0.519  53.620  1.00  0.00     0.032 A 
HETATM    4  C10 UNL     1      22.287   0.554  52.317  1.00  0.00     0.036 A 
HETATM    5  C18 UNL     1      21.339   0.351  51.344  1.00  0.00     0.032 A 
HETATM    6  C19 UNL     1      20.006   0.125  51.635  1.00  0.00     0.039 A 
ENDROOT
BRANCH   1   7
HETATM    7  O1  UNL     1      18.273  -0.122  53.326  1.00  0.00    -0.291 OA
BRANCH   7   8
HETATM    8  C6  UNL     1      17.557  -1.285  53.188  1.00  0.00     0.179 A 
HETATM    9  N2  UNL     1      18.081  -2.397  53.751  1.00  0.00    -0.217 NA
HETATM   10  C5  UNL     1      17.422  -3.582  53.651  1.00  0.00     0.236 A 
HETATM   11  N1  UNL     1      16.238  -3.612  52.977  1.00  0.00    -0.241 NA
HETATM   12  C4  UNL     1      15.723  -2.501  52.419  1.00  0.00     0.069 A 
HETATM   13  C3  UNL     1      14.450  -2.600  51.709  1.00  0.00     0.037 A 
HETATM   14  C20 UNL     1      16.373  -1.281  52.506  1.00  0.00     0.027 A 
HETATM   15  C2  UNL     1      14.012  -1.464  51.190  1.00  0.00    -0.053 A 
HETATM   16  C1  UNL     1      12.720  -1.472  50.449  1.00  0.00     0.046 C 
HETATM   17  C22 UNL     1      14.597  -0.109  51.208  1.00  0.00     0.151 A 
HETATM   18  C21 UNL     1      15.898   0.003  51.930  1.00  0.00     0.081 A 
BRANCH  17  19
HETATM   19  O3  UNL     1      14.767   0.431  49.937  1.00  0.00    -0.391 OA
HETATM   20  H20 UNL     1      14.453   1.368  49.926  1.00  0.00     0.210 HD
ENDBRANCH  17  19
ENDBRANCH   7   8
ENDBRANCH   1   7
BRANCH   4  21
HETATM   21  N3  UNL     1      23.666   0.790  52.079  1.00  0.00    -0.309 N 
HETATM   22  C11 UNL     1      24.775   0.258  52.781  1.00  0.00     0.325 C 
HETATM   23  O2  UNL     1      24.682  -0.526  53.745  1.00  0.00    -0.247 OA
HETATM   24  N4  UNL     1      26.017   0.715  52.265  1.00  0.00    -0.309 N 
HETATM   25  H9  UNL     1      26.160   1.369  51.463  1.00  0.00     0.170 HD
HETATM   26  H8  UNL     1      23.694   1.443  51.273  1.00  0.00     0.170 HD
BRANCH  24  27
HETATM   27  C12 UNL     1      27.261   0.302  52.824  1.00  0.00     0.036 A 
HETATM   28  C13 UNL     1      27.575  -1.056  52.785  1.00  0.00     0.029 A 
HETATM   29  C14 UNL     1      28.758  -1.550  53.299  1.00  0.00     0.002 A 
HETATM   30  C15 UNL     1      29.680  -0.684  53.881  1.00  0.00     0.000 A 
HETATM   31  C16 UNL     1      29.371   0.657  53.919  1.00  0.00     0.002 A 
HETATM   32  C17 UNL     1      28.181   1.164  53.403  1.00  0.00     0.029 A 
ENDBRANCH  24  27
ENDBRANCH   4  21
TORSDOF 5
ENDMDL
MODEL 9
REMARK VINA RESULT:      -8.6      7.522     11.550
REMARK  5 active torsions:
REMARK  status: ('A' for Active; 'I' for Inactive)
REMARK    1  A    between atoms: C6_8  and  O1_9 
REMARK    2  A    between atoms: O1_9  and  C7_10 
REMARK    3  A    between atoms: C10_13  and  N3_14 
REMARK       I    between atoms: N3_14  and  C11_15 
REMARK       I    between atoms: C11_15  and  N4_17 
REMARK    4  A    between atoms: N4_17  and  C12_18 
REMARK    5  A    between atoms: C22_28  and  O3_29 
ROOT
HETATM    1  C7  UNL     1      20.126   0.481  51.699  1.00  0.00     0.078 A 
HETATM    2  C8  UNL     1      21.383   0.879  51.241  1.00  0.00     0.039 A 
HETATM    3  C9  UNL     1      22.519   0.564  51.960  1.00  0.00     0.032 A 
HETATM    4  C10 UNL     1      22.480  -0.146  53.144  1.00  0.00     0.036 A 
HETATM    5  C18 UNL     1      21.233  -0.526  53.576  1.00  0.00     0.032 A 
HETATM    6  C19 UNL     1      20.076  -0.225  52.879  1.00  0.00     0.039 A 
ENDROOT
BRANCH   1   7
HETATM    7  O1  UNL     1      19.047   0.827  50.940  1.00  0.00    -0.291 OA
BRANCH   7   8
HETATM    8  C6  UNL     1      18.264   1.944  51.087  1.00  0.00     0.179 A 
HETATM    9  N2  UNL     1      18.817   3.129  50.741  1.00  0.00    -0.217 NA
HETATM   10  C5  UNL     1      18.096   4.274  50.862  1.00  0.00     0.236 A 
HETATM   11  N1  UNL     1      16.820   4.192  51.336  1.00  0.00    -0.241 NA
HETATM   12  C4  UNL     1      16.277   3.010  51.678  1.00  0.00     0.069 A 
HETATM   13  C3  UNL     1      14.905   2.989  52.180  1.00  0.00     0.037 A 
HETATM   14  C20 UNL     1      16.989   1.827  51.565  1.00  0.00     0.027 A 
HETATM   15  C2  UNL     1      14.444   1.788  52.494  1.00  0.00    -0.053 A 
HETATM   16  C1  UNL     1      13.053   1.674  53.013  1.00  0.00     0.046 C 
HETATM   17  C22 UNL     1      15.088   0.463  52.422  1.00  0.00     0.151 A 
HETATM   18  C21 UNL     1      16.490   0.472  51.912  1.00  0.00     0.081 A 
BRANCH  17  19
HETATM   19  O3  UNL     1      15.082  -0.215  53.638  1.00  0.00    -0.391 OA
HETATM   20  H20 UNL     1      14.206  -0.098  54.082  1.00  0.00     0.210 HD
ENDBRANCH  17  19
ENDBRANCH   7   8
ENDBRANCH   1   7
BRANCH   4  21
HETATM   21  N3  UNL     1      23.699  -0.425  53.816  1.00  0.00    -0.309 N 
HETATM   22  C11 UNL     1      25.019  -0.207  53.352  1.00  0.00     0.325 C 
HETATM   23  O2  UNL     1      25.298   0.284  52.241  1.00  0.00    -0.247 OA
HETATM   24  N4  UNL     1      26.002  -0.608  54.295  1.00  0.00    -0.309 N 
HETATM   25  H9  UNL     1      25.831  -1.024  55.238  1.00  0.00     0.170 HD
HETATM   26  H8  UNL     1      23.418  -0.829  54.729  1.00  0.00     0.170 HD
BRANCH  24  27
HETATM   27  C12 UNL     1      27.396  -0.476  54.032  1.00  0.00     0.036 A 
HETATM   28  C13 UNL     1      28.037   0.680  54.476  1.00  0.00     0.029 A 
HETATM   29  C14 UNL     1      29.385   0.896  54.269  1.00  0.00     0.002 A 
HETATM   30  C15 UNL     1      30.148  -0.055  53.597  1.00  0.00     0.000 A 
HETATM   31  C16 UNL     1      29.516  -1.196  53.158  1.00  0.00     0.002 A 
HETATM   32  C17 UNL     1      28.157  -1.423  53.363  1.00  0.00     0.029 A 
ENDBRANCH  24  27
ENDBRANCH   4  21
TORSDOF 5
ENDMDL
