MODEL 1
REMARK VINA RESULT:      -8.9      0.000      0.000
REMARK  5 active torsions:
REMARK  status: ('A' for Active; 'I' for Inactive)
REMARK    1  A    between atoms: C3_3  and  C4_4 
REMARK    2  A    between atoms: C13_16  and  C14_17 
REMARK    3  A    between atoms: C14_17  and  O2_18 
REMARK    4  A    between atoms: C15_19  and  C16_20 
REMARK    5  A    between atoms: C16_20  and  C17_21 
ROOT
HETATM    1  C1  UNL     1      26.467  -2.053  52.401  1.00  0.00     0.046 C 
HETATM    2  C2  UNL     1      26.564  -0.735  53.021  1.00  0.00    -0.051 C 
HETATM    3  C3  UNL     1      25.521   0.092  53.300  1.00  0.00     0.031 C 
HETATM    4  N2  UNL     1      26.131   1.314  53.851  1.00  0.00    -0.382 N 
HETATM    5  C13 UNL     1      27.469   1.371  53.181  1.00  0.00     0.114 C 
HETATM    6  C15 UNL     1      27.804  -0.099  53.475  1.00  0.00     0.047 C 
HETATM    7  H10 UNL     1      25.838   2.040  54.530  1.00  0.00     0.160 HD
ENDROOT
BRANCH   3   8
HETATM    8  C4  UNL     1      24.103   0.016  53.131  1.00  0.00     0.047 C 
HETATM    9  C5  UNL     1      22.925  -0.329  53.521  1.00  0.00     0.046 A 
HETATM   10  C6  UNL     1      22.505  -1.016  54.727  1.00  0.00     0.257 A 
HETATM   11  C12 UNL     1      21.648  -0.140  52.828  1.00  0.00     0.006 A 
HETATM   12  O1  UNL     1      23.018  -1.486  55.760  1.00  0.00    -0.267 OA
HETATM   13  N1  UNL     1      21.106  -1.232  54.772  1.00  0.00    -0.322 N 
HETATM   14  C7  UNL     1      20.621  -0.666  53.566  1.00  0.00     0.046 A 
HETATM   15  H5  UNL     1      20.424  -1.676  55.444  1.00  0.00     0.169 HD
HETATM   16  C8  UNL     1      19.373  -0.541  52.998  1.00  0.00     0.030 A 
HETATM   17  C9  UNL     1      19.052   0.044  51.795  1.00  0.00     0.002 A 
HETATM   18  C10 UNL     1      20.076   0.572  51.051  1.00  0.00     0.001 A 
HETATM   19  C11 UNL     1      21.329   0.460  51.596  1.00  0.00     0.015 A 
ENDBRANCH   3   8
BRANCH   6  20
HETATM   20  C16 UNL     1      29.088  -0.524  52.913  1.00  0.00     0.080 C 
BRANCH  20  21
HETATM   21  C17 UNL     1      29.747  -1.536  53.746  1.00  0.00     0.231 C 
HETATM   22  O3  UNL     1      29.464  -2.720  53.670  1.00  0.00    -0.307 OA
ENDBRANCH  20  21
ENDBRANCH   6  20
BRANCH   5  23
HETATM   23  C14 UNL     1      28.364   2.318  53.888  1.00  0.00     0.189 C 
BRANCH  23  24
HETATM   24  O2  UNL     1      29.050   3.093  52.955  1.00  0.00    -0.399 OA
HETATM   25  H14 UNL     1      29.841   3.501  53.413  1.00  0.00     0.209 HD
ENDBRANCH  23  24
ENDBRANCH   5  23
TORSDOF 5
ENDMDL
MODEL 2
REMARK VINA RESULT:      -8.7      1.158      2.599
REMARK  5 active torsions:
REMARK  status: ('A' for Active; 'I' for Inactive)
REMARK    1  A    between atoms: C3_3  and  C4_4 
REMARK    2  A    between atoms: C13_16  and  C14_17 
REMARK    3  A    between atoms: C14_17  and  O2_18 
REMARK    4  A    between atoms: C15_19  and  C16_20 
REMARK    5  A    between atoms: C16_20  and  C17_21 
ROOT
HETATM    1  C1  UNL     1      26.098   1.735  54.624  1.00  0.00     0.046 C 
HETATM    2  C2  UNL     1      26.408   0.552  53.828  1.00  0.00    -0.051 C 
HETATM    3  C3  UNL     1      25.503  -0.234  53.186  1.00  0.00     0.031 C 
HETATM    4  N2  UNL     1      26.291  -1.325  52.587  1.00  0.00    -0.382 N 
HETATM    5  C13 UNL     1      27.453  -1.472  53.522  1.00  0.00     0.114 C 
HETATM    6  C15 UNL     1      27.753   0.034  53.564  1.00  0.00     0.047 C 
HETATM    7  H10 UNL     1      26.198  -1.924  51.747  1.00  0.00     0.160 HD
ENDROOT
BRANCH   3   8
HETATM    8  C4  UNL     1      24.081  -0.220  53.041  1.00  0.00     0.047 C 
HETATM    9  C5  UNL     1      22.889  -0.475  53.459  1.00  0.00     0.046 A 
HETATM   10  C6  UNL     1      22.446  -1.100  54.690  1.00  0.00     0.257 A 
HETATM   11  C12 UNL     1      21.616  -0.220  52.780  1.00  0.00     0.006 A 
HETATM   12  O1  UNL     1      22.944  -1.575  55.728  1.00  0.00    -0.267 OA
HETATM   13  N1  UNL     1      21.036  -1.221  54.763  1.00  0.00    -0.322 N 
HETATM   14  C7  UNL     1      20.569  -0.657  53.549  1.00  0.00     0.046 A 
HETATM   15  H5  UNL     1      20.338  -1.601  55.457  1.00  0.00     0.169 HD
HETATM   16  C8  UNL     1      19.322  -0.465  52.998  1.00  0.00     0.030 A 
HETATM   17  C9  UNL     1      19.019   0.108  51.784  1.00  0.00     0.002 A 
HETATM   18  C10 UNL     1      20.063   0.546  51.010  1.00  0.00     0.001 A 
HETATM   19  C11 UNL     1      21.315   0.366  51.537  1.00  0.00     0.015 A 
ENDBRANCH   3   8
BRANCH   6  20
HETATM   20  C16 UNL     1      28.856   0.379  54.463  1.00  0.00     0.080 C 
BRANCH  20  21
HETATM   21  C17 UNL     1      29.393   1.717  54.191  1.00  0.00     0.231 C 
HETATM   22  O3  UNL     1      29.760   2.461  55.086  1.00  0.00    -0.307 OA
ENDBRANCH  20  21
ENDBRANCH   6  20
BRANCH   5  23
HETATM   23  C14 UNL     1      28.536  -2.258  52.884  1.00  0.00     0.189 C 
BRANCH  23  24
HETATM   24  O2  UNL     1      28.532  -3.554  53.396  1.00  0.00    -0.399 OA
HETATM   25  H14 UNL     1      28.567  -4.191  52.625  1.00  0.00     0.209 HD
ENDBRANCH  23  24
ENDBRANCH   5  23
TORSDOF 5
ENDMDL
MODEL 3
REMARK VINA RESULT:      -8.4      1.791      2.246
REMARK  5 active torsions:
REMARK  status: ('A' for Active; 'I' for Inactive)
REMARK    1  A    between atoms: C3_3  and  C4_4 
REMARK    2  A    between atoms: C13_16  and  C14_17 
REMARK    3  A    between atoms: C14_17  and  O2_18 
REMARK    4  A    between atoms: C15_19  and  C16_20 
REMARK    5  A    between atoms: C16_20  and  C17_21 
ROOT
HETATM    1  C1  UNL     1      25.403  -0.821  54.079  1.00  0.00     0.046 C 
HETATM    2  C2  UNL     1      25.334   0.381  53.255  1.00  0.00    -0.051 C 
HETATM    3  C3  UNL     1      24.210   0.895  52.689  1.00  0.00     0.031 C 
HETATM    4  N2  UNL     1      24.663   2.058  51.908  1.00  0.00    -0.382 N 
HETATM    5  C13 UNL     1      26.060   1.690  51.511  1.00  0.00     0.114 C 
HETATM    6  C15 UNL     1      26.466   1.252  52.926  1.00  0.00     0.047 C 
HETATM    7  H10 UNL     1      24.244   2.963  51.626  1.00  0.00     0.160 HD
ENDROOT
BRANCH   3   8
HETATM    8  C4  UNL     1      22.828   0.524  52.679  1.00  0.00     0.047 C 
HETATM    9  C5  UNL     1      21.801  -0.061  53.189  1.00  0.00     0.046 A 
HETATM   10  C6  UNL     1      21.675  -0.825  54.416  1.00  0.00     0.257 A 
HETATM   11  C12 UNL     1      20.441  -0.142  52.650  1.00  0.00     0.006 A 
HETATM   12  O1  UNL     1      22.390  -1.180  55.372  1.00  0.00    -0.267 OA
HETATM   13  N1  UNL     1      20.366  -1.329  54.612  1.00  0.00    -0.322 N 
HETATM   14  C7  UNL     1      19.638  -0.874  53.484  1.00  0.00     0.046 A 
HETATM   15  H5  UNL     1      19.874  -1.909  55.344  1.00  0.00     0.169 HD
HETATM   16  C8  UNL     1      18.333  -1.011  53.065  1.00  0.00     0.030 A 
HETATM   17  C9  UNL     1      17.761  -0.502  51.922  1.00  0.00     0.002 A 
HETATM   18  C10 UNL     1      18.560   0.231  51.082  1.00  0.00     0.001 A 
HETATM   19  C11 UNL     1      19.863   0.382  51.479  1.00  0.00     0.015 A 
ENDBRANCH   3   8
BRANCH   6  20
HETATM   20  C16 UNL     1      27.832   0.730  53.000  1.00  0.00     0.080 C 
BRANCH  20  21
HETATM   21  C17 UNL     1      28.655   1.469  53.964  1.00  0.00     0.231 C 
HETATM   22  O3  UNL     1      28.534   2.671  54.129  1.00  0.00    -0.307 OA
ENDBRANCH  20  21
ENDBRANCH   6  20
BRANCH   5  23
HETATM   23  C14 UNL     1      26.799   2.888  51.044  1.00  0.00     0.189 C 
BRANCH  23  24
HETATM   24  O2  UNL     1      25.933   3.978  50.997  1.00  0.00    -0.399 OA
HETATM   25  H14 UNL     1      26.057   4.509  51.836  1.00  0.00     0.209 HD
ENDBRANCH  23  24
ENDBRANCH   5  23
TORSDOF 5
ENDMDL
MODEL 4
REMARK VINA RESULT:      -8.4      2.037      7.491
REMARK  5 active torsions:
REMARK  status: ('A' for Active; 'I' for Inactive)
REMARK    1  A    between atoms: C3_3  and  C4_4 
REMARK    2  A    between atoms: C13_16  and  C14_17 
REMARK    3  A    between atoms: C14_17  and  O2_18 
REMARK    4  A    between atoms: C15_19  and  C16_20 
REMARK    5  A    between atoms: C16_20  and  C17_21 
ROOT
HETATM    1  C1  UNL     1      23.354   1.834  51.131  1.00  0.00     0.046 C 
HETATM    2  C2  UNL     1      22.817   0.972  52.180  1.00  0.00    -0.051 C 
HETATM    3  C3  UNL     1      23.545   0.167  52.998  1.00  0.00     0.031 C 
HETATM    4  N2  UNL     1      22.555  -0.542  53.827  1.00  0.00    -0.382 N 
HETATM    5  C13 UNL     1      21.351  -0.625  52.941  1.00  0.00     0.114 C 
HETATM    6  C15 UNL     1      21.402   0.857  52.543  1.00  0.00     0.047 C 
HETATM    7  H10 UNL     1      22.547  -0.936  54.785  1.00  0.00     0.160 HD
ENDROOT
BRANCH   3   8
HETATM    8  C4  UNL     1      24.938  -0.119  53.150  1.00  0.00     0.047 C 
HETATM    9  C5  UNL     1      26.141   0.210  53.470  1.00  0.00     0.046 A 
HETATM   10  C6  UNL     1      26.662   1.465  53.977  1.00  0.00     0.257 A 
HETATM   11  C12 UNL     1      27.357  -0.604  53.389  1.00  0.00     0.006 A 
HETATM   12  O1  UNL     1      26.238   2.593  54.291  1.00  0.00    -0.267 OA
HETATM   13  N1  UNL     1      28.063   1.429  54.186  1.00  0.00    -0.322 N 
HETATM   14  C7  UNL     1      28.444   0.118  53.805  1.00  0.00     0.046 A 
HETATM   15  H5  UNL     1      28.800   2.102  54.529  1.00  0.00     0.169 HD
HETATM   16  C8  UNL     1      29.643  -0.559  53.765  1.00  0.00     0.030 A 
HETATM   17  C9  UNL     1      29.862  -1.856  53.362  1.00  0.00     0.002 A 
HETATM   18  C10 UNL     1      28.776  -2.584  52.944  1.00  0.00     0.001 A 
HETATM   19  C11 UNL     1      27.572  -1.931  52.975  1.00  0.00     0.015 A 
ENDBRANCH   3   8
BRANCH   6  20
HETATM   20  C16 UNL     1      20.369   1.233  51.576  1.00  0.00     0.080 C 
BRANCH  20  21
HETATM   21  C17 UNL     1      19.582   2.386  52.028  1.00  0.00     0.231 C 
HETATM   22  O3  UNL     1      20.096   3.341  52.586  1.00  0.00    -0.307 OA
ENDBRANCH  20  21
ENDBRANCH   6  20
BRANCH   5  23
HETATM   23  C14 UNL     1      20.146  -0.968  53.734  1.00  0.00     0.189 C 
BRANCH  23  24
HETATM   24  O2  UNL     1      20.521  -1.708  54.853  1.00  0.00    -0.399 OA
HETATM   25  H14 UNL     1      19.819  -1.584  55.556  1.00  0.00     0.209 HD
ENDBRANCH  23  24
ENDBRANCH   5  23
TORSDOF 5
ENDMDL
MODEL 5
REMARK VINA RESULT:      -8.2      2.408      7.354
REMARK  5 active torsions:
REMARK  status: ('A' for Active; 'I' for Inactive)
REMARK    1  A    between atoms: C3_3  and  C4_4 
REMARK    2  A    between atoms: C13_16  and  C14_17 
REMARK    3  A    between atoms: C14_17  and  O2_18 
REMARK    4  A    between atoms: C15_19  and  C16_20 
REMARK    5  A    between atoms: C16_20  and  C17_21 
ROOT
HETATM    1  C1  UNL     1      22.206  -1.613  54.581  1.00  0.00     0.046 C 
HETATM    2  C2  UNL     1      22.230  -0.549  53.581  1.00  0.00    -0.051 C 
HETATM    3  C3  UNL     1      23.344  -0.004  53.025  1.00  0.00     0.031 C 
HETATM    4  N2  UNL     1      22.853   1.063  52.137  1.00  0.00    -0.382 N 
HETATM    5  C13 UNL     1      21.585   1.511  52.795  1.00  0.00     0.114 C 
HETATM    6  C15 UNL     1      21.049   0.085  52.988  1.00  0.00     0.047 C 
HETATM    7  H10 UNL     1      23.184   1.496  51.256  1.00  0.00     0.160 HD
ENDROOT
BRANCH   3   8
HETATM    8  C4  UNL     1      24.750  -0.224  53.166  1.00  0.00     0.047 C 
HETATM    9  C5  UNL     1      25.940   0.163  53.471  1.00  0.00     0.046 A 
HETATM   10  C6  UNL     1      26.407   1.445  53.961  1.00  0.00     0.257 A 
HETATM   11  C12 UNL     1      27.191  -0.596  53.386  1.00  0.00     0.006 A 
HETATM   12  O1  UNL     1      25.935   2.555  54.269  1.00  0.00    -0.267 OA
HETATM   13  N1  UNL     1      27.810   1.475  54.157  1.00  0.00    -0.322 N 
HETATM   14  C7  UNL     1      28.247   0.179  53.784  1.00  0.00     0.046 A 
HETATM   15  H5  UNL     1      28.519   2.184  54.486  1.00  0.00     0.169 HD
HETATM   16  C8  UNL     1      29.476  -0.443  53.739  1.00  0.00     0.030 A 
HETATM   17  C9  UNL     1      29.750  -1.732  53.345  1.00  0.00     0.002 A 
HETATM   18  C10 UNL     1      28.695  -2.513  52.945  1.00  0.00     0.001 A 
HETATM   19  C11 UNL     1      27.463  -1.916  52.981  1.00  0.00     0.015 A 
ENDBRANCH   3   8
BRANCH   6  20
HETATM   20  C16 UNL     1      19.767   0.039  53.694  1.00  0.00     0.080 C 
BRANCH  20  21
HETATM   21  C17 UNL     1      18.798  -0.834  53.023  1.00  0.00     0.231 C 
HETATM   22  O3  UNL     1      17.914  -0.391  52.308  1.00  0.00    -0.307 OA
ENDBRANCH  20  21
ENDBRANCH   6  20
BRANCH   5  23
HETATM   23  C14 UNL     1      20.766   2.312  51.854  1.00  0.00     0.189 C 
BRANCH  23  24
HETATM   24  O2  UNL     1      20.100   3.315  52.555  1.00  0.00    -0.399 OA
HETATM   25  H14 UNL     1      20.785   3.957  52.903  1.00  0.00     0.209 HD
ENDBRANCH  23  24
ENDBRANCH   5  23
TORSDOF 5
ENDMDL
MODEL 6
REMARK VINA RESULT:      -8.0      4.230      6.911
REMARK  5 active torsions:
REMARK  status: ('A' for Active; 'I' for Inactive)
REMARK    1  A    between atoms: C3_3  and  C4_4 
REMARK    2  A    between atoms: C13_16  and  C14_17 
REMARK    3  A    between atoms: C14_17  and  O2_18 
REMARK    4  A    between atoms: C15_19  and  C16_20 
REMARK    5  A    between atoms: C16_20  and  C17_21 
ROOT
HETATM    1  C1  UNL     1      22.141   1.180  51.099  1.00  0.00     0.046 C 
HETATM    2  C2  UNL     1      23.218   1.038  52.074  1.00  0.00    -0.051 C 
HETATM    3  C3  UNL     1      24.358   1.777  52.114  1.00  0.00     0.031 C 
HETATM    4  N2  UNL     1      25.147   1.217  53.223  1.00  0.00    -0.382 N 
HETATM    5  C13 UNL     1      24.733  -0.222  53.256  1.00  0.00     0.114 C 
HETATM    6  C15 UNL     1      23.231   0.092  53.194  1.00  0.00     0.047 C 
HETATM    7  H10 UNL     1      25.841   1.592  53.895  1.00  0.00     0.160 HD
ENDROOT
BRANCH   3   8
HETATM    8  C4  UNL     1      24.890   2.850  51.332  1.00  0.00     0.047 C 
HETATM    9  C5  UNL     1      24.848   4.048  50.861  1.00  0.00     0.046 A 
HETATM   10  C6  UNL     1      23.862   5.094  51.056  1.00  0.00     0.257 A 
HETATM   11  C12 UNL     1      25.797   4.701  49.955  1.00  0.00     0.006 A 
HETATM   12  O1  UNL     1      22.798   5.269  51.680  1.00  0.00    -0.267 OA
HETATM   13  N1  UNL     1      24.171   6.275  50.338  1.00  0.00    -0.322 N 
HETATM   14  C7  UNL     1      25.386   5.976  49.671  1.00  0.00     0.046 A 
HETATM   15  H5  UNL     1      23.734   7.228  50.212  1.00  0.00     0.169 HD
HETATM   16  C8  UNL     1      26.212   6.679  48.822  1.00  0.00     0.030 A 
HETATM   17  C9  UNL     1      27.381   6.247  48.240  1.00  0.00     0.002 A 
HETATM   18  C10 UNL     1      27.798   4.971  48.521  1.00  0.00     0.001 A 
HETATM   19  C11 UNL     1      26.992   4.251  49.364  1.00  0.00     0.015 A 
ENDBRANCH   3   8
BRANCH   6  20
HETATM   20  C16 UNL     1      22.390  -1.105  53.145  1.00  0.00     0.080 C 
BRANCH  20  21
HETATM   21  C17 UNL     1      21.497  -1.201  54.304  1.00  0.00     0.231 C 
HETATM   22  O3  UNL     1      21.800  -1.831  55.304  1.00  0.00    -0.307 OA
ENDBRANCH  20  21
ENDBRANCH   6  20
BRANCH   5  23
HETATM   23  C14 UNL     1      25.138  -0.850  54.536  1.00  0.00     0.189 C 
BRANCH  23  24
HETATM   24  O2  UNL     1      26.447  -0.484  54.840  1.00  0.00    -0.399 OA
HETATM   25  H14 UNL     1      26.936  -1.303  55.141  1.00  0.00     0.209 HD
ENDBRANCH  23  24
ENDBRANCH   5  23
TORSDOF 5
ENDMDL
MODEL 7
REMARK VINA RESULT:      -7.8      4.398      5.869
REMARK  5 active torsions:
REMARK  status: ('A' for Active; 'I' for Inactive)
REMARK    1  A    between atoms: C3_3  and  C4_4 
REMARK    2  A    between atoms: C13_16  and  C14_17 
REMARK    3  A    between atoms: C14_17  and  O2_18 
REMARK    4  A    between atoms: C15_19  and  C16_20 
REMARK    5  A    between atoms: C16_20  and  C17_21 
ROOT
HETATM    1  C1  UNL     1      25.888   3.174  49.723  1.00  0.00     0.046 C 
HETATM    2  C2  UNL     1      25.067   4.183  50.385  1.00  0.00    -0.051 C 
HETATM    3  C3  UNL     1      24.152   3.949  51.362  1.00  0.00     0.031 C 
HETATM    4  N2  UNL     1      23.546   5.260  51.650  1.00  0.00    -0.382 N 
HETATM    5  C13 UNL     1      23.642   5.986  50.343  1.00  0.00     0.114 C 
HETATM    6  C15 UNL     1      25.119   5.625  50.123  1.00  0.00     0.047 C 
HETATM    7  H10 UNL     1      23.126   5.708  52.485  1.00  0.00     0.160 HD
ENDROOT
BRANCH   3   8
HETATM    8  C4  UNL     1      23.690   2.784  52.050  1.00  0.00     0.047 C 
HETATM    9  C5  UNL     1      23.873   1.624  52.579  1.00  0.00     0.046 A 
HETATM   10  C6  UNL     1      25.080   0.826  52.684  1.00  0.00     0.257 A 
HETATM   11  C12 UNL     1      22.885   0.752  53.219  1.00  0.00     0.006 A 
HETATM   12  O1  UNL     1      26.283   0.908  52.373  1.00  0.00    -0.267 OA
HETATM   13  N1  UNL     1      24.857  -0.417  53.325  1.00  0.00    -0.322 N 
HETATM   14  C7  UNL     1      23.475  -0.412  53.638  1.00  0.00     0.046 A 
HETATM   15  H5  UNL     1      25.443  -1.255  53.590  1.00  0.00     0.169 HD
HETATM   16  C8  UNL     1      22.627  -1.305  54.254  1.00  0.00     0.030 A 
HETATM   17  C9  UNL     1      21.280  -1.158  54.490  1.00  0.00     0.002 A 
HETATM   18  C10 UNL     1      20.683   0.004  54.073  1.00  0.00     0.001 A 
HETATM   19  C11 UNL     1      21.507   0.910  53.457  1.00  0.00     0.015 A 
ENDBRANCH   3   8
BRANCH   6  20
HETATM   20  C16 UNL     1      25.651   6.115  48.851  1.00  0.00     0.080 C 
BRANCH  20  21
HETATM   21  C17 UNL     1      26.781   7.031  49.041  1.00  0.00     0.231 C 
HETATM   22  O3  UNL     1      26.738   7.955  49.836  1.00  0.00    -0.307 OA
ENDBRANCH  20  21
ENDBRANCH   6  20
BRANCH   5  23
HETATM   23  C14 UNL     1      23.427   7.439  50.539  1.00  0.00     0.189 C 
BRANCH  23  24
HETATM   24  O2  UNL     1      24.228   7.890  51.587  1.00  0.00    -0.399 OA
HETATM   25  H14 UNL     1      24.319   8.883  51.502  1.00  0.00     0.209 HD
ENDBRANCH  23  24
ENDBRANCH   5  23
TORSDOF 5
ENDMDL
MODEL 8
REMARK VINA RESULT:      -7.4      2.579      3.395
REMARK  5 active torsions:
REMARK  status: ('A' for Active; 'I' for Inactive)
REMARK    1  A    between atoms: C3_3  and  C4_4 
REMARK    2  A    between atoms: C13_16  and  C14_17 
REMARK    3  A    between atoms: C14_17  and  O2_18 
REMARK    4  A    between atoms: C15_19  and  C16_20 
REMARK    5  A    between atoms: C16_20  and  C17_21 
ROOT
HETATM    1  C1  UNL     1      24.205  -0.792  54.276  1.00  0.00     0.046 C 
HETATM    2  C2  UNL     1      24.572   0.315  53.399  1.00  0.00    -0.051 C 
HETATM    3  C3  UNL     1      23.763   0.904  52.479  1.00  0.00     0.031 C 
HETATM    4  N2  UNL     1      24.603   1.911  51.809  1.00  0.00    -0.382 N 
HETATM    5  C13 UNL     1      25.981   1.331  51.894  1.00  0.00     0.114 C 
HETATM    6  C15 UNL     1      25.870   0.997  53.389  1.00  0.00     0.047 C 
HETATM    7  H10 UNL     1      24.432   2.827  51.356  1.00  0.00     0.160 HD
ENDROOT
BRANCH   3   8
HETATM    8  C4  UNL     1      22.409   0.712  52.059  1.00  0.00     0.047 C 
HETATM    9  C5  UNL     1      21.464   0.786  51.188  1.00  0.00     0.046 A 
HETATM   10  C6  UNL     1      21.488   1.281  49.824  1.00  0.00     0.257 A 
HETATM   11  C12 UNL     1      20.057   0.403  51.339  1.00  0.00     0.006 A 
HETATM   12  O1  UNL     1      22.309   1.760  49.020  1.00  0.00    -0.267 OA
HETATM   13  N1  UNL     1      20.219   1.212  49.197  1.00  0.00    -0.322 N 
HETATM   14  C7  UNL     1      19.366   0.658  50.184  1.00  0.00     0.046 A 
HETATM   15  H5  UNL     1      19.822   1.459  48.251  1.00  0.00     0.169 HD
HETATM   16  C8  UNL     1      18.028   0.333  50.224  1.00  0.00     0.030 A 
HETATM   17  C9  UNL     1      17.325  -0.208  51.275  1.00  0.00     0.002 A 
HETATM   18  C10 UNL     1      18.013  -0.464  52.434  1.00  0.00     0.001 A 
HETATM   19  C11 UNL     1      19.346  -0.150  52.420  1.00  0.00     0.015 A 
ENDBRANCH   3   8
BRANCH   6  20
HETATM   20  C16 UNL     1      27.053   0.317  53.920  1.00  0.00     0.080 C 
BRANCH  20  21
HETATM   21  C17 UNL     1      27.594  -0.668  52.976  1.00  0.00     0.231 C 
HETATM   22  O3  UNL     1      27.455  -1.868  53.144  1.00  0.00    -0.307 OA
ENDBRANCH  20  21
ENDBRANCH   6  20
BRANCH   5  23
HETATM   23  C14 UNL     1      27.000   2.369  51.610  1.00  0.00     0.189 C 
BRANCH  23  24
HETATM   24  O2  UNL     1      26.368   3.539  51.195  1.00  0.00    -0.399 OA
HETATM   25  H14 UNL     1      25.652   3.289  50.541  1.00  0.00     0.209 HD
ENDBRANCH  23  24
ENDBRANCH   5  23
TORSDOF 5
ENDMDL
MODEL 9
REMARK VINA RESULT:      -7.4      7.730     11.883
REMARK  5 active torsions:
REMARK  status: ('A' for Active; 'I' for Inactive)
REMARK    1  A    between atoms: C3_3  and  C4_4 
REMARK    2  A    between atoms: C13_16  and  C14_17 
REMARK    3  A    between atoms: C14_17  and  O2_18 
REMARK    4  A    between atoms: C15_19  and  C16_20 
REMARK    5  A    between atoms: C16_20  and  C17_21 
ROOT
HETATM    1  C1  UNL     1      28.472   7.934  46.743  1.00  0.00     0.046 C 
HETATM    2  C2  UNL     1      28.006   6.994  47.757  1.00  0.00    -0.051 C 
HETATM    3  C3  UNL     1      28.732   5.977  48.293  1.00  0.00     0.031 C 
HETATM    4  N2  UNL     1      27.811   5.283  49.209  1.00  0.00    -0.382 N 
HETATM    5  C13 UNL     1      26.466   5.504  48.589  1.00  0.00     0.114 C 
HETATM    6  C15 UNL     1      26.683   7.011  48.388  1.00  0.00     0.047 C 
HETATM    7  H10 UNL     1      27.916   4.744  50.088  1.00  0.00     0.160 HD
ENDROOT
BRANCH   3   8
HETATM    8  C4  UNL     1      30.063   5.488  48.114  1.00  0.00     0.047 C 
HETATM    9  C5  UNL     1      31.339   5.570  48.270  1.00  0.00     0.046 A 
HETATM   10  C6  UNL     1      32.134   6.579  48.943  1.00  0.00     0.257 A 
HETATM   11  C12 UNL     1      32.374   4.655  47.781  1.00  0.00     0.006 A 
HETATM   12  O1  UNL     1      31.958   7.636  49.578  1.00  0.00    -0.267 OA
HETATM   13  N1  UNL     1      33.524   6.314  48.873  1.00  0.00    -0.322 N 
HETATM   14  C7  UNL     1      33.617   5.104  48.140  1.00  0.00     0.046 A 
HETATM   15  H5  UNL     1      34.407   6.778  49.217  1.00  0.00     0.169 HD
HETATM   16  C8  UNL     1      34.665   4.312  47.725  1.00  0.00     0.030 A 
HETATM   17  C9  UNL     1      34.599   3.143  47.004  1.00  0.00     0.002 A 
HETATM   18  C10 UNL     1      33.357   2.688  46.641  1.00  0.00     0.001 A 
HETATM   19  C11 UNL     1      32.298   3.459  47.043  1.00  0.00     0.015 A 
ENDBRANCH   3   8
BRANCH   6  20
HETATM   20  C16 UNL     1      25.564   7.673  47.714  1.00  0.00     0.080 C 
BRANCH  20  21
HETATM   21  C17 UNL     1      25.023   8.785  48.503  1.00  0.00     0.231 C 
HETATM   22  O3  UNL     1      24.494   8.611  49.589  1.00  0.00    -0.307 OA
ENDBRANCH  20  21
ENDBRANCH   6  20
BRANCH   5  23
HETATM   23  C14 UNL     1      25.390   5.202  49.562  1.00  0.00     0.189 C 
BRANCH  23  24
HETATM   24  O2  UNL     1      25.565   5.978  50.706  1.00  0.00    -0.399 OA
HETATM   25  H14 UNL     1      26.025   5.415  51.394  1.00  0.00     0.209 HD
ENDBRANCH  23  24
ENDBRANCH   5  23
TORSDOF 5
ENDMDL
