MODEL 1
REMARK VINA RESULT:     -10.3      0.000      0.000
REMARK  3 active torsions:
REMARK  status: ('A' for Active; 'I' for Inactive)
REMARK    1  A    between atoms: N1_1  and  C1_2 
REMARK    2  A    between atoms: C11_13  and  C12_14 
REMARK    3  A    between atoms: C21_24  and  O3_25 
ROOT
HETATM    1  C1  UNL     1      21.088   1.695  49.759  1.00  0.00     0.242 C 
HETATM    2  C2  UNL     1      20.436   2.791  50.549  1.00  0.00     0.037 C 
HETATM    3  C3  UNL     1      19.154   2.368  51.167  1.00  0.00     0.002 C 
HETATM    4  C4  UNL     1      19.306   1.199  52.110  1.00  0.00     0.000 C 
HETATM    5  C5  UNL     1      20.299   1.526  53.216  1.00  0.00     0.000 C 
HETATM    6  C6  UNL     1      20.393   0.406  54.205  1.00  0.00     0.000 C 
HETATM    7  C7  UNL     1      20.823  -0.909  53.693  1.00  0.00     0.000 C 
HETATM    8  C8  UNL     1      22.203  -0.972  53.147  1.00  0.00     0.002 C 
HETATM    9  C9  UNL     1      23.221  -0.595  54.207  1.00  0.00     0.027 C 
HETATM   10  C10 UNL     1      24.650  -0.887  53.709  1.00  0.00     0.175 C 
HETATM   11  O1  UNL     1      24.920  -0.152  52.588  1.00  0.00    -0.354 OA
HETATM   12  C11 UNL     1      26.119   0.603  52.361  1.00  0.00     0.069 C 
HETATM   13  C18 UNL     1      26.632   1.689  51.789  1.00  0.00     0.136 C 
HETATM   14  C19 UNL     1      26.401   2.876  51.002  1.00  0.00     0.176 C 
HETATM   15  O2  UNL     1      27.662   3.099  51.092  1.00  0.00    -0.291 OA
HETATM   16  C20 UNL     1      25.555   3.797  50.270  1.00  0.00     0.077 A 
HETATM   17  C21 UNL     1      25.702   4.965  49.710  1.00  0.00     0.085 A 
HETATM   18  C22 UNL     1      24.295   4.829  49.352  1.00  0.00     0.075 A 
HETATM   19  C23 UNL     1      24.162   3.633  49.930  1.00  0.00     0.088 A 
HETATM   20  O4  UNL     1      23.280   2.600  50.196  1.00  0.00    -0.348 OA
HETATM   21  C24 UNL     1      22.393   2.184  49.157  1.00  0.00     0.211 C 
ENDROOT
BRANCH  12  22
HETATM   22  C12 UNL     1      27.359   0.093  52.935  1.00  0.00    -0.006 A 
HETATM   23  C13 UNL     1      28.386   0.726  53.595  1.00  0.00     0.014 A 
HETATM   24  C14 UNL     1      29.595   0.207  54.037  1.00  0.00     0.001 A 
HETATM   25  C15 UNL     1      29.818  -1.126  53.793  1.00  0.00     0.000 A 
HETATM   26  C16 UNL     1      28.858  -1.860  53.138  1.00  0.00     0.001 A 
HETATM   27  C17 UNL     1      27.701  -1.226  52.749  1.00  0.00     0.014 A 
ENDBRANCH  12  22
BRANCH  17  28
HETATM   28  O3  UNL     1      26.523   6.039  49.403  1.00  0.00    -0.360 OA
HETATM   29  H28 UNL     1      27.127   6.006  48.564  1.00  0.00     0.217 HD
ENDBRANCH  17  28
BRANCH   1  30
HETATM   30  N1  UNL     1      20.217   1.298  48.677  1.00  0.00     0.085 N 
HETATM   31  H1  UNL     1      19.273   1.049  49.059  1.00  0.00     0.313 HD
HETATM   32  H2  UNL     1      20.605   0.429  48.231  1.00  0.00     0.313 HD
ENDBRANCH   1  30
TORSDOF 3
ENDMDL
MODEL 2
REMARK VINA RESULT:      -9.4      1.890      5.216
REMARK  3 active torsions:
REMARK  status: ('A' for Active; 'I' for Inactive)
REMARK    1  A    between atoms: N1_1  and  C1_2 
REMARK    2  A    between atoms: C11_13  and  C12_14 
REMARK    3  A    between atoms: C21_24  and  O3_25 
ROOT
HETATM    1  C1  UNL     1      19.838   3.056  51.259  1.00  0.00     0.242 C 
HETATM    2  C2  UNL     1      19.398   2.087  50.203  1.00  0.00     0.037 C 
HETATM    3  C3  UNL     1      19.103   2.746  48.906  1.00  0.00     0.002 C 
HETATM    4  C4  UNL     1      20.287   3.487  48.333  1.00  0.00     0.000 C 
HETATM    5  C5  UNL     1      21.471   2.549  48.148  1.00  0.00     0.000 C 
HETATM    6  C6  UNL     1      22.623   3.254  47.502  1.00  0.00     0.000 C 
HETATM    7  C7  UNL     1      23.180   4.421  48.210  1.00  0.00     0.000 C 
HETATM    8  C8  UNL     1      23.796   4.144  49.533  1.00  0.00     0.002 C 
HETATM    9  C9  UNL     1      24.947   3.164  49.397  1.00  0.00     0.027 C 
HETATM   10  C10 UNL     1      25.726   3.062  50.723  1.00  0.00     0.175 C 
HETATM   11  O1  UNL     1      24.906   2.612  51.720  1.00  0.00    -0.354 OA
HETATM   12  C11 UNL     1      25.235   1.577  52.659  1.00  0.00     0.069 C 
HETATM   13  C18 UNL     1      24.753   0.578  53.394  1.00  0.00     0.136 C 
HETATM   14  C19 UNL     1      23.603  -0.193  53.796  1.00  0.00     0.176 C 
HETATM   15  O2  UNL     1      24.398  -0.857  54.553  1.00  0.00    -0.291 OA
HETATM   16  C20 UNL     1      22.193  -0.526  53.760  1.00  0.00     0.077 A 
HETATM   17  C21 UNL     1      21.439  -1.475  54.241  1.00  0.00     0.085 A 
HETATM   18  C22 UNL     1      20.347  -0.765  53.586  1.00  0.00     0.075 A 
HETATM   19  C23 UNL     1      21.133   0.199  53.101  1.00  0.00     0.088 A 
HETATM   20  O4  UNL     1      21.161   1.361  52.351  1.00  0.00    -0.348 OA
HETATM   21  C24 UNL     1      20.128   2.325  52.557  1.00  0.00     0.211 C 
ENDROOT
BRANCH  12  22
HETATM   22  C12 UNL     1      26.631   1.447  53.062  1.00  0.00    -0.006 A 
HETATM   23  C13 UNL     1      27.554   2.384  53.463  1.00  0.00     0.014 A 
HETATM   24  C14 UNL     1      28.904   2.219  53.743  1.00  0.00     0.001 A 
HETATM   25  C15 UNL     1      29.409   0.949  53.608  1.00  0.00     0.000 A 
HETATM   26  C16 UNL     1      28.576  -0.069  53.212  1.00  0.00     0.001 A 
HETATM   27  C17 UNL     1      27.255   0.226  52.962  1.00  0.00     0.014 A 
ENDBRANCH  12  22
BRANCH  17  28
HETATM   28  O3  UNL     1      21.327  -2.642  54.982  1.00  0.00    -0.360 OA
HETATM   29  H28 UNL     1      20.394  -3.026  55.206  1.00  0.00     0.217 HD
ENDBRANCH  17  28
BRANCH   1  30
HETATM   30  N1  UNL     1      18.781   4.008  51.509  1.00  0.00     0.085 N 
HETATM   31  H1  UNL     1      19.175   4.854  51.988  1.00  0.00     0.313 HD
HETATM   32  H2  UNL     1      18.087   3.579  52.171  1.00  0.00     0.313 HD
ENDBRANCH   1  30
TORSDOF 3
ENDMDL
MODEL 3
REMARK VINA RESULT:      -9.2      2.450      5.739
REMARK  3 active torsions:
REMARK  status: ('A' for Active; 'I' for Inactive)
REMARK    1  A    between atoms: N1_1  and  C1_2 
REMARK    2  A    between atoms: C11_13  and  C12_14 
REMARK    3  A    between atoms: C21_24  and  O3_25 
ROOT
HETATM    1  C1  UNL     1      18.686   3.779  50.287  1.00  0.00     0.242 C 
HETATM    2  C2  UNL     1      18.237   2.873  49.179  1.00  0.00     0.037 C 
HETATM    3  C3  UNL     1      18.151   3.567  47.869  1.00  0.00     0.002 C 
HETATM    4  C4  UNL     1      19.466   4.161  47.424  1.00  0.00     0.000 C 
HETATM    5  C5  UNL     1      20.540   3.087  47.340  1.00  0.00     0.000 C 
HETATM    6  C6  UNL     1      21.825   3.649  46.818  1.00  0.00     0.000 C 
HETATM    7  C7  UNL     1      22.447   4.739  47.593  1.00  0.00     0.000 C 
HETATM    8  C8  UNL     1      22.895   4.386  48.964  1.00  0.00     0.002 C 
HETATM    9  C9  UNL     1      23.927   3.274  48.925  1.00  0.00     0.027 C 
HETATM   10  C10 UNL     1      24.556   3.075  50.318  1.00  0.00     0.175 C 
HETATM   11  O1  UNL     1      23.596   2.724  51.226  1.00  0.00    -0.354 OA
HETATM   12  C11 UNL     1      23.705   1.655  52.176  1.00  0.00     0.069 C 
HETATM   13  C18 UNL     1      23.038   0.720  52.847  1.00  0.00     0.136 C 
HETATM   14  C19 UNL     1      21.770   0.092  53.126  1.00  0.00     0.176 C 
HETATM   15  O2  UNL     1      22.402  -0.666  53.946  1.00  0.00    -0.291 OA
HETATM   16  C20 UNL     1      20.341  -0.069  52.950  1.00  0.00     0.077 A 
HETATM   17  C21 UNL     1      19.434  -0.920  53.343  1.00  0.00     0.085 A 
HETATM   18  C22 UNL     1      18.504  -0.081  52.596  1.00  0.00     0.075 A 
HETATM   19  C23 UNL     1      19.444   0.781  52.203  1.00  0.00     0.088 A 
HETATM   20  O4  UNL     1      19.684   1.934  51.476  1.00  0.00    -0.348 OA
HETATM   21  C24 UNL     1      18.759   3.015  51.596  1.00  0.00     0.211 C 
ENDROOT
BRANCH  12  22
HETATM   22  C12 UNL     1      25.030   1.356  52.709  1.00  0.00    -0.006 A 
HETATM   23  C13 UNL     1      25.877   2.088  53.508  1.00  0.00     0.014 A 
HETATM   24  C14 UNL     1      27.174   1.795  53.908  1.00  0.00     0.001 A 
HETATM   25  C15 UNL     1      27.705   0.613  53.455  1.00  0.00     0.000 A 
HETATM   26  C16 UNL     1      26.947  -0.201  52.648  1.00  0.00     0.001 A 
HETATM   27  C17 UNL     1      25.673   0.204  52.321  1.00  0.00     0.014 A 
ENDBRANCH  12  22
BRANCH  17  28
HETATM   28  O3  UNL     1      19.112  -2.067  54.052  1.00  0.00    -0.360 OA
HETATM   29  H28 UNL     1      19.249  -2.099  55.076  1.00  0.00     0.217 HD
ENDBRANCH  17  28
BRANCH   1  30
HETATM   30  N1  UNL     1      17.732   4.852  50.448  1.00  0.00     0.085 N 
HETATM   31  H1  UNL     1      17.346   5.122  49.511  1.00  0.00     0.313 HD
HETATM   32  H2  UNL     1      18.231   5.695  50.827  1.00  0.00     0.313 HD
ENDBRANCH   1  30
TORSDOF 3
ENDMDL
MODEL 4
REMARK VINA RESULT:      -8.8      1.580      2.262
REMARK  3 active torsions:
REMARK  status: ('A' for Active; 'I' for Inactive)
REMARK    1  A    between atoms: N1_1  and  C1_2 
REMARK    2  A    between atoms: C11_13  and  C12_14 
REMARK    3  A    between atoms: C21_24  and  O3_25 
ROOT
HETATM    1  C1  UNL     1      21.103   3.647  48.011  1.00  0.00     0.242 C 
HETATM    2  C2  UNL     1      20.564   4.891  48.654  1.00  0.00     0.037 C 
HETATM    3  C3  UNL     1      19.108   4.811  48.929  1.00  0.00     0.002 C 
HETATM    4  C4  UNL     1      18.739   3.668  49.844  1.00  0.00     0.000 C 
HETATM    5  C5  UNL     1      19.482   3.776  51.167  1.00  0.00     0.000 C 
HETATM    6  C6  UNL     1      19.059   2.696  52.113  1.00  0.00     0.000 C 
HETATM    7  C7  UNL     1      19.269   1.301  51.680  1.00  0.00     0.000 C 
HETATM    8  C8  UNL     1      20.682   0.890  51.482  1.00  0.00     0.002 C 
HETATM    9  C9  UNL     1      21.473   1.039  52.769  1.00  0.00     0.027 C 
HETATM   10  C10 UNL     1      22.865   0.394  52.622  1.00  0.00     0.175 C 
HETATM   11  O1  UNL     1      23.568   1.008  51.624  1.00  0.00    -0.354 OA
HETATM   12  C11 UNL     1      24.933   1.442  51.718  1.00  0.00     0.069 C 
HETATM   13  C18 UNL     1      25.817   2.354  51.321  1.00  0.00     0.136 C 
HETATM   14  C19 UNL     1      26.079   3.538  50.540  1.00  0.00     0.176 C 
HETATM   15  O2  UNL     1      27.295   3.450  50.940  1.00  0.00    -0.291 OA
HETATM   16  C20 UNL     1      25.685   4.615  49.654  1.00  0.00     0.077 A 
HETATM   17  C21 UNL     1      26.242   5.696  49.183  1.00  0.00     0.085 A 
HETATM   18  C22 UNL     1      24.974   5.895  48.491  1.00  0.00     0.075 A 
HETATM   19  C23 UNL     1      24.419   4.785  48.982  1.00  0.00     0.088 A 
HETATM   20  O4  UNL     1      23.275   4.005  48.994  1.00  0.00    -0.348 OA
HETATM   21  C24 UNL     1      22.592   3.787  47.759  1.00  0.00     0.211 C 
ENDROOT
BRANCH  12  22
HETATM   22  C12 UNL     1      25.835   0.663  52.559  1.00  0.00    -0.006 A 
HETATM   23  C13 UNL     1      26.277   0.859  53.846  1.00  0.00     0.014 A 
HETATM   24  C14 UNL     1      27.216   0.135  54.569  1.00  0.00     0.001 A 
HETATM   25  C15 UNL     1      27.797  -0.931  53.928  1.00  0.00     0.000 A 
HETATM   26  C16 UNL     1      27.431  -1.221  52.635  1.00  0.00     0.001 A 
HETATM   27  C17 UNL     1      26.488  -0.425  52.028  1.00  0.00     0.014 A 
ENDBRANCH  12  22
BRANCH  17  28
HETATM   28  O3  UNL     1      27.348   6.529  49.118  1.00  0.00    -0.360 OA
HETATM   29  H28 UNL     1      27.918   6.567  48.256  1.00  0.00     0.217 HD
ENDBRANCH  17  28
BRANCH   1  30
HETATM   30  N1  UNL     1      20.451   3.443  46.739  1.00  0.00     0.085 N 
HETATM   31  H1  UNL     1      19.443   3.725  46.811  1.00  0.00     0.313 HD
HETATM   32  H2  UNL     1      20.465   2.417  46.511  1.00  0.00     0.313 HD
ENDBRANCH   1  30
TORSDOF 3
ENDMDL
MODEL 5
REMARK VINA RESULT:      -8.7      2.431      6.098
REMARK  3 active torsions:
REMARK  status: ('A' for Active; 'I' for Inactive)
REMARK    1  A    between atoms: N1_1  and  C1_2 
REMARK    2  A    between atoms: C11_13  and  C12_14 
REMARK    3  A    between atoms: C21_24  and  O3_25 
ROOT
HETATM    1  C1  UNL     1      20.339   2.619  51.426  1.00  0.00     0.242 C 
HETATM    2  C2  UNL     1      20.102   1.369  50.632  1.00  0.00     0.037 C 
HETATM    3  C3  UNL     1      18.877   1.443  49.796  1.00  0.00     0.002 C 
HETATM    4  C4  UNL     1      18.905   2.579  48.801  1.00  0.00     0.000 C 
HETATM    5  C5  UNL     1      20.115   2.464  47.887  1.00  0.00     0.000 C 
HETATM    6  C6  UNL     1      20.106   3.537  46.842  1.00  0.00     0.000 C 
HETATM    7  C7  UNL     1      20.125   4.934  47.313  1.00  0.00     0.000 C 
HETATM    8  C8  UNL     1      21.341   5.351  48.056  1.00  0.00     0.002 C 
HETATM    9  C9  UNL     1      22.581   5.196  47.194  1.00  0.00     0.027 C 
HETATM   10  C10 UNL     1      23.798   5.845  47.880  1.00  0.00     0.175 C 
HETATM   11  O1  UNL     1      24.044   5.240  49.081  1.00  0.00    -0.354 OA
HETATM   12  C11 UNL     1      25.332   4.809  49.544  1.00  0.00     0.069 C 
HETATM   13  C18 UNL     1      25.983   3.902  50.268  1.00  0.00     0.136 C 
HETATM   14  C19 UNL     1      25.911   2.725  51.098  1.00  0.00     0.176 C 
HETATM   15  O2  UNL     1      27.185   2.813  51.217  1.00  0.00    -0.291 OA
HETATM   16  C20 UNL     1      25.195   1.653  51.760  1.00  0.00     0.077 A 
HETATM   17  C21 UNL     1      25.517   0.576  52.422  1.00  0.00     0.085 A 
HETATM   18  C22 UNL     1      24.078   0.379  52.551  1.00  0.00     0.075 A 
HETATM   19  C23 UNL     1      23.766   1.484  51.871  1.00  0.00     0.088 A 
HETATM   20  O4  UNL     1      22.723   2.261  51.397  1.00  0.00    -0.348 OA
HETATM   21  C24 UNL     1      21.603   2.485  52.254  1.00  0.00     0.211 C 
ENDROOT
BRANCH  12  22
HETATM   22  C12 UNL     1      26.495   5.585  49.128  1.00  0.00    -0.006 A 
HETATM   23  C13 UNL     1      26.694   6.941  49.020  1.00  0.00     0.014 A 
HETATM   24  C14 UNL     1      27.794   7.628  48.524  1.00  0.00     0.001 A 
HETATM   25  C15 UNL     1      28.842   6.866  48.073  1.00  0.00     0.000 A 
HETATM   26  C16 UNL     1      28.754   5.495  48.132  1.00  0.00     0.001 A 
HETATM   27  C17 UNL     1      27.607   4.935  48.645  1.00  0.00     0.014 A 
ENDBRANCH  12  22
BRANCH  17  28
HETATM   28  O3  UNL     1      26.505  -0.253  52.931  1.00  0.00    -0.360 OA
HETATM   29  H28 UNL     1      27.466  -0.206  52.552  1.00  0.00     0.217 HD
ENDBRANCH  17  28
BRANCH   1  30
HETATM   30  N1  UNL     1      19.232   2.830  52.330  1.00  0.00     0.085 N 
HETATM   31  H1  UNL     1      19.594   2.948  53.308  1.00  0.00     0.313 HD
HETATM   32  H2  UNL     1      18.626   1.972  52.331  1.00  0.00     0.313 HD
ENDBRANCH   1  30
TORSDOF 3
ENDMDL
MODEL 6
REMARK VINA RESULT:      -8.5      2.641      7.063
REMARK  3 active torsions:
REMARK  status: ('A' for Active; 'I' for Inactive)
REMARK    1  A    between atoms: N1_1  and  C1_2 
REMARK    2  A    between atoms: C11_13  and  C12_14 
REMARK    3  A    between atoms: C21_24  and  O3_25 
ROOT
HETATM    1  C1  UNL     1      24.338   4.223  50.816  1.00  0.00     0.242 C 
HETATM    2  C2  UNL     1      25.193   3.595  49.755  1.00  0.00     0.037 C 
HETATM    3  C3  UNL     1      26.590   3.368  50.202  1.00  0.00     0.002 C 
HETATM    4  C4  UNL     1      26.688   2.470  51.412  1.00  0.00     0.000 C 
HETATM    5  C5  UNL     1      26.037   1.123  51.137  1.00  0.00     0.000 C 
HETATM    6  C6  UNL     1      26.204   0.195  52.300  1.00  0.00     0.000 C 
HETATM    7  C7  UNL     1      25.636   0.626  53.591  1.00  0.00     0.000 C 
HETATM    8  C8  UNL     1      24.160   0.778  53.631  1.00  0.00     0.002 C 
HETATM    9  C9  UNL     1      23.473  -0.535  53.303  1.00  0.00     0.027 C 
HETATM   10  C10 UNL     1      21.959  -0.432  53.575  1.00  0.00     0.175 C 
HETATM   11  O1  UNL     1      21.402   0.540  52.791  1.00  0.00    -0.354 OA
HETATM   12  C11 UNL     1      20.195   0.399  52.029  1.00  0.00     0.069 C 
HETATM   13  C18 UNL     1      19.557   0.762  50.919  1.00  0.00     0.136 C 
HETATM   14  C19 UNL     1      19.578   1.530  49.698  1.00  0.00     0.176 C 
HETATM   15  O2  UNL     1      18.392   1.090  49.482  1.00  0.00    -0.291 OA
HETATM   16  C20 UNL     1      20.202   2.425  48.745  1.00  0.00     0.077 A 
HETATM   17  C21 UNL     1      19.921   2.873  47.553  1.00  0.00     0.085 A 
HETATM   18  C22 UNL     1      21.176   3.606  47.671  1.00  0.00     0.075 A 
HETATM   19  C23 UNL     1      21.448   3.139  48.891  1.00  0.00     0.088 A 
HETATM   20  O4  UNL     1      22.358   3.168  49.934  1.00  0.00    -0.348 OA
HETATM   21  C24 UNL     1      22.925   4.425  50.302  1.00  0.00     0.211 C 
ENDROOT
BRANCH  12  22
HETATM   22  C12 UNL     1      19.152  -0.469  52.566  1.00  0.00    -0.006 A 
HETATM   23  C13 UNL     1      19.217  -1.566  53.393  1.00  0.00     0.014 A 
HETATM   24  C14 UNL     1      18.198  -2.419  53.797  1.00  0.00     0.001 A 
HETATM   25  C15 UNL     1      16.941  -2.146  53.316  1.00  0.00     0.000 A 
HETATM   26  C16 UNL     1      16.758  -1.072  52.479  1.00  0.00     0.001 A 
HETATM   27  C17 UNL     1      17.851  -0.303  52.152  1.00  0.00     0.014 A 
ENDBRANCH  12  22
BRANCH  17  28
HETATM   28  O3  UNL     1      19.059   2.898  46.467  1.00  0.00    -0.360 OA
HETATM   29  H28 UNL     1      19.033   2.103  45.807  1.00  0.00     0.217 HD
ENDBRANCH  17  28
BRANCH   1  30
HETATM   30  N1  UNL     1      24.878   5.518  51.162  1.00  0.00     0.085 N 
HETATM   31  H1  UNL     1      25.720   5.718  50.570  1.00  0.00     0.313 HD
HETATM   32  H2  UNL     1      25.206   5.492  52.160  1.00  0.00     0.313 HD
ENDBRANCH   1  30
TORSDOF 3
ENDMDL
MODEL 7
REMARK VINA RESULT:      -8.5      2.962      4.234
REMARK  3 active torsions:
REMARK  status: ('A' for Active; 'I' for Inactive)
REMARK    1  A    between atoms: N1_1  and  C1_2 
REMARK    2  A    between atoms: C11_13  and  C12_14 
REMARK    3  A    between atoms: C21_24  and  O3_25 
ROOT
HETATM    1  C1  UNL     1      19.508   3.833  48.213  1.00  0.00     0.242 C 
HETATM    2  C2  UNL     1      18.583   4.826  48.850  1.00  0.00     0.037 C 
HETATM    3  C3  UNL     1      17.155   4.563  48.538  1.00  0.00     0.002 C 
HETATM    4  C4  UNL     1      16.690   3.200  48.989  1.00  0.00     0.000 C 
HETATM    5  C5  UNL     1      16.903   3.027  50.486  1.00  0.00     0.000 C 
HETATM    6  C6  UNL     1      16.367   1.712  50.959  1.00  0.00     0.000 C 
HETATM    7  C7  UNL     1      16.942   0.494  50.356  1.00  0.00     0.000 C 
HETATM    8  C8  UNL     1      18.384   0.260  50.621  1.00  0.00     0.002 C 
HETATM    9  C9  UNL     1      18.647   0.139  52.111  1.00  0.00     0.027 C 
HETATM   10  C10 UNL     1      20.091  -0.334  52.366  1.00  0.00     0.175 C 
HETATM   11  O1  UNL     1      20.983   0.567  51.854  1.00  0.00    -0.354 OA
HETATM   12  C11 UNL     1      22.139   1.070  52.539  1.00  0.00     0.069 C 
HETATM   13  C18 UNL     1      22.940   2.120  52.700  1.00  0.00     0.136 C 
HETATM   14  C19 UNL     1      23.254   3.480  52.337  1.00  0.00     0.176 C 
HETATM   15  O2  UNL     1      24.255   3.390  53.136  1.00  0.00    -0.291 OA
HETATM   16  C20 UNL     1      23.015   4.712  51.613  1.00  0.00     0.077 A 
HETATM   17  C21 UNL     1      23.512   5.918  51.620  1.00  0.00     0.085 A 
HETATM   18  C22 UNL     1      22.546   6.184  50.561  1.00  0.00     0.075 A 
HETATM   19  C23 UNL     1      22.049   4.946  50.566  1.00  0.00     0.088 A 
HETATM   20  O4  UNL     1      21.118   4.100  49.988  1.00  0.00    -0.348 OA
HETATM   21  C24 UNL     1      20.948   4.149  48.571  1.00  0.00     0.211 C 
ENDROOT
BRANCH  12  22
HETATM   22  C12 UNL     1      22.813   0.176  53.475  1.00  0.00    -0.006 A 
HETATM   23  C13 UNL     1      22.339  -0.550  54.543  1.00  0.00     0.014 A 
HETATM   24  C14 UNL     1      23.044  -1.311  55.465  1.00  0.00     0.001 A 
HETATM   25  C15 UNL     1      24.407  -1.361  55.308  1.00  0.00     0.000 A 
HETATM   26  C16 UNL     1      24.992  -0.672  54.272  1.00  0.00     0.001 A 
HETATM   27  C17 UNL     1      24.181   0.049  53.426  1.00  0.00     0.014 A 
ENDBRANCH  12  22
BRANCH  17  28
HETATM   28  O3  UNL     1      24.418   6.825  52.147  1.00  0.00    -0.360 OA
HETATM   29  H28 UNL     1      24.109   7.779  52.399  1.00  0.00     0.217 HD
ENDBRANCH  17  28
BRANCH   1  30
HETATM   30  N1  UNL     1      19.378   3.907  46.776  1.00  0.00     0.085 N 
HETATM   31  H1  UNL     1      18.437   4.298  46.528  1.00  0.00     0.313 HD
HETATM   32  H2  UNL     1      19.417   2.934  46.381  1.00  0.00     0.313 HD
ENDBRANCH   1  30
TORSDOF 3
ENDMDL
MODEL 8
REMARK VINA RESULT:      -8.4      8.123     11.984
REMARK  3 active torsions:
REMARK  status: ('A' for Active; 'I' for Inactive)
REMARK    1  A    between atoms: N1_1  and  C1_2 
REMARK    2  A    between atoms: C11_13  and  C12_14 
REMARK    3  A    between atoms: C21_24  and  O3_25 
ROOT
HETATM    1  C1  UNL     1      29.413  11.304  48.398  1.00  0.00     0.242 C 
HETATM    2  C2  UNL     1      28.398  11.506  47.312  1.00  0.00     0.037 C 
HETATM    3  C3  UNL     1      28.573  12.793  46.594  1.00  0.00     0.002 C 
HETATM    4  C4  UNL     1      29.927  12.929  45.939  1.00  0.00     0.000 C 
HETATM    5  C5  UNL     1      30.170  11.787  44.963  1.00  0.00     0.000 C 
HETATM    6  C6  UNL     1      31.472  11.959  44.245  1.00  0.00     0.000 C 
HETATM    7  C7  UNL     1      32.693  12.010  45.070  1.00  0.00     0.000 C 
HETATM    8  C8  UNL     1      33.014  10.775  45.831  1.00  0.00     0.002 C 
HETATM    9  C9  UNL     1      33.206   9.598  44.893  1.00  0.00     0.027 C 
HETATM   10  C10 UNL     1      33.765   8.384  45.660  1.00  0.00     0.175 C 
HETATM   11  O1  UNL     1      32.892   8.001  46.641  1.00  0.00    -0.354 OA
HETATM   12  C11 UNL     1      32.478   6.652  46.901  1.00  0.00     0.069 C 
HETATM   13  C18 UNL     1      31.479   5.880  47.320  1.00  0.00     0.136 C 
HETATM   14  C19 UNL     1      30.124   5.798  47.807  1.00  0.00     0.176 C 
HETATM   15  O2  UNL     1      30.297   4.529  47.876  1.00  0.00    -0.291 OA
HETATM   16  C20 UNL     1      28.854   6.377  48.197  1.00  0.00     0.077 A 
HETATM   17  C21 UNL     1      27.676   5.924  48.529  1.00  0.00     0.085 A 
HETATM   18  C22 UNL     1      27.318   7.329  48.678  1.00  0.00     0.075 A 
HETATM   19  C23 UNL     1      28.529   7.776  48.337  1.00  0.00     0.088 A 
HETATM   20  O4  UNL     1      29.300   8.909  48.144  1.00  0.00    -0.348 OA
HETATM   21  C24 UNL     1      29.187   9.973  49.090  1.00  0.00     0.211 C 
ENDROOT
BRANCH  12  22
HETATM   22  C12 UNL     1      33.441   5.587  46.645  1.00  0.00    -0.006 A 
HETATM   23  C13 UNL     1      33.880   5.018  45.473  1.00  0.00     0.014 A 
HETATM   24  C14 UNL     1      34.730   3.935  45.290  1.00  0.00     0.001 A 
HETATM   25  C15 UNL     1      35.213   3.333  46.425  1.00  0.00     0.000 A 
HETATM   26  C16 UNL     1      34.840   3.819  47.656  1.00  0.00     0.001 A 
HETATM   27  C17 UNL     1      33.989   4.899  47.703  1.00  0.00     0.014 A 
ENDBRANCH  12  22
BRANCH  17  28
HETATM   28  O3  UNL     1      26.840   4.839  48.743  1.00  0.00    -0.360 OA
HETATM   29  H28 UNL     1      27.061   3.922  48.320  1.00  0.00     0.217 HD
ENDBRANCH  17  28
BRANCH   1  30
HETATM   30  N1  UNL     1      29.276  12.350  49.384  1.00  0.00     0.085 N 
HETATM   31  H1  UNL     1      29.374  13.286  48.920  1.00  0.00     0.313 HD
HETATM   32  H2  UNL     1      30.063  12.270  50.076  1.00  0.00     0.313 HD
ENDBRANCH   1  30
TORSDOF 3
ENDMDL
MODEL 9
REMARK VINA RESULT:      -8.1      3.043      7.772
REMARK  3 active torsions:
REMARK  status: ('A' for Active; 'I' for Inactive)
REMARK    1  A    between atoms: N1_1  and  C1_2 
REMARK    2  A    between atoms: C11_13  and  C12_14 
REMARK    3  A    between atoms: C21_24  and  O3_25 
ROOT
HETATM    1  C1  UNL     1      23.789   2.705  52.585  1.00  0.00     0.242 C 
HETATM    2  C2  UNL     1      24.688   1.629  52.050  1.00  0.00     0.037 C 
HETATM    3  C3  UNL     1      25.294   0.800  53.122  1.00  0.00     0.002 C 
HETATM    4  C4  UNL     1      24.269   0.105  53.986  1.00  0.00     0.000 C 
HETATM    5  C5  UNL     1      23.361  -0.776  53.140  1.00  0.00     0.000 C 
HETATM    6  C6  UNL     1      22.396  -1.536  53.996  1.00  0.00     0.000 C 
HETATM    7  C7  UNL     1      21.475  -0.746  54.835  1.00  0.00     0.000 C 
HETATM    8  C8  UNL     1      20.505   0.109  54.105  1.00  0.00     0.002 C 
HETATM    9  C9  UNL     1      19.617  -0.729  53.203  1.00  0.00     0.027 C 
HETATM   10  C10 UNL     1      18.470   0.126  52.633  1.00  0.00     0.175 C 
HETATM   11  O1  UNL     1      18.972   1.156  51.886  1.00  0.00    -0.354 OA
HETATM   12  C11 UNL     1      18.506   1.539  50.585  1.00  0.00     0.069 C 
HETATM   13  C18 UNL     1      18.859   2.046  49.406  1.00  0.00     0.136 C 
HETATM   14  C19 UNL     1      19.912   2.570  48.571  1.00  0.00     0.176 C 
HETATM   15  O2  UNL     1      19.017   2.743  47.668  1.00  0.00    -0.291 OA
HETATM   16  C20 UNL     1      21.288   2.938  48.305  1.00  0.00     0.077 A 
HETATM   17  C21 UNL     1      21.971   3.335  47.267  1.00  0.00     0.085 A 
HETATM   18  C22 UNL     1      23.103   3.372  48.186  1.00  0.00     0.075 A 
HETATM   19  C23 UNL     1      22.389   2.965  49.238  1.00  0.00     0.088 A 
HETATM   20  O4  UNL     1      22.441   2.659  50.587  1.00  0.00    -0.348 OA
HETATM   21  C24 UNL     1      23.198   3.513  51.446  1.00  0.00     0.211 C 
ENDROOT
BRANCH  12  22
HETATM   22  C12 UNL     1      17.089   1.353  50.290  1.00  0.00    -0.006 A 
HETATM   23  C13 UNL     1      15.979   2.071  50.666  1.00  0.00     0.014 A 
HETATM   24  C14 UNL     1      14.638   1.793  50.438  1.00  0.00     0.001 A 
HETATM   25  C15 UNL     1      14.359   0.645  49.738  1.00  0.00     0.000 A 
HETATM   26  C16 UNL     1      15.393  -0.152  49.310  1.00  0.00     0.001 A 
HETATM   27  C17 UNL     1      16.681   0.234  49.603  1.00  0.00     0.014 A 
ENDBRANCH  12  22
BRANCH  17  28
HETATM   28  O3  UNL     1      22.001   3.660  45.920  1.00  0.00    -0.360 OA
HETATM   29  H28 UNL     1      22.182   2.927  45.214  1.00  0.00     0.217 HD
ENDBRANCH  17  28
BRANCH   1  30
HETATM   30  N1  UNL     1      24.556   3.601  53.419  1.00  0.00     0.085 N 
HETATM   31  H1  UNL     1      25.555   3.611  53.098  1.00  0.00     0.313 HD
HETATM   32  H2  UNL     1      24.556   3.232  54.403  1.00  0.00     0.313 HD
ENDBRANCH   1  30
TORSDOF 3
ENDMDL
