MODEL 1
REMARK VINA RESULT:      -8.8      0.000      0.000
REMARK  6 active torsions:
REMARK  status: ('A' for Active; 'I' for Inactive)
REMARK    1  A    between atoms: C3_3  and  C4_4 
REMARK       I    between atoms: C4_4  and  N1_6 
REMARK    2  A    between atoms: N1_6  and  C5_7 
REMARK    3  A    between atoms: C5_7  and  C6_8 
REMARK    4  A    between atoms: C6_8  and  N2_9 
REMARK    5  A    between atoms: C13_16  and  C14_17 
REMARK    6  A    between atoms: C14_17  and  C15_18 
ROOT
HETATM    1  C1  UNL     1      21.258   2.502  49.416  1.00  0.00     0.071 C 
HETATM    2  C2  UNL     1      21.969   1.856  50.517  1.00  0.00     0.045 A 
HETATM    3  C3  UNL     1      21.495   1.151  51.563  1.00  0.00     0.064 A 
HETATM    4  C11 UNL     1      22.420   0.596  52.542  1.00  0.00    -0.008 A 
HETATM    5  C12 UNL     1      21.867  -0.185  53.676  1.00  0.00     0.052 C 
HETATM    6  C13 UNL     1      23.730   0.717  52.509  1.00  0.00     0.106 A 
HETATM    7  O2  UNL     1      24.202   1.442  51.433  1.00  0.00    -0.237 OA
HETATM    8  N4  UNL     1      23.399   1.990  50.478  1.00  0.00    -0.264 N 
HETATM    9  H27 UNL     1      23.891   2.507  49.729  1.00  0.00     0.194 HD
ENDROOT
BRANCH   6  10
HETATM   10  C14 UNL     1      24.706   0.195  53.444  1.00  0.00     0.049 C 
BRANCH  10  11
HETATM   11  C15 UNL     1      25.874   0.821  53.618  1.00  0.00    -0.025 A 
HETATM   12  C16 UNL     1      26.069   2.263  53.918  1.00  0.00     0.159 A 
HETATM   13  N3  UNL     1      27.502   2.454  54.022  1.00  0.00    -0.385 N 
HETATM   14  C17 UNL     1      28.166   1.239  53.798  1.00  0.00     0.039 A 
HETATM   15  H23 UNL     1      27.862   3.418  54.242  1.00  0.00     0.160 HD
HETATM   16  C18 UNL     1      29.491   0.942  53.788  1.00  0.00     0.033 A 
HETATM   17  C22 UNL     1      27.208   0.285  53.561  1.00  0.00     0.001 A 
HETATM   18  C19 UNL     1      29.941  -0.342  53.539  1.00  0.00     0.044 A 
HETATM   19  C20 UNL     1      29.017  -1.336  53.295  1.00  0.00     0.117 A 
HETATM   20  F1  UNL     1      29.424  -2.610  53.047  1.00  0.00    -0.206 F 
HETATM   21  C21 UNL     1      27.681  -0.989  53.315  1.00  0.00     0.056 A 
ENDBRANCH  10  11
ENDBRANCH   6  10
BRANCH   3  22
HETATM   22  C4  UNL     1      20.065   1.029  51.575  1.00  0.00     0.254 C 
HETATM   23  O1  UNL     1      19.412   1.894  52.260  1.00  0.00    -0.268 OA
HETATM   24  N1  UNL     1      18.971   0.311  51.118  1.00  0.00    -0.355 N 
HETATM   25  H4  UNL     1      19.356  -0.466  50.518  1.00  0.00     0.162 HD
BRANCH  24  26
HETATM   26  C5  UNL     1      17.565   0.422  51.303  1.00  0.00     0.153 C 
BRANCH  26  27
HETATM   27  C6  UNL     1      16.876  -0.898  51.242  1.00  0.00     0.292 C 
BRANCH  27  28
HETATM   28  N2  UNL     1      16.365  -1.273  52.536  1.00  0.00     0.090 N 
HETATM   29  C7  UNL     1      17.395  -1.561  53.463  1.00  0.00     0.272 C 
HETATM   30  C8  UNL     1      17.566  -3.072  53.463  1.00  0.00     0.032 C 
HETATM   31  C9  UNL     1      16.209  -3.580  53.130  1.00  0.00     0.032 C 
HETATM   32  C10 UNL     1      15.544  -2.460  52.405  1.00  0.00     0.272 C 
ENDBRANCH  27  28
ENDBRANCH  26  27
ENDBRANCH  24  26
ENDBRANCH   3  22
TORSDOF 6
ENDMDL
MODEL 2
REMARK VINA RESULT:      -8.7      5.332      9.365
REMARK  6 active torsions:
REMARK  status: ('A' for Active; 'I' for Inactive)
REMARK    1  A    between atoms: C3_3  and  C4_4 
REMARK       I    between atoms: C4_4  and  N1_6 
REMARK    2  A    between atoms: N1_6  and  C5_7 
REMARK    3  A    between atoms: C5_7  and  C6_8 
REMARK    4  A    between atoms: C6_8  and  N2_9 
REMARK    5  A    between atoms: C13_16  and  C14_17 
REMARK    6  A    between atoms: C14_17  and  C15_18 
ROOT
HETATM    1  C1  UNL     1      23.910   7.839  50.832  1.00  0.00     0.071 C 
HETATM    2  C2  UNL     1      24.239   6.422  50.695  1.00  0.00     0.045 A 
HETATM    3  C3  UNL     1      25.279   5.826  50.079  1.00  0.00     0.064 A 
HETATM    4  C11 UNL     1      25.389   4.374  50.082  1.00  0.00    -0.008 A 
HETATM    5  C12 UNL     1      26.551   3.749  49.404  1.00  0.00     0.052 C 
HETATM    6  C13 UNL     1      24.540   3.545  50.652  1.00  0.00     0.106 A 
HETATM    7  O2  UNL     1      23.479   4.168  51.280  1.00  0.00    -0.237 OA
HETATM    8  N4  UNL     1      23.310   5.520  51.318  1.00  0.00    -0.264 N 
HETATM    9  H27 UNL     1      22.469   5.846  51.824  1.00  0.00     0.194 HD
ENDROOT
BRANCH   6  10
HETATM   10  C14 UNL     1      24.586   2.097  50.695  1.00  0.00     0.049 C 
BRANCH  10  11
HETATM   11  C15 UNL     1      24.634   1.460  51.869  1.00  0.00    -0.025 A 
HETATM   12  C16 UNL     1      23.475   0.962  52.653  1.00  0.00     0.159 A 
HETATM   13  N3  UNL     1      24.037   0.341  53.837  1.00  0.00    -0.385 N 
HETATM   14  C17 UNL     1      25.436   0.444  53.814  1.00  0.00     0.039 A 
HETATM   15  H23 UNL     1      23.378  -0.090  54.534  1.00  0.00     0.160 HD
HETATM   16  C18 UNL     1      26.370   0.018  54.704  1.00  0.00     0.033 A 
HETATM   17  C22 UNL     1      25.781   1.100  52.660  1.00  0.00     0.001 A 
HETATM   18  C19 UNL     1      27.720   0.226  54.487  1.00  0.00     0.044 A 
HETATM   19  C20 UNL     1      28.118   0.881  53.341  1.00  0.00     0.117 A 
HETATM   20  F1  UNL     1      29.436   1.102  53.095  1.00  0.00    -0.206 F 
HETATM   21  C21 UNL     1      27.134   1.296  52.465  1.00  0.00     0.056 A 
ENDBRANCH  10  11
ENDBRANCH   6  10
BRANCH   3  22
HETATM   22  C4  UNL     1      26.192   6.750  49.469  1.00  0.00     0.254 C 
HETATM   23  O1  UNL     1      26.099   6.911  48.200  1.00  0.00    -0.268 OA
HETATM   24  N1  UNL     1      27.238   7.636  49.678  1.00  0.00    -0.355 N 
HETATM   25  H4  UNL     1      27.442   7.616  50.712  1.00  0.00     0.162 HD
BRANCH  24  26
HETATM   26  C5  UNL     1      28.009   8.478  48.828  1.00  0.00     0.153 C 
BRANCH  26  27
HETATM   27  C6  UNL     1      29.411   7.998  48.673  1.00  0.00     0.292 C 
BRANCH  27  28
HETATM   28  N2  UNL     1      29.512   7.032  47.609  1.00  0.00     0.090 N 
HETATM   29  C7  UNL     1      29.696   5.714  48.091  1.00  0.00     0.272 C 
HETATM   30  C8  UNL     1      31.190   5.437  48.033  1.00  0.00     0.032 C 
HETATM   31  C9  UNL     1      31.658   6.269  46.893  1.00  0.00     0.032 C 
HETATM   32  C10 UNL     1      30.646   7.357  46.767  1.00  0.00     0.272 C 
ENDBRANCH  27  28
ENDBRANCH  26  27
ENDBRANCH  24  26
ENDBRANCH   3  22
TORSDOF 6
ENDMDL
MODEL 3
REMARK VINA RESULT:      -8.7      6.244     10.136
REMARK  6 active torsions:
REMARK  status: ('A' for Active; 'I' for Inactive)
REMARK    1  A    between atoms: C3_3  and  C4_4 
REMARK       I    between atoms: C4_4  and  N1_6 
REMARK    2  A    between atoms: N1_6  and  C5_7 
REMARK    3  A    between atoms: C5_7  and  C6_8 
REMARK    4  A    between atoms: C6_8  and  N2_9 
REMARK    5  A    between atoms: C13_16  and  C14_17 
REMARK    6  A    between atoms: C14_17  and  C15_18 
ROOT
HETATM    1  C1  UNL     1      23.940   7.940  50.829  1.00  0.00     0.071 C 
HETATM    2  C2  UNL     1      24.270   6.526  50.665  1.00  0.00     0.045 A 
HETATM    3  C3  UNL     1      25.323   5.943  50.058  1.00  0.00     0.064 A 
HETATM    4  C11 UNL     1      25.431   4.491  50.029  1.00  0.00    -0.008 A 
HETATM    5  C12 UNL     1      26.607   3.881  49.362  1.00  0.00     0.052 C 
HETATM    6  C13 UNL     1      24.568   3.651  50.560  1.00  0.00     0.106 A 
HETATM    7  O2  UNL     1      23.495   4.260  51.179  1.00  0.00    -0.237 OA
HETATM    8  N4  UNL     1      23.327   5.611  51.246  1.00  0.00    -0.264 N 
HETATM    9  H27 UNL     1      22.475   5.927  51.741  1.00  0.00     0.194 HD
ENDROOT
BRANCH   6  10
HETATM   10  C14 UNL     1      24.611   2.202  50.569  1.00  0.00     0.049 C 
BRANCH  10  11
HETATM   11  C15 UNL     1      24.611   1.536  51.728  1.00  0.00    -0.025 A 
HETATM   12  C16 UNL     1      23.422   1.002  52.442  1.00  0.00     0.159 A 
HETATM   13  N3  UNL     1      23.934   0.360  53.636  1.00  0.00    -0.385 N 
HETATM   14  C17 UNL     1      25.330   0.483  53.686  1.00  0.00     0.039 A 
HETATM   15  H23 UNL     1      23.247  -0.098  54.289  1.00  0.00     0.160 HD
HETATM   16  C18 UNL     1      26.225   0.047  54.610  1.00  0.00     0.033 A 
HETATM   17  C22 UNL     1      25.722   1.172  52.566  1.00  0.00     0.001 A 
HETATM   18  C19 UNL     1      27.581   0.279  54.466  1.00  0.00     0.044 A 
HETATM   19  C20 UNL     1      28.025   0.968  53.358  1.00  0.00     0.117 A 
HETATM   20  F1  UNL     1      29.351   1.214  53.184  1.00  0.00    -0.206 F 
HETATM   21  C21 UNL     1      27.080   1.391  52.444  1.00  0.00     0.056 A 
ENDBRANCH  10  11
ENDBRANCH   6  10
BRANCH   3  22
HETATM   22  C4  UNL     1      26.251   6.879  49.491  1.00  0.00     0.254 C 
HETATM   23  O1  UNL     1      26.120   7.148  48.243  1.00  0.00    -0.268 OA
HETATM   24  N1  UNL     1      27.337   7.705  49.731  1.00  0.00    -0.355 N 
HETATM   25  H4  UNL     1      27.576   7.593  50.751  1.00  0.00     0.162 HD
BRANCH  24  26
HETATM   26  C5  UNL     1      28.111   8.585  48.923  1.00  0.00     0.153 C 
BRANCH  26  27
HETATM   27  C6  UNL     1      28.015  10.003  49.373  1.00  0.00     0.292 C 
BRANCH  27  28
HETATM   28  N2  UNL     1      28.563  10.897  48.384  1.00  0.00     0.090 N 
HETATM   29  C7  UNL     1      29.857  10.509  47.962  1.00  0.00     0.272 C 
HETATM   30  C8  UNL     1      30.842  11.337  48.771  1.00  0.00     0.032 C 
HETATM   31  C9  UNL     1      30.102  12.598  49.041  1.00  0.00     0.032 C 
HETATM   32  C10 UNL     1      28.660  12.231  48.941  1.00  0.00     0.272 C 
ENDBRANCH  27  28
ENDBRANCH  26  27
ENDBRANCH  24  26
ENDBRANCH   3  22
TORSDOF 6
ENDMDL
MODEL 4
REMARK VINA RESULT:      -8.6      3.474      6.815
REMARK  6 active torsions:
REMARK  status: ('A' for Active; 'I' for Inactive)
REMARK    1  A    between atoms: C3_3  and  C4_4 
REMARK       I    between atoms: C4_4  and  N1_6 
REMARK    2  A    between atoms: N1_6  and  C5_7 
REMARK    3  A    between atoms: C5_7  and  C6_8 
REMARK    4  A    between atoms: C6_8  and  N2_9 
REMARK    5  A    between atoms: C13_16  and  C14_17 
REMARK    6  A    between atoms: C14_17  and  C15_18 
ROOT
HETATM    1  C1  UNL     1      20.802   1.588  50.439  1.00  0.00     0.071 C 
HETATM    2  C2  UNL     1      21.917   1.310  51.341  1.00  0.00     0.045 A 
HETATM    3  C3  UNL     1      22.980   2.071  51.670  1.00  0.00     0.064 A 
HETATM    4  C11 UNL     1      23.972   1.566  52.609  1.00  0.00    -0.008 A 
HETATM    5  C12 UNL     1      25.124   2.432  52.959  1.00  0.00     0.052 C 
HETATM    6  C13 UNL     1      23.935   0.389  53.197  1.00  0.00     0.106 A 
HETATM    7  O2  UNL     1      22.842  -0.381  52.852  1.00  0.00    -0.237 OA
HETATM    8  N4  UNL     1      21.875   0.026  51.981  1.00  0.00    -0.264 N 
HETATM    9  H27 UNL     1      21.113  -0.656  51.816  1.00  0.00     0.194 HD
ENDROOT
BRANCH   6  10
HETATM   10  C14 UNL     1      24.881  -0.178  54.137  1.00  0.00     0.049 C 
BRANCH  10  11
HETATM   11  C15 UNL     1      25.991  -0.779  53.696  1.00  0.00    -0.025 A 
HETATM   12  C16 UNL     1      26.072  -2.095  53.012  1.00  0.00     0.159 A 
HETATM   13  N3  UNL     1      27.478  -2.305  52.727  1.00  0.00    -0.385 N 
HETATM   14  C17 UNL     1      28.231  -1.221  53.200  1.00  0.00     0.039 A 
HETATM   15  H23 UNL     1      27.759  -3.189  52.230  1.00  0.00     0.160 HD
HETATM   16  C18 UNL     1      29.569  -0.988  53.163  1.00  0.00     0.033 A 
HETATM   17  C22 UNL     1      27.356  -0.329  53.767  1.00  0.00     0.001 A 
HETATM   18  C19 UNL     1      30.115   0.165  53.697  1.00  0.00     0.044 A 
HETATM   19  C20 UNL     1      29.277   1.093  54.279  1.00  0.00     0.117 A 
HETATM   20  F1  UNL     1      29.779   2.237  54.813  1.00  0.00    -0.206 F 
HETATM   21  C21 UNL     1      27.924   0.814  54.293  1.00  0.00     0.056 A 
ENDBRANCH  10  11
ENDBRANCH   6  10
BRANCH   3  22
HETATM   22  C4  UNL     1      22.996   3.351  51.019  1.00  0.00     0.254 C 
HETATM   23  O1  UNL     1      22.446   4.328  51.640  1.00  0.00    -0.268 OA
HETATM   24  N1  UNL     1      23.389   4.061  49.895  1.00  0.00    -0.355 N 
HETATM   25  H4  UNL     1      23.873   3.371  49.262  1.00  0.00     0.162 HD
BRANCH  24  26
HETATM   26  C5  UNL     1      23.262   5.418  49.486  1.00  0.00     0.153 C 
BRANCH  26  27
HETATM   27  C6  UNL     1      24.428   5.880  48.681  1.00  0.00     0.292 C 
BRANCH  27  28
HETATM   28  N2  UNL     1      25.627   5.914  49.480  1.00  0.00     0.090 N 
HETATM   29  C7  UNL     1      26.261   7.179  49.451  1.00  0.00     0.272 C 
HETATM   30  C8  UNL     1      27.361   7.088  48.406  1.00  0.00     0.032 C 
HETATM   31  C9  UNL     1      27.759   5.656  48.438  1.00  0.00     0.032 C 
HETATM   32  C10 UNL     1      26.570   4.935  48.977  1.00  0.00     0.272 C 
ENDBRANCH  27  28
ENDBRANCH  26  27
ENDBRANCH  24  26
ENDBRANCH   3  22
TORSDOF 6
ENDMDL
MODEL 5
REMARK VINA RESULT:      -8.6      5.978      8.698
REMARK  6 active torsions:
REMARK  status: ('A' for Active; 'I' for Inactive)
REMARK    1  A    between atoms: C3_3  and  C4_4 
REMARK       I    between atoms: C4_4  and  N1_6 
REMARK    2  A    between atoms: N1_6  and  C5_7 
REMARK    3  A    between atoms: C5_7  and  C6_8 
REMARK    4  A    between atoms: C6_8  and  N2_9 
REMARK    5  A    between atoms: C13_16  and  C14_17 
REMARK    6  A    between atoms: C14_17  and  C15_18 
ROOT
HETATM    1  C1  UNL     1      22.877   4.741  52.579  1.00  0.00     0.071 C 
HETATM    2  C2  UNL     1      23.812   5.218  51.562  1.00  0.00     0.045 A 
HETATM    3  C3  UNL     1      24.783   4.561  50.896  1.00  0.00     0.064 A 
HETATM    4  C11 UNL     1      25.592   5.265  49.912  1.00  0.00    -0.008 A 
HETATM    5  C12 UNL     1      26.645   4.511  49.188  1.00  0.00     0.052 C 
HETATM    6  C13 UNL     1      25.468   6.535  49.590  1.00  0.00     0.106 A 
HETATM    7  O2  UNL     1      24.471   7.197  50.278  1.00  0.00    -0.237 OA
HETATM    8  N4  UNL     1      23.674   6.604  51.212  1.00  0.00    -0.264 N 
HETATM    9  H27 UNL     1      22.968   7.222  51.648  1.00  0.00     0.194 HD
ENDROOT
BRANCH   6  10
HETATM   10  C14 UNL     1      26.234   7.299  48.625  1.00  0.00     0.049 C 
BRANCH  10  11
HETATM   11  C15 UNL     1      27.312   7.988  49.015  1.00  0.00    -0.025 A 
HETATM   12  C16 UNL     1      27.337   9.122  49.974  1.00  0.00     0.159 A 
HETATM   13  N3  UNL     1      28.726   9.524  50.072  1.00  0.00    -0.385 N 
HETATM   14  C17 UNL     1      29.518   8.723  49.238  1.00  0.00     0.039 A 
HETATM   15  H23 UNL     1      28.970  10.320  50.716  1.00  0.00     0.160 HD
HETATM   16  C18 UNL     1      30.856   8.739  49.003  1.00  0.00     0.033 A 
HETATM   17  C22 UNL     1      28.685   7.824  48.620  1.00  0.00     0.001 A 
HETATM   18  C19 UNL     1      31.445   7.847  48.126  1.00  0.00     0.044 A 
HETATM   19  C20 UNL     1      30.650   6.924  47.480  1.00  0.00     0.117 A 
HETATM   20  F1  UNL     1      31.196   6.031  46.611  1.00  0.00    -0.206 F 
HETATM   21  C21 UNL     1      29.296   6.943  47.749  1.00  0.00     0.056 A 
ENDBRANCH  10  11
ENDBRANCH   6  10
BRANCH   3  22
HETATM   22  C4  UNL     1      24.896   3.177  51.261  1.00  0.00     0.254 C 
HETATM   23  O1  UNL     1      24.124   2.349  50.659  1.00  0.00    -0.268 OA
HETATM   24  N1  UNL     1      25.545   2.253  52.065  1.00  0.00    -0.355 N 
HETATM   25  H4  UNL     1      26.238   2.797  52.644  1.00  0.00     0.162 HD
BRANCH  24  26
HETATM   26  C5  UNL     1      25.448   0.843  52.232  1.00  0.00     0.153 C 
BRANCH  26  27
HETATM   27  C6  UNL     1      26.766   0.162  52.094  1.00  0.00     0.292 C 
BRANCH  27  28
HETATM   28  N2  UNL     1      27.155  -0.466  53.332  1.00  0.00     0.090 N 
HETATM   29  C7  UNL     1      27.602   0.470  54.295  1.00  0.00     0.272 C 
HETATM   30  C8  UNL     1      29.120   0.484  54.213  1.00  0.00     0.032 C 
HETATM   31  C9  UNL     1      29.461  -0.895  53.774  1.00  0.00     0.032 C 
HETATM   32  C10 UNL     1      28.239  -1.395  53.082  1.00  0.00     0.272 C 
ENDBRANCH  27  28
ENDBRANCH  26  27
ENDBRANCH  24  26
ENDBRANCH   3  22
TORSDOF 6
ENDMDL
MODEL 6
REMARK VINA RESULT:      -8.6      2.334      3.194
REMARK  6 active torsions:
REMARK  status: ('A' for Active; 'I' for Inactive)
REMARK    1  A    between atoms: C3_3  and  C4_4 
REMARK       I    between atoms: C4_4  and  N1_6 
REMARK    2  A    between atoms: N1_6  and  C5_7 
REMARK    3  A    between atoms: C5_7  and  C6_8 
REMARK    4  A    between atoms: C6_8  and  N2_9 
REMARK    5  A    between atoms: C13_16  and  C14_17 
REMARK    6  A    between atoms: C14_17  and  C15_18 
ROOT
HETATM    1  C1  UNL     1      20.445  -0.005  54.510  1.00  0.00     0.071 C 
HETATM    2  C2  UNL     1      21.585   0.366  53.675  1.00  0.00     0.045 A 
HETATM    3  C3  UNL     1      21.657   1.209  52.625  1.00  0.00     0.064 A 
HETATM    4  C11 UNL     1      22.929   1.418  51.948  1.00  0.00    -0.008 A 
HETATM    5  C12 UNL     1      22.976   2.360  50.804  1.00  0.00     0.052 C 
HETATM    6  C13 UNL     1      24.068   0.843  52.270  1.00  0.00     0.106 A 
HETATM    7  O2  UNL     1      23.982  -0.017  53.347  1.00  0.00    -0.237 OA
HETATM    8  N4  UNL     1      22.827  -0.262  54.029  1.00  0.00    -0.264 N 
HETATM    9  H27 UNL     1      22.911  -0.931  54.814  1.00  0.00     0.194 HD
ENDROOT
BRANCH   6  10
HETATM   10  C14 UNL     1      25.366   1.003  51.645  1.00  0.00     0.049 C 
BRANCH  10  11
HETATM   11  C15 UNL     1      26.442   1.280  52.387  1.00  0.00    -0.025 A 
HETATM   12  C16 UNL     1      26.840   2.614  52.907  1.00  0.00     0.159 A 
HETATM   13  N3  UNL     1      28.063   2.397  53.654  1.00  0.00    -0.385 N 
HETATM   14  C17 UNL     1      28.421   1.042  53.606  1.00  0.00     0.039 A 
HETATM   15  H23 UNL     1      28.516   3.225  54.119  1.00  0.00     0.160 HD
HETATM   16  C18 UNL     1      29.480   0.385  54.149  1.00  0.00     0.033 A 
HETATM   17  C22 UNL     1      27.469   0.391  52.863  1.00  0.00     0.001 A 
HETATM   18  C19 UNL     1      29.649  -0.976  53.977  1.00  0.00     0.044 A 
HETATM   19  C20 UNL     1      28.718  -1.676  53.237  1.00  0.00     0.117 A 
HETATM   20  F1  UNL     1      28.853  -3.015  53.049  1.00  0.00    -0.206 F 
HETATM   21  C21 UNL     1      27.658  -0.968  52.706  1.00  0.00     0.056 A 
ENDBRANCH  10  11
ENDBRANCH   6  10
BRANCH   3  22
HETATM   22  C4  UNL     1      20.403   1.826  52.296  1.00  0.00     0.254 C 
HETATM   23  O1  UNL     1      20.111   2.915  52.906  1.00  0.00    -0.268 OA
HETATM   24  N1  UNL     1      19.254   1.747  51.525  1.00  0.00    -0.355 N 
HETATM   25  H4  UNL     1      19.344   0.870  50.946  1.00  0.00     0.162 HD
BRANCH  24  26
HETATM   26  C5  UNL     1      18.091   2.556  51.393  1.00  0.00     0.153 C 
BRANCH  26  27
HETATM   27  C6  UNL     1      16.833   1.759  51.455  1.00  0.00     0.292 C 
BRANCH  27  28
HETATM   28  N2  UNL     1      15.681   2.595  51.232  1.00  0.00     0.090 N 
HETATM   29  C7  UNL     1      15.895   3.933  51.640  1.00  0.00     0.272 C 
HETATM   30  C8  UNL     1      15.301   4.060  53.034  1.00  0.00     0.032 C 
HETATM   31  C9  UNL     1      14.190   3.072  53.034  1.00  0.00     0.032 C 
HETATM   32  C10 UNL     1      14.556   2.077  51.985  1.00  0.00     0.272 C 
ENDBRANCH  27  28
ENDBRANCH  26  27
ENDBRANCH  24  26
ENDBRANCH   3  22
TORSDOF 6
ENDMDL
MODEL 7
REMARK VINA RESULT:      -8.5      5.332     10.069
REMARK  6 active torsions:
REMARK  status: ('A' for Active; 'I' for Inactive)
REMARK    1  A    between atoms: C3_3  and  C4_4 
REMARK       I    between atoms: C4_4  and  N1_6 
REMARK    2  A    between atoms: N1_6  and  C5_7 
REMARK    3  A    between atoms: C5_7  and  C6_8 
REMARK    4  A    between atoms: C6_8  and  N2_9 
REMARK    5  A    between atoms: C13_16  and  C14_17 
REMARK    6  A    between atoms: C14_17  and  C15_18 
ROOT
HETATM    1  C1  UNL     1      24.015   7.711  50.884  1.00  0.00     0.071 C 
HETATM    2  C2  UNL     1      24.229   6.266  50.900  1.00  0.00     0.045 A 
HETATM    3  C3  UNL     1      25.147   5.514  50.260  1.00  0.00     0.064 A 
HETATM    4  C11 UNL     1      25.158   4.070  50.443  1.00  0.00    -0.008 A 
HETATM    5  C12 UNL     1      26.188   3.273  49.733  1.00  0.00     0.052 C 
HETATM    6  C13 UNL     1      24.326   3.391  51.204  1.00  0.00     0.106 A 
HETATM    7  O2  UNL     1      23.391   4.171  51.854  1.00  0.00    -0.237 OA
HETATM    8  N4  UNL     1      23.320   5.527  51.732  1.00  0.00    -0.264 N 
HETATM    9  H27 UNL     1      22.568   5.982  52.278  1.00  0.00     0.194 HD
ENDROOT
BRANCH   6  10
HETATM   10  C14 UNL     1      24.278   1.961  51.432  1.00  0.00     0.049 C 
BRANCH  10  11
HETATM   11  C15 UNL     1      23.104   1.344  51.603  1.00  0.00    -0.025 A 
HETATM   12  C16 UNL     1      21.915   1.447  50.719  1.00  0.00     0.159 A 
HETATM   13  N3  UNL     1      20.904   0.597  51.317  1.00  0.00    -0.385 N 
HETATM   14  C17 UNL     1      21.403   0.010  52.489  1.00  0.00     0.039 A 
HETATM   15  H23 UNL     1      19.971   0.518  50.837  1.00  0.00     0.160 HD
HETATM   16  C18 UNL     1      20.819  -0.841  53.372  1.00  0.00     0.033 A 
HETATM   17  C22 UNL     1      22.692   0.451  52.653  1.00  0.00     0.001 A 
HETATM   18  C19 UNL     1      21.499  -1.306  54.483  1.00  0.00     0.044 A 
HETATM   19  C20 UNL     1      22.797  -0.892  54.692  1.00  0.00     0.117 A 
HETATM   20  F1  UNL     1      23.495  -1.330  55.773  1.00  0.00    -0.206 F 
HETATM   21  C21 UNL     1      23.351  -0.027  53.768  1.00  0.00     0.056 A 
ENDBRANCH  10  11
ENDBRANCH   6  10
BRANCH   3  22
HETATM   22  C4  UNL     1      26.044   6.278  49.439  1.00  0.00     0.254 C 
HETATM   23  O1  UNL     1      25.681   6.502  48.230  1.00  0.00    -0.268 OA
HETATM   24  N1  UNL     1      27.256   6.948  49.382  1.00  0.00    -0.355 N 
HETATM   25  H4  UNL     1      27.695   6.851  50.335  1.00  0.00     0.162 HD
BRANCH  24  26
HETATM   26  C5  UNL     1      27.944   7.666  48.364  1.00  0.00     0.153 C 
BRANCH  26  27
HETATM   27  C6  UNL     1      28.920   8.645  48.919  1.00  0.00     0.292 C 
BRANCH  27  28
HETATM   28  N2  UNL     1      30.215   8.488  48.305  1.00  0.00     0.090 N 
HETATM   29  C7  UNL     1      30.401   7.196  47.757  1.00  0.00     0.272 C 
HETATM   30  C8  UNL     1      31.167   6.392  48.795  1.00  0.00     0.032 C 
HETATM   31  C9  UNL     1      31.978   7.415  49.504  1.00  0.00     0.032 C 
HETATM   32  C10 UNL     1      31.249   8.699  49.298  1.00  0.00     0.272 C 
ENDBRANCH  27  28
ENDBRANCH  26  27
ENDBRANCH  24  26
ENDBRANCH   3  22
TORSDOF 6
ENDMDL
MODEL 8
REMARK VINA RESULT:      -8.4      6.188      8.477
REMARK  6 active torsions:
REMARK  status: ('A' for Active; 'I' for Inactive)
REMARK    1  A    between atoms: C3_3  and  C4_4 
REMARK       I    between atoms: C4_4  and  N1_6 
REMARK    2  A    between atoms: N1_6  and  C5_7 
REMARK    3  A    between atoms: C5_7  and  C6_8 
REMARK    4  A    between atoms: C6_8  and  N2_9 
REMARK    5  A    between atoms: C13_16  and  C14_17 
REMARK    6  A    between atoms: C14_17  and  C15_18 
ROOT
HETATM    1  C1  UNL     1      23.798   7.329  50.938  1.00  0.00     0.071 C 
HETATM    2  C2  UNL     1      24.983   7.068  50.123  1.00  0.00     0.045 A 
HETATM    3  C3  UNL     1      25.611   5.908  49.848  1.00  0.00     0.064 A 
HETATM    4  C11 UNL     1      26.790   5.907  48.993  1.00  0.00    -0.008 A 
HETATM    5  C12 UNL     1      27.452   4.612  48.701  1.00  0.00     0.052 C 
HETATM    6  C13 UNL     1      27.329   6.969  48.435  1.00  0.00     0.106 A 
HETATM    7  O2  UNL     1      26.677   8.151  48.725  1.00  0.00    -0.237 OA
HETATM    8  N4  UNL     1      25.569   8.230  49.516  1.00  0.00    -0.264 N 
HETATM    9  H27 UNL     1      25.185   9.182  49.646  1.00  0.00     0.194 HD
ENDROOT
BRANCH   6  10
HETATM   10  C14 UNL     1      28.495   7.042  47.578  1.00  0.00     0.049 C 
BRANCH  10  11
HETATM   11  C15 UNL     1      29.715   7.176  48.110  1.00  0.00    -0.025 A 
HETATM   12  C16 UNL     1      30.221   8.340  48.882  1.00  0.00     0.159 A 
HETATM   13  N3  UNL     1      31.584   8.009  49.246  1.00  0.00    -0.385 N 
HETATM   14  C17 UNL     1      31.923   6.745  48.739  1.00  0.00     0.039 A 
HETATM   15  H23 UNL     1      32.132   8.705  49.813  1.00  0.00     0.160 HD
HETATM   16  C18 UNL     1      33.080   6.038  48.824  1.00  0.00     0.033 A 
HETATM   17  C22 UNL     1      30.825   6.262  48.074  1.00  0.00     0.001 A 
HETATM   18  C19 UNL     1      33.206   4.790  48.242  1.00  0.00     0.044 A 
HETATM   19  C20 UNL     1      32.130   4.260  47.562  1.00  0.00     0.117 A 
HETATM   20  F1  UNL     1      32.219   3.035  46.978  1.00  0.00    -0.206 F 
HETATM   21  C21 UNL     1      30.975   5.014  47.501  1.00  0.00     0.056 A 
ENDBRANCH  10  11
ENDBRANCH   6  10
BRANCH   3  22
HETATM   22  C4  UNL     1      25.002   4.764  50.464  1.00  0.00     0.254 C 
HETATM   23  O1  UNL     1      24.167   4.095  49.757  1.00  0.00    -0.268 OA
HETATM   24  N1  UNL     1      24.917   3.987  51.609  1.00  0.00    -0.355 N 
HETATM   25  H4  UNL     1      25.569   4.424  52.313  1.00  0.00     0.162 HD
BRANCH  24  26
HETATM   26  C5  UNL     1      24.177   2.826  51.967  1.00  0.00     0.153 C 
BRANCH  26  27
HETATM   27  C6  UNL     1      24.862   2.013  53.011  1.00  0.00     0.292 C 
BRANCH  27  28
HETATM   28  N2  UNL     1      26.240   1.775  52.659  1.00  0.00     0.090 N 
HETATM   29  C7  UNL     1      26.386   0.715  51.733  1.00  0.00     0.272 C 
HETATM   30  C8  UNL     1      26.728  -0.524  52.546  1.00  0.00     0.032 C 
HETATM   31  C9  UNL     1      27.453   0.018  53.725  1.00  0.00     0.032 C 
HETATM   32  C10 UNL     1      26.989   1.429  53.851  1.00  0.00     0.272 C 
ENDBRANCH  27  28
ENDBRANCH  26  27
ENDBRANCH  24  26
ENDBRANCH   3  22
TORSDOF 6
ENDMDL
MODEL 9
REMARK VINA RESULT:      -8.4      2.183      2.693
REMARK  6 active torsions:
REMARK  status: ('A' for Active; 'I' for Inactive)
REMARK    1  A    between atoms: C3_3  and  C4_4 
REMARK       I    between atoms: C4_4  and  N1_6 
REMARK    2  A    between atoms: N1_6  and  C5_7 
REMARK    3  A    between atoms: C5_7  and  C6_8 
REMARK    4  A    between atoms: C6_8  and  N2_9 
REMARK    5  A    between atoms: C13_16  and  C14_17 
REMARK    6  A    between atoms: C14_17  and  C15_18 
ROOT
HETATM    1  C1  UNL     1      21.292   3.613  49.464  1.00  0.00     0.071 C 
HETATM    2  C2  UNL     1      21.972   2.762  50.438  1.00  0.00     0.045 A 
HETATM    3  C3  UNL     1      21.482   2.088  51.497  1.00  0.00     0.064 A 
HETATM    4  C11 UNL     1      22.375   1.292  52.328  1.00  0.00    -0.008 A 
HETATM    5  C12 UNL     1      21.801   0.554  53.480  1.00  0.00     0.052 C 
HETATM    6  C13 UNL     1      23.670   1.155  52.142  1.00  0.00     0.106 A 
HETATM    7  O2  UNL     1      24.161   1.850  51.054  1.00  0.00    -0.237 OA
HETATM    8  N4  UNL     1      23.386   2.614  50.232  1.00  0.00    -0.264 N 
HETATM    9  H27 UNL     1      23.889   3.077  49.456  1.00  0.00     0.194 HD
ENDROOT
BRANCH   6  10
HETATM   10  C14 UNL     1      24.615   0.384  52.924  1.00  0.00     0.049 C 
BRANCH  10  11
HETATM   11  C15 UNL     1      25.772   0.930  53.313  1.00  0.00    -0.025 A 
HETATM   12  C16 UNL     1      25.982   2.330  53.764  1.00  0.00     0.159 A 
HETATM   13  N3  UNL     1      27.392   2.435  54.082  1.00  0.00    -0.385 N 
HETATM   14  C17 UNL     1      28.030   1.208  53.844  1.00  0.00     0.039 A 
HETATM   15  H23 UNL     1      27.757   3.357  54.434  1.00  0.00     0.160 HD
HETATM   16  C18 UNL     1      29.330   0.842  53.992  1.00  0.00     0.033 A 
HETATM   17  C22 UNL     1      27.077   0.330  53.394  1.00  0.00     0.001 A 
HETATM   18  C19 UNL     1      29.757  -0.439  53.694  1.00  0.00     0.044 A 
HETATM   19  C20 UNL     1      28.836  -1.359  53.238  1.00  0.00     0.117 A 
HETATM   20  F1  UNL     1      29.221  -2.628  52.936  1.00  0.00    -0.206 F 
HETATM   21  C21 UNL     1      27.526  -0.943  53.103  1.00  0.00     0.056 A 
ENDBRANCH  10  11
ENDBRANCH   6  10
BRANCH   3  22
HETATM   22  C4  UNL     1      20.067   2.250  51.676  1.00  0.00     0.254 C 
HETATM   23  O1  UNL     1      19.682   3.162  52.492  1.00  0.00    -0.268 OA
HETATM   24  N1  UNL     1      18.806   1.803  51.312  1.00  0.00    -0.355 N 
HETATM   25  H4  UNL     1      18.956   1.022  50.620  1.00  0.00     0.162 HD
BRANCH  24  26
HETATM   26  C5  UNL     1      17.480   2.173  51.674  1.00  0.00     0.153 C 
BRANCH  26  27
HETATM   27  C6  UNL     1      16.582   2.301  50.492  1.00  0.00     0.292 C 
BRANCH  27  28
HETATM   28  N2  UNL     1      15.218   1.996  50.845  1.00  0.00     0.090 N 
HETATM   29  C7  UNL     1      14.313   2.999  50.422  1.00  0.00     0.272 C 
HETATM   30  C8  UNL     1      14.071   3.897  51.625  1.00  0.00     0.032 C 
HETATM   31  C9  UNL     1      14.242   2.983  52.786  1.00  0.00     0.032 C 
HETATM   32  C10 UNL     1      15.107   1.877  52.285  1.00  0.00     0.272 C 
ENDBRANCH  27  28
ENDBRANCH  26  27
ENDBRANCH  24  26
ENDBRANCH   3  22
TORSDOF 6
ENDMDL
