MODEL 1
REMARK VINA RESULT:      -6.7      0.000      0.000
REMARK  10 active torsions:
REMARK  status: ('A' for Active; 'I' for Inactive)
REMARK    1  A    between atoms: C1_1  and  C15_21 
REMARK    2  A    between atoms: C3_3  and  C4_4 
REMARK    3  A    between atoms: C5_5  and  C6_6 
REMARK    4  A    between atoms: C6_6  and  C7_7 
REMARK    5  A    between atoms: C7_7  and  N1_8 
REMARK    6  A    between atoms: N1_8  and  C8_9 
REMARK    7  A    between atoms: C8_9  and  O1_10 
REMARK    8  A    between atoms: O1_10  and  C9_11 
REMARK    9  A    between atoms: C9_11  and  O2_12 
REMARK   10  A    between atoms: O2_12  and  C10_13 
ROOT
HETATM    1  O1  UNL     1      25.473   3.639  49.571  1.00  0.00    -0.337 OA
ENDROOT
BRANCH   1   2
HETATM    2  C8  UNL     1      25.251   4.928  50.115  1.00  0.00     0.439 C 
BRANCH   2   3
HETATM    3  N1  UNL     1      24.798   4.714  51.455  1.00  0.00     0.106 N 
HETATM    4  H8  UNL     1      25.157   5.391  52.144  1.00  0.00     0.318 HD
BRANCH   3   5
HETATM    5  C7  UNL     1      23.368   4.564  51.495  1.00  0.00     0.273 C 
BRANCH   5   6
HETATM    6  C6  UNL     1      22.998   3.384  52.324  1.00  0.00     0.046 C 
BRANCH   6   7
HETATM    7  C5  UNL     1      22.672   2.184  51.597  1.00  0.00     0.006 A 
HETATM    8  C4  UNL     1      22.526   1.227  52.834  1.00  0.00     0.038 A 
HETATM    9  C15 UNL     1      22.407   1.066  51.476  1.00  0.00    -0.060 A 
BRANCH   8  10
HETATM   10  C3  UNL     1      22.163  -0.317  52.702  1.00  0.00     0.033 A 
HETATM   11  C2  UNL     1      22.002  -1.330  53.938  1.00  0.00     0.033 A 
HETATM   12  C1  UNL     1      22.264  -0.220  54.055  1.00  0.00    -0.065 A 
ENDBRANCH   8  10
ENDBRANCH   6   7
ENDBRANCH   5   6
ENDBRANCH   3   5
ENDBRANCH   2   3
ENDBRANCH   1   2
BRANCH   1  13
HETATM   13  C9  UNL     1      26.480   2.979  50.259  1.00  0.00     0.348 C 
BRANCH  13  14
HETATM   14  O2  UNL     1      25.965   1.961  51.096  1.00  0.00    -0.310 OA
BRANCH  14  15
HETATM   15  C10 UNL     1      26.771   1.490  52.112  1.00  0.00     0.142 C 
HETATM   16  C11 UNL     1      26.645   0.167  52.144  1.00  0.00     0.075 C 
HETATM   17  C12 UNL     1      27.219  -0.889  52.964  1.00  0.00     0.122 C 
HETATM   18  N2  UNL     1      27.981  -0.888  54.030  1.00  0.00    -0.254 NA
HETATM   19  C13 UNL     1      28.557   0.155  54.817  1.00  0.00     0.228 C 
HETATM   20  N3  UNL     1      28.802   1.383  54.644  1.00  0.00    -0.263 NA
HETATM   21  C14 UNL     1      28.703   2.464  53.698  1.00  0.00     0.273 C 
HETATM   22  N4  UNL     1      27.520   2.412  52.868  1.00  0.00    -0.353 N 
HETATM   23  H18 UNL     1      27.045   3.358  52.783  1.00  0.00     0.163 HD
ENDBRANCH  14  15
ENDBRANCH  13  14
ENDBRANCH   1  13
TORSDOF 10
ENDMDL
MODEL 2
REMARK VINA RESULT:      -6.6      1.726      4.835
REMARK  10 active torsions:
REMARK  status: ('A' for Active; 'I' for Inactive)
REMARK    1  A    between atoms: C1_1  and  C15_21 
REMARK    2  A    between atoms: C3_3  and  C4_4 
REMARK    3  A    between atoms: C5_5  and  C6_6 
REMARK    4  A    between atoms: C6_6  and  C7_7 
REMARK    5  A    between atoms: C7_7  and  N1_8 
REMARK    6  A    between atoms: N1_8  and  C8_9 
REMARK    7  A    between atoms: C8_9  and  O1_10 
REMARK    8  A    between atoms: O1_10  and  C9_11 
REMARK    9  A    between atoms: C9_11  and  O2_12 
REMARK   10  A    between atoms: O2_12  and  C10_13 
ROOT
HETATM    1  O1  UNL     1      28.411   1.505  54.552  1.00  0.00    -0.337 OA
ENDROOT
BRANCH   1   2
HETATM    2  C8  UNL     1      29.016   0.277  54.187  1.00  0.00     0.439 C 
BRANCH   2   3
HETATM    3  N1  UNL     1      27.978  -0.705  54.257  1.00  0.00     0.106 N 
HETATM    4  H8  UNL     1      27.193  -0.458  54.877  1.00  0.00     0.318 HD
BRANCH   3   5
HETATM    5  C7  UNL     1      27.559  -1.102  52.938  1.00  0.00     0.273 C 
BRANCH   5   6
HETATM    6  C6  UNL     1      26.086  -0.942  52.797  1.00  0.00     0.046 C 
BRANCH   6   7
HETATM    7  C5  UNL     1      25.356  -0.736  54.022  1.00  0.00     0.006 A 
HETATM    8  C4  UNL     1      23.912  -0.755  53.407  1.00  0.00     0.038 A 
HETATM    9  C15 UNL     1      24.414  -0.597  54.675  1.00  0.00    -0.060 A 
BRANCH   8  10
HETATM   10  C3  UNL     1      22.592  -0.566  54.278  1.00  0.00     0.033 A 
HETATM   11  C2  UNL     1      21.099  -0.834  53.750  1.00  0.00     0.033 A 
HETATM   12  C1  UNL     1      22.037  -0.977  53.106  1.00  0.00    -0.065 A 
ENDBRANCH   8  10
ENDBRANCH   6   7
ENDBRANCH   5   6
ENDBRANCH   3   5
ENDBRANCH   2   3
ENDBRANCH   1   2
BRANCH   1  13
HETATM   13  C9  UNL     1      28.593   2.458  53.563  1.00  0.00     0.348 C 
BRANCH  13  14
HETATM   14  O2  UNL     1      27.992   2.070  52.341  1.00  0.00    -0.310 OA
BRANCH  14  15
HETATM   15  C10 UNL     1      26.747   2.583  52.040  1.00  0.00     0.142 C 
HETATM   16  C11 UNL     1      26.700   2.779  50.727  1.00  0.00     0.075 C 
HETATM   17  C12 UNL     1      25.690   3.287  49.811  1.00  0.00     0.122 C 
HETATM   18  N2  UNL     1      24.509   3.828  49.982  1.00  0.00    -0.254 NA
HETATM   19  C13 UNL     1      23.736   4.139  51.143  1.00  0.00     0.228 C 
HETATM   20  N3  UNL     1      23.741   3.770  52.352  1.00  0.00    -0.263 NA
HETATM   21  C14 UNL     1      24.403   2.916  53.303  1.00  0.00     0.273 C 
HETATM   22  N4  UNL     1      25.828   2.791  53.087  1.00  0.00    -0.353 N 
HETATM   23  H18 UNL     1      26.381   2.879  53.989  1.00  0.00     0.163 HD
ENDBRANCH  14  15
ENDBRANCH  13  14
ENDBRANCH   1  13
TORSDOF 10
ENDMDL
MODEL 3
REMARK VINA RESULT:      -6.5      2.115      5.096
REMARK  10 active torsions:
REMARK  status: ('A' for Active; 'I' for Inactive)
REMARK    1  A    between atoms: C1_1  and  C15_21 
REMARK    2  A    between atoms: C3_3  and  C4_4 
REMARK    3  A    between atoms: C5_5  and  C6_6 
REMARK    4  A    between atoms: C6_6  and  C7_7 
REMARK    5  A    between atoms: C7_7  and  N1_8 
REMARK    6  A    between atoms: N1_8  and  C8_9 
REMARK    7  A    between atoms: C8_9  and  O1_10 
REMARK    8  A    between atoms: O1_10  and  C9_11 
REMARK    9  A    between atoms: C9_11  and  O2_12 
REMARK   10  A    between atoms: O2_12  and  C10_13 
ROOT
HETATM    1  O1  UNL     1      23.294   3.173  51.615  1.00  0.00    -0.337 OA
ENDROOT
BRANCH   1   2
HETATM    2  C8  UNL     1      23.226   2.298  50.503  1.00  0.00     0.439 C 
BRANCH   2   3
HETATM    3  N1  UNL     1      23.891   2.976  49.433  1.00  0.00     0.106 N 
HETATM    4  H8  UNL     1      23.794   2.525  48.511  1.00  0.00     0.318 HD
BRANCH   3   5
HETATM    5  C7  UNL     1      23.550   4.374  49.421  1.00  0.00     0.273 C 
BRANCH   5   6
HETATM    6  C6  UNL     1      24.777   5.200  49.249  1.00  0.00     0.046 C 
BRANCH   6   7
HETATM    7  C5  UNL     1      26.026   4.486  49.299  1.00  0.00     0.006 A 
HETATM    8  C4  UNL     1      26.919   5.585  48.620  1.00  0.00     0.038 A 
HETATM    9  C15 UNL     1      27.157   4.331  49.123  1.00  0.00    -0.060 A 
BRANCH   8  10
HETATM   10  C3  UNL     1      28.479   5.403  48.362  1.00  0.00     0.033 A 
HETATM   11  C2  UNL     1      29.452   6.542  47.783  1.00  0.00     0.033 A 
HETATM   12  C1  UNL     1      28.330   6.694  47.962  1.00  0.00    -0.065 A 
ENDBRANCH   8  10
ENDBRANCH   6   7
ENDBRANCH   5   6
ENDBRANCH   3   5
ENDBRANCH   2   3
ENDBRANCH   1   2
BRANCH   1  13
HETATM   13  C9  UNL     1      24.306   2.793  52.482  1.00  0.00     0.348 C 
BRANCH  13  14
HETATM   14  O2  UNL     1      25.355   2.127  51.805  1.00  0.00    -0.310 OA
BRANCH  14  15
HETATM   15  C10 UNL     1      26.375   1.590  52.564  1.00  0.00     0.142 C 
HETATM   16  C11 UNL     1      26.241   0.268  52.539  1.00  0.00     0.075 C 
HETATM   17  C12 UNL     1      26.979  -0.840  53.127  1.00  0.00     0.122 C 
HETATM   18  N2  UNL     1      27.975  -0.909  53.976  1.00  0.00    -0.254 NA
HETATM   19  C13 UNL     1      28.739   0.080  54.668  1.00  0.00     0.228 C 
HETATM   20  N3  UNL     1      28.952   1.318  54.521  1.00  0.00    -0.263 NA
HETATM   21  C14 UNL     1      28.646   2.460  53.700  1.00  0.00     0.273 C 
HETATM   22  N4  UNL     1      27.297   2.461  53.177  1.00  0.00    -0.353 N 
HETATM   23  H18 UNL     1      26.829   3.410  53.270  1.00  0.00     0.163 HD
ENDBRANCH  14  15
ENDBRANCH  13  14
ENDBRANCH   1  13
TORSDOF 10
ENDMDL
MODEL 4
REMARK VINA RESULT:      -6.2      3.152      6.365
REMARK  10 active torsions:
REMARK  status: ('A' for Active; 'I' for Inactive)
REMARK    1  A    between atoms: C1_1  and  C15_21 
REMARK    2  A    between atoms: C3_3  and  C4_4 
REMARK    3  A    between atoms: C5_5  and  C6_6 
REMARK    4  A    between atoms: C6_6  and  C7_7 
REMARK    5  A    between atoms: C7_7  and  N1_8 
REMARK    6  A    between atoms: N1_8  and  C8_9 
REMARK    7  A    between atoms: C8_9  and  O1_10 
REMARK    8  A    between atoms: O1_10  and  C9_11 
REMARK    9  A    between atoms: C9_11  and  O2_12 
REMARK   10  A    between atoms: O2_12  and  C10_13 
ROOT
HETATM    1  O1  UNL     1      26.987   0.818  52.401  1.00  0.00    -0.337 OA
ENDROOT
BRANCH   1   2
HETATM    2  C8  UNL     1      27.312   2.183  52.205  1.00  0.00     0.439 C 
BRANCH   2   3
HETATM    3  N1  UNL     1      26.061   2.875  52.141  1.00  0.00     0.106 N 
HETATM    4  H8  UNL     1      26.078   3.832  52.524  1.00  0.00     0.318 HD
BRANCH   3   5
HETATM    5  C7  UNL     1      25.501   2.801  50.818  1.00  0.00     0.273 C 
BRANCH   5   6
HETATM    6  C6  UNL     1      26.488   3.287  49.815  1.00  0.00     0.046 C 
BRANCH   6   7
HETATM    7  C5  UNL     1      26.216   4.581  49.242  1.00  0.00     0.006 A 
HETATM    8  C4  UNL     1      27.682   4.919  48.792  1.00  0.00     0.038 A 
HETATM    9  C15 UNL     1      26.478   5.574  48.715  1.00  0.00    -0.060 A 
BRANCH   8  10
HETATM   10  C3  UNL     1      28.077   6.279  48.064  1.00  0.00     0.033 A 
HETATM   11  C2  UNL     1      29.563   6.671  47.597  1.00  0.00     0.033 A 
HETATM   12  C1  UNL     1      29.300   5.685  48.120  1.00  0.00    -0.065 A 
ENDBRANCH   8  10
ENDBRANCH   6   7
ENDBRANCH   5   6
ENDBRANCH   3   5
ENDBRANCH   2   3
ENDBRANCH   1   2
BRANCH   1  13
HETATM   13  C9  UNL     1      27.083   0.473  53.740  1.00  0.00     0.348 C 
BRANCH  13  14
HETATM   14  O2  UNL     1      26.374  -0.717  54.029  1.00  0.00    -0.310 OA
BRANCH  14  15
HETATM   15  C10 UNL     1      24.995  -0.671  54.001  1.00  0.00     0.142 C 
HETATM   16  C11 UNL     1      24.551  -1.253  55.111  1.00  0.00     0.075 C 
HETATM   17  C12 UNL     1      23.231  -1.516  55.661  1.00  0.00     0.122 C 
HETATM   18  N2  UNL     1      22.014  -1.364  55.198  1.00  0.00    -0.254 NA
HETATM   19  C13 UNL     1      21.495  -0.876  53.960  1.00  0.00     0.228 C 
HETATM   20  N3  UNL     1      21.943  -0.167  53.013  1.00  0.00    -0.263 NA
HETATM   21  C14 UNL     1      23.100   0.552  52.548  1.00  0.00     0.273 C 
HETATM   22  N4  UNL     1      24.358  -0.069  52.899  1.00  0.00    -0.353 N 
HETATM   23  H18 UNL     1      25.037  -0.091  52.083  1.00  0.00     0.163 HD
ENDBRANCH  14  15
ENDBRANCH  13  14
ENDBRANCH   1  13
TORSDOF 10
ENDMDL
MODEL 5
REMARK VINA RESULT:      -6.1      1.352      2.094
REMARK  10 active torsions:
REMARK  status: ('A' for Active; 'I' for Inactive)
REMARK    1  A    between atoms: C1_1  and  C15_21 
REMARK    2  A    between atoms: C3_3  and  C4_4 
REMARK    3  A    between atoms: C5_5  and  C6_6 
REMARK    4  A    between atoms: C6_6  and  C7_7 
REMARK    5  A    between atoms: C7_7  and  N1_8 
REMARK    6  A    between atoms: N1_8  and  C8_9 
REMARK    7  A    between atoms: C8_9  and  O1_10 
REMARK    8  A    between atoms: O1_10  and  C9_11 
REMARK    9  A    between atoms: C9_11  and  O2_12 
REMARK   10  A    between atoms: O2_12  and  C10_13 
ROOT
HETATM    1  O1  UNL     1      24.249   3.505  51.475  1.00  0.00    -0.337 OA
ENDROOT
BRANCH   1   2
HETATM    2  C8  UNL     1      23.403   2.551  50.855  1.00  0.00     0.439 C 
BRANCH   2   3
HETATM    3  N1  UNL     1      22.208   2.522  51.641  1.00  0.00     0.106 N 
HETATM    4  H8  UNL     1      21.847   3.449  51.909  1.00  0.00     0.318 HD
BRANCH   3   5
HETATM    5  C7  UNL     1      21.214   1.679  51.030  1.00  0.00     0.273 C 
BRANCH   5   6
HETATM    6  C6  UNL     1      21.315   0.294  51.568  1.00  0.00     0.046 C 
BRANCH   6   7
HETATM    7  C5  UNL     1      20.934   0.126  52.946  1.00  0.00     0.006 A 
HETATM    8  C4  UNL     1      22.232  -0.612  53.431  1.00  0.00     0.038 A 
HETATM    9  C15 UNL     1      21.068  -0.218  54.041  1.00  0.00    -0.060 A 
BRANCH   8  10
HETATM   10  C3  UNL     1      22.448  -1.100  54.931  1.00  0.00     0.033 A 
HETATM   11  C2  UNL     1      23.878  -1.298  55.634  1.00  0.00     0.033 A 
HETATM   12  C1  UNL     1      23.745  -0.945  54.551  1.00  0.00    -0.065 A 
ENDBRANCH   8  10
ENDBRANCH   6   7
ENDBRANCH   5   6
ENDBRANCH   3   5
ENDBRANCH   2   3
ENDBRANCH   1   2
BRANCH   1  13
HETATM   13  C9  UNL     1      25.573   3.295  51.122  1.00  0.00     0.348 C 
BRANCH  13  14
HETATM   14  O2  UNL     1      25.908   1.920  51.131  1.00  0.00    -0.310 OA
BRANCH  14  15
HETATM   15  C10 UNL     1      26.747   1.465  52.127  1.00  0.00     0.142 C 
HETATM   16  C11 UNL     1      26.650   0.140  52.161  1.00  0.00     0.075 C 
HETATM   17  C12 UNL     1      27.264  -0.903  52.968  1.00  0.00     0.122 C 
HETATM   18  N2  UNL     1      28.050  -0.886  54.016  1.00  0.00    -0.254 NA
HETATM   19  C13 UNL     1      28.621   0.168  54.792  1.00  0.00     0.228 C 
HETATM   20  N3  UNL     1      28.835   1.402  54.614  1.00  0.00    -0.263 NA
HETATM   21  C14 UNL     1      28.692   2.481  53.672  1.00  0.00     0.273 C 
HETATM   22  N4  UNL     1      27.493   2.404  52.868  1.00  0.00    -0.353 N 
HETATM   23  H18 UNL     1      26.995   3.339  52.794  1.00  0.00     0.163 HD
ENDBRANCH  14  15
ENDBRANCH  13  14
ENDBRANCH   1  13
TORSDOF 10
ENDMDL
MODEL 6
REMARK VINA RESULT:      -5.9      2.364      5.175
REMARK  10 active torsions:
REMARK  status: ('A' for Active; 'I' for Inactive)
REMARK    1  A    between atoms: C1_1  and  C15_21 
REMARK    2  A    between atoms: C3_3  and  C4_4 
REMARK    3  A    between atoms: C5_5  and  C6_6 
REMARK    4  A    between atoms: C6_6  and  C7_7 
REMARK    5  A    between atoms: C7_7  and  N1_8 
REMARK    6  A    between atoms: N1_8  and  C8_9 
REMARK    7  A    between atoms: C8_9  and  O1_10 
REMARK    8  A    between atoms: O1_10  and  C9_11 
REMARK    9  A    between atoms: C9_11  and  O2_12 
REMARK   10  A    between atoms: O2_12  and  C10_13 
ROOT
HETATM    1  O1  UNL     1      23.884   2.690  51.732  1.00  0.00    -0.337 OA
ENDROOT
BRANCH   1   2
HETATM    2  C8  UNL     1      23.311   3.882  52.243  1.00  0.00     0.439 C 
BRANCH   2   3
HETATM    3  N1  UNL     1      23.006   4.688  51.101  1.00  0.00     0.106 N 
HETATM    4  H8  UNL     1      22.032   5.023  51.058  1.00  0.00     0.318 HD
BRANCH   3   5
HETATM    5  C7  UNL     1      23.977   5.738  50.940  1.00  0.00     0.273 C 
BRANCH   5   6
HETATM    6  C6  UNL     1      24.624   5.640  49.603  1.00  0.00     0.046 C 
BRANCH   6   7
HETATM    7  C5  UNL     1      25.674   4.662  49.484  1.00  0.00     0.006 A 
HETATM    8  C4  UNL     1      26.767   5.607  48.868  1.00  0.00     0.038 A 
HETATM    9  C15 UNL     1      26.729   4.278  49.211  1.00  0.00    -0.060 A 
BRANCH   8  10
HETATM   10  C3  UNL     1      28.228   5.110  48.479  1.00  0.00     0.033 A 
HETATM   11  C2  UNL     1      29.377   6.042  47.853  1.00  0.00     0.033 A 
HETATM   12  C1  UNL     1      28.330   6.420  48.126  1.00  0.00    -0.065 A 
ENDBRANCH   8  10
ENDBRANCH   6   7
ENDBRANCH   5   6
ENDBRANCH   3   5
ENDBRANCH   2   3
ENDBRANCH   1   2
BRANCH   1  13
HETATM   13  C9  UNL     1      25.076   2.400  52.374  1.00  0.00     0.348 C 
BRANCH  13  14
HETATM   14  O2  UNL     1      25.924   1.599  51.572  1.00  0.00    -0.310 OA
BRANCH  14  15
HETATM   15  C10 UNL     1      26.837   0.784  52.210  1.00  0.00     0.142 C 
HETATM   16  C11 UNL     1      27.722   1.569  52.815  1.00  0.00     0.075 C 
HETATM   17  C12 UNL     1      28.902   1.328  53.632  1.00  0.00     0.122 C 
HETATM   18  N2  UNL     1      29.561   0.246  53.966  1.00  0.00    -0.254 NA
HETATM   19  C13 UNL     1      29.386  -1.138  53.659  1.00  0.00     0.228 C 
HETATM   20  N3  UNL     1      28.432  -1.852  53.236  1.00  0.00    -0.263 NA
HETATM   21  C14 UNL     1      27.055  -1.820  52.819  1.00  0.00     0.273 C 
HETATM   22  N4  UNL     1      26.682  -0.613  52.115  1.00  0.00    -0.353 N 
HETATM   23  H18 UNL     1      26.107  -0.815  51.245  1.00  0.00     0.163 HD
ENDBRANCH  14  15
ENDBRANCH  13  14
ENDBRANCH   1  13
TORSDOF 10
ENDMDL
MODEL 7
REMARK VINA RESULT:      -5.6      3.089      6.284
REMARK  10 active torsions:
REMARK  status: ('A' for Active; 'I' for Inactive)
REMARK    1  A    between atoms: C1_1  and  C15_21 
REMARK    2  A    between atoms: C3_3  and  C4_4 
REMARK    3  A    between atoms: C5_5  and  C6_6 
REMARK    4  A    between atoms: C6_6  and  C7_7 
REMARK    5  A    between atoms: C7_7  and  N1_8 
REMARK    6  A    between atoms: N1_8  and  C8_9 
REMARK    7  A    between atoms: C8_9  and  O1_10 
REMARK    8  A    between atoms: O1_10  and  C9_11 
REMARK    9  A    between atoms: C9_11  and  O2_12 
REMARK   10  A    between atoms: O2_12  and  C10_13 
ROOT
HETATM    1  O1  UNL     1      26.064   3.421  50.790  1.00  0.00    -0.337 OA
ENDROOT
BRANCH   1   2
HETATM    2  C8  UNL     1      25.723   4.487  49.921  1.00  0.00     0.439 C 
BRANCH   2   3
HETATM    3  N1  UNL     1      25.006   5.430  50.724  1.00  0.00     0.106 N 
HETATM    4  H8  UNL     1      25.057   5.257  51.738  1.00  0.00     0.318 HD
BRANCH   3   5
HETATM    5  C7  UNL     1      25.347   6.779  50.357  1.00  0.00     0.273 C 
BRANCH   5   6
HETATM    6  C6  UNL     1      26.379   6.774  49.284  1.00  0.00     0.046 C 
BRANCH   6   7
HETATM    7  C5  UNL     1      26.056   7.529  48.100  1.00  0.00     0.006 A 
HETATM    8  C4  UNL     1      27.495   7.550  47.471  1.00  0.00     0.038 A 
HETATM    9  C15 UNL     1      26.275   8.057  47.097  1.00  0.00    -0.060 A 
BRANCH   8  10
HETATM   10  C3  UNL     1      27.831   8.269  46.091  1.00  0.00     0.033 A 
HETATM   11  C2  UNL     1      29.287   8.322  45.416  1.00  0.00     0.033 A 
HETATM   12  C1  UNL     1      29.067   7.799  46.412  1.00  0.00    -0.065 A 
ENDBRANCH   8  10
ENDBRANCH   6   7
ENDBRANCH   5   6
ENDBRANCH   3   5
ENDBRANCH   2   3
ENDBRANCH   1   2
BRANCH   1  13
HETATM   13  C9  UNL     1      24.934   2.891  51.390  1.00  0.00     0.348 C 
BRANCH  13  14
HETATM   14  O2  UNL     1      25.059   2.847  52.800  1.00  0.00    -0.310 OA
BRANCH  14  15
HETATM   15  C10 UNL     1      26.093   2.107  53.334  1.00  0.00     0.142 C 
HETATM   16  C11 UNL     1      25.661   0.859  53.481  1.00  0.00     0.075 C 
HETATM   17  C12 UNL     1      26.257  -0.371  53.980  1.00  0.00     0.122 C 
HETATM   18  N2  UNL     1      27.399  -0.648  54.559  1.00  0.00    -0.254 NA
HETATM   19  C13 UNL     1      28.523   0.150  54.935  1.00  0.00     0.228 C 
HETATM   20  N3  UNL     1      28.965   1.290  54.612  1.00  0.00    -0.263 NA
HETATM   21  C14 UNL     1      28.719   2.437  53.778  1.00  0.00     0.273 C 
HETATM   22  N4  UNL     1      27.317   2.749  53.606  1.00  0.00    -0.353 N 
HETATM   23  H18 UNL     1      27.119   3.787  53.714  1.00  0.00     0.163 HD
ENDBRANCH  14  15
ENDBRANCH  13  14
ENDBRANCH   1  13
TORSDOF 10
ENDMDL
MODEL 8
REMARK VINA RESULT:      -5.6      3.158      5.853
REMARK  10 active torsions:
REMARK  status: ('A' for Active; 'I' for Inactive)
REMARK    1  A    between atoms: C1_1  and  C15_21 
REMARK    2  A    between atoms: C3_3  and  C4_4 
REMARK    3  A    between atoms: C5_5  and  C6_6 
REMARK    4  A    between atoms: C6_6  and  C7_7 
REMARK    5  A    between atoms: C7_7  and  N1_8 
REMARK    6  A    between atoms: N1_8  and  C8_9 
REMARK    7  A    between atoms: C8_9  and  O1_10 
REMARK    8  A    between atoms: O1_10  and  C9_11 
REMARK    9  A    between atoms: C9_11  and  O2_12 
REMARK   10  A    between atoms: O2_12  and  C10_13 
ROOT
HETATM    1  O1  UNL     1      25.291   3.415  49.516  1.00  0.00    -0.337 OA
ENDROOT
BRANCH   1   2
HETATM    2  C8  UNL     1      24.218   4.207  49.995  1.00  0.00     0.439 C 
BRANCH   2   3
HETATM    3  N1  UNL     1      24.586   4.601  51.320  1.00  0.00     0.106 N 
HETATM    4  H8  UNL     1      24.796   5.604  51.429  1.00  0.00     0.318 HD
BRANCH   3   5
HETATM    5  C7  UNL     1      23.635   4.110  52.283  1.00  0.00     0.273 C 
BRANCH   5   6
HETATM    6  C6  UNL     1      23.965   2.709  52.663  1.00  0.00     0.046 C 
BRANCH   6   7
HETATM    7  C5  UNL     1      25.191   2.531  53.398  1.00  0.00     0.006 A 
HETATM    8  C4  UNL     1      25.474   1.046  52.969  1.00  0.00     0.038 A 
HETATM    9  C15 UNL     1      26.118   1.953  53.774  1.00  0.00    -0.060 A 
BRANCH   8  10
HETATM   10  C3  UNL     1      26.740   0.222  53.470  1.00  0.00     0.033 A 
HETATM   11  C2  UNL     1      27.240  -1.166  52.835  1.00  0.00     0.033 A 
HETATM   12  C1  UNL     1      26.324  -0.588  52.459  1.00  0.00    -0.065 A 
ENDBRANCH   8  10
ENDBRANCH   6   7
ENDBRANCH   5   6
ENDBRANCH   3   5
ENDBRANCH   2   3
ENDBRANCH   1   2
BRANCH   1  13
HETATM   13  C9  UNL     1      26.500   4.073  49.671  1.00  0.00     0.348 C 
BRANCH  13  14
HETATM   14  O2  UNL     1      26.806   4.882  48.551  1.00  0.00    -0.310 OA
BRANCH  14  15
HETATM   15  C10 UNL     1      27.317   6.143  48.784  1.00  0.00     0.142 C 
HETATM   16  C11 UNL     1      28.408   6.278  48.038  1.00  0.00     0.075 C 
HETATM   17  C12 UNL     1      29.376   7.346  47.837  1.00  0.00     0.122 C 
HETATM   18  N2  UNL     1      29.563   8.510  48.408  1.00  0.00    -0.254 NA
HETATM   19  C13 UNL     1      28.891   9.201  49.462  1.00  0.00     0.228 C 
HETATM   20  N3  UNL     1      27.755   9.117  50.012  1.00  0.00    -0.263 NA
HETATM   21  C14 UNL     1      26.510   8.395  50.000  1.00  0.00     0.273 C 
HETATM   22  N4  UNL     1      26.650   6.989  49.691  1.00  0.00    -0.353 N 
HETATM   23  H18 UNL     1      26.076   6.374  50.341  1.00  0.00     0.163 HD
ENDBRANCH  14  15
ENDBRANCH  13  14
ENDBRANCH   1  13
TORSDOF 10
ENDMDL
MODEL 9
REMARK VINA RESULT:      -5.5      2.385      2.839
REMARK  10 active torsions:
REMARK  status: ('A' for Active; 'I' for Inactive)
REMARK    1  A    between atoms: C1_1  and  C15_21 
REMARK    2  A    between atoms: C3_3  and  C4_4 
REMARK    3  A    between atoms: C5_5  and  C6_6 
REMARK    4  A    between atoms: C6_6  and  C7_7 
REMARK    5  A    between atoms: C7_7  and  N1_8 
REMARK    6  A    between atoms: N1_8  and  C8_9 
REMARK    7  A    between atoms: C8_9  and  O1_10 
REMARK    8  A    between atoms: O1_10  and  C9_11 
REMARK    9  A    between atoms: C9_11  and  O2_12 
REMARK   10  A    between atoms: O2_12  and  C10_13 
ROOT
HETATM    1  O1  UNL     1      24.049   3.137  52.424  1.00  0.00    -0.337 OA
ENDROOT
BRANCH   1   2
HETATM    2  C8  UNL     1      23.181   2.097  52.010  1.00  0.00     0.439 C 
BRANCH   2   3
HETATM    3  N1  UNL     1      22.371   2.656  50.972  1.00  0.00     0.106 N 
HETATM    4  H8  UNL     1      22.571   3.643  50.754  1.00  0.00     0.318 HD
BRANCH   3   5
HETATM    5  C7  UNL     1      22.366   1.805  49.811  1.00  0.00     0.273 C 
BRANCH   5   6
HETATM    6  C6  UNL     1      21.350   0.728  49.967  1.00  0.00     0.046 C 
BRANCH   6   7
HETATM    7  C5  UNL     1      19.974   1.150  49.903  1.00  0.00     0.006 A 
HETATM    8  C4  UNL     1      19.415   0.196  51.018  1.00  0.00     0.038 A 
HETATM    9  C15 UNL     1      18.858   1.145  50.198  1.00  0.00    -0.060 A 
BRANCH   8  10
HETATM   10  C3  UNL     1      17.882   0.163  51.447  1.00  0.00     0.033 A 
HETATM   11  C2  UNL     1      17.289  -0.703  52.663  1.00  0.00     0.033 A 
HETATM   12  C1  UNL     1      18.397  -0.694  52.370  1.00  0.00    -0.065 A 
ENDBRANCH   8  10
ENDBRANCH   6   7
ENDBRANCH   5   6
ENDBRANCH   3   5
ENDBRANCH   2   3
ENDBRANCH   1   2
BRANCH   1  13
HETATM   13  C9  UNL     1      25.138   3.240  51.574  1.00  0.00     0.348 C 
BRANCH  13  14
HETATM   14  O2  UNL     1      25.722   1.978  51.311  1.00  0.00    -0.310 OA
BRANCH  14  15
HETATM   15  C10 UNL     1      26.637   1.487  52.220  1.00  0.00     0.142 C 
HETATM   16  C11 UNL     1      26.597   0.160  52.154  1.00  0.00     0.075 C 
HETATM   17  C12 UNL     1      27.301  -0.913  52.840  1.00  0.00     0.122 C 
HETATM   18  N2  UNL     1      28.146  -0.941  53.841  1.00  0.00    -0.254 NA
HETATM   19  C13 UNL     1      28.717   0.076  54.665  1.00  0.00     0.228 C 
HETATM   20  N3  UNL     1      28.869   1.329  54.574  1.00  0.00    -0.263 NA
HETATM   21  C14 UNL     1      28.626   2.469  53.730  1.00  0.00     0.273 C 
HETATM   22  N4  UNL     1      27.385   2.399  52.991  1.00  0.00    -0.353 N 
HETATM   23  H18 UNL     1      26.846   3.314  53.020  1.00  0.00     0.163 HD
ENDBRANCH  14  15
ENDBRANCH  13  14
ENDBRANCH   1  13
TORSDOF 10
ENDMDL
