MODEL 1
REMARK VINA RESULT:      -8.7      0.000      0.000
REMARK  4 active torsions:
REMARK  status: ('A' for Active; 'I' for Inactive)
REMARK    1  A    between atoms: C3_3  and  C4_4 
REMARK    2  A    between atoms: C5_5  and  C6_6 
REMARK    3  A    between atoms: N3_14  and  C12_15 
REMARK    4  A    between atoms: C12_15  and  C14_17 
ROOT
HETATM    1  C6  UNL     1      24.388   1.329  52.623  1.00  0.00     0.037 A 
HETATM    2  C7  UNL     1      23.667   1.875  51.608  1.00  0.00     0.046 A 
HETATM    3  C8  UNL     1      24.575   2.568  50.836  1.00  0.00     0.030 A 
HETATM    4  C9  UNL     1      24.448   3.318  49.686  1.00  0.00     0.133 A 
HETATM    5  N1  UNL     1      25.544   3.896  49.136  1.00  0.00    -0.253 NA
HETATM    6  C10 UNL     1      26.739   3.708  49.755  1.00  0.00     0.234 A 
HETATM    7  N2  UNL     1      26.851   2.977  50.872  1.00  0.00    -0.223 NA
HETATM    8  C11 UNL     1      25.771   2.380  51.453  1.00  0.00     0.144 A 
HETATM    9  N3  UNL     1      25.693   1.606  52.581  1.00  0.00    -0.322 N 
ENDROOT
BRANCH   9  10
HETATM   10  C12 UNL     1      26.789   1.241  53.432  1.00  0.00     0.120 C 
HETATM   11  C13 UNL     1      27.888   2.274  53.499  1.00  0.00     0.038 C 
BRANCH  10  12
HETATM   12  C14 UNL     1      27.347  -0.094  53.207  1.00  0.00    -0.035 A 
HETATM   13  C15 UNL     1      26.771  -1.230  52.678  1.00  0.00     0.009 A 
HETATM   14  C16 UNL     1      27.432  -2.428  52.536  1.00  0.00     0.001 A 
HETATM   15  C17 UNL     1      28.743  -2.556  52.927  1.00  0.00     0.000 A 
HETATM   16  C18 UNL     1      29.388  -1.467  53.465  1.00  0.00     0.001 A 
HETATM   17  C19 UNL     1      28.678  -0.295  53.584  1.00  0.00     0.009 A 
ENDBRANCH  10  12
ENDBRANCH   9  10
BRANCH   1  18
HETATM   18  C5  UNL     1      23.747   0.521  53.642  1.00  0.00     0.029 C 
HETATM   19  C4  UNL     1      22.941  -0.497  53.387  1.00  0.00     0.002 C 
BRANCH  19  20
HETATM   20  C3  UNL     1      22.251  -1.369  54.362  1.00  0.00    -0.004 C 
HETATM   21  C2  UNL     1      20.949  -1.402  54.395  1.00  0.00    -0.031 C 
HETATM   22  C1  UNL     1      20.231  -0.539  53.421  1.00  0.00     0.036 C 
ENDBRANCH  19  20
ENDBRANCH   1  18
TORSDOF 4
ENDMDL
MODEL 2
REMARK VINA RESULT:      -8.6      1.450      4.839
REMARK  4 active torsions:
REMARK  status: ('A' for Active; 'I' for Inactive)
REMARK    1  A    between atoms: C3_3  and  C4_4 
REMARK    2  A    between atoms: C5_5  and  C6_6 
REMARK    3  A    between atoms: N3_14  and  C12_15 
REMARK    4  A    between atoms: C12_15  and  C14_17 
ROOT
HETATM    1  C6  UNL     1      25.438   2.108  51.405  1.00  0.00     0.037 A 
HETATM    2  C7  UNL     1      24.181   2.103  50.887  1.00  0.00     0.046 A 
HETATM    3  C8  UNL     1      23.423   1.345  51.755  1.00  0.00     0.030 A 
HETATM    4  C9  UNL     1      22.093   0.982  51.766  1.00  0.00     0.133 A 
HETATM    5  N1  UNL     1      21.615   0.211  52.774  1.00  0.00    -0.253 NA
HETATM    6  C10 UNL     1      22.486  -0.177  53.743  1.00  0.00     0.234 A 
HETATM    7  N2  UNL     1      23.776   0.182  53.722  1.00  0.00    -0.223 NA
HETATM    8  C11 UNL     1      24.292   0.957  52.726  1.00  0.00     0.144 A 
HETATM    9  N3  UNL     1      25.568   1.418  52.539  1.00  0.00    -0.322 N 
ENDROOT
BRANCH   9  10
HETATM   10  C12 UNL     1      26.689   1.169  53.398  1.00  0.00     0.120 C 
HETATM   11  C13 UNL     1      27.705   2.286  53.427  1.00  0.00     0.038 C 
BRANCH  10  12
HETATM   12  C14 UNL     1      27.350  -0.125  53.217  1.00  0.00    -0.035 A 
HETATM   13  C15 UNL     1      26.862  -1.322  52.738  1.00  0.00     0.009 A 
HETATM   14  C16 UNL     1      27.614  -2.469  52.633  1.00  0.00     0.001 A 
HETATM   15  C17 UNL     1      28.935  -2.478  53.013  1.00  0.00     0.000 A 
HETATM   16  C18 UNL     1      29.496  -1.322  53.503  1.00  0.00     0.001 A 
HETATM   17  C19 UNL     1      28.697  -0.205  53.586  1.00  0.00     0.009 A 
ENDBRANCH  10  12
ENDBRANCH   9  10
BRANCH   1  18
HETATM   18  C5  UNL     1      26.514   2.820  50.741  1.00  0.00     0.029 C 
HETATM   19  C4  UNL     1      26.347   3.613  49.696  1.00  0.00     0.002 C 
BRANCH  19  20
HETATM   20  C3  UNL     1      27.385   4.373  48.964  1.00  0.00    -0.004 C 
HETATM   21  C2  UNL     1      27.146   5.595  48.582  1.00  0.00    -0.031 C 
HETATM   22  C1  UNL     1      25.810   6.155  48.920  1.00  0.00     0.036 C 
ENDBRANCH  19  20
ENDBRANCH   1  18
TORSDOF 4
ENDMDL
MODEL 3
REMARK VINA RESULT:      -8.1      1.935      5.003
REMARK  4 active torsions:
REMARK  status: ('A' for Active; 'I' for Inactive)
REMARK    1  A    between atoms: C3_3  and  C4_4 
REMARK    2  A    between atoms: C5_5  and  C6_6 
REMARK    3  A    between atoms: N3_14  and  C12_15 
REMARK    4  A    between atoms: C12_15  and  C14_17 
ROOT
HETATM    1  C6  UNL     1      25.304   0.038  53.329  1.00  0.00     0.037 A 
HETATM    2  C7  UNL     1      26.146  -0.333  54.330  1.00  0.00     0.046 A 
HETATM    3  C8  UNL     1      27.216   0.533  54.258  1.00  0.00     0.030 A 
HETATM    4  C9  UNL     1      28.373   0.657  54.998  1.00  0.00     0.133 A 
HETATM    5  N1  UNL     1      29.267   1.628  54.689  1.00  0.00    -0.253 NA
HETATM    6  C10 UNL     1      28.977   2.449  53.645  1.00  0.00     0.234 A 
HETATM    7  N2  UNL     1      27.850   2.319  52.933  1.00  0.00    -0.223 NA
HETATM    8  C11 UNL     1      26.927   1.355  53.215  1.00  0.00     0.144 A 
HETATM    9  N3  UNL     1      25.733   1.074  52.606  1.00  0.00    -0.322 N 
ENDROOT
BRANCH   9  10
HETATM   10  C12 UNL     1      25.173   1.771  51.485  1.00  0.00     0.120 C 
HETATM   11  C13 UNL     1      26.187   2.518  50.652  1.00  0.00     0.038 C 
BRANCH  10  12
HETATM   12  C14 UNL     1      24.020   2.625  51.783  1.00  0.00    -0.035 A 
HETATM   13  C15 UNL     1      23.929   3.781  52.529  1.00  0.00     0.009 A 
HETATM   14  C16 UNL     1      22.758   4.475  52.725  1.00  0.00     0.001 A 
HETATM   15  C17 UNL     1      21.581   4.035  52.168  1.00  0.00     0.000 A 
HETATM   16  C18 UNL     1      21.589   2.888  51.410  1.00  0.00     0.001 A 
HETATM   17  C19 UNL     1      22.789   2.235  51.247  1.00  0.00     0.009 A 
ENDBRANCH  10  12
ENDBRANCH   9  10
BRANCH   1  18
HETATM   18  C5  UNL     1      24.056  -0.667  53.105  1.00  0.00     0.029 C 
HETATM   19  C4  UNL     1      23.101  -0.794  54.011  1.00  0.00     0.002 C 
BRANCH  19  20
HETATM   20  C3  UNL     1      21.805  -1.491  53.865  1.00  0.00    -0.004 C 
HETATM   21  C2  UNL     1      20.692  -0.821  53.969  1.00  0.00    -0.031 C 
HETATM   22  C1  UNL     1      20.809   0.638  54.231  1.00  0.00     0.036 C 
ENDBRANCH  19  20
ENDBRANCH   1  18
TORSDOF 4
ENDMDL
MODEL 4
REMARK VINA RESULT:      -8.1      1.889      4.619
REMARK  4 active torsions:
REMARK  status: ('A' for Active; 'I' for Inactive)
REMARK    1  A    between atoms: C3_3  and  C4_4 
REMARK    2  A    between atoms: C5_5  and  C6_6 
REMARK    3  A    between atoms: N3_14  and  C12_15 
REMARK    4  A    between atoms: C12_15  and  C14_17 
ROOT
HETATM    1  C6  UNL     1      23.845   0.953  52.193  1.00  0.00     0.037 A 
HETATM    2  C7  UNL     1      22.596   0.444  52.369  1.00  0.00     0.046 A 
HETATM    3  C8  UNL     1      22.668  -0.336  53.504  1.00  0.00     0.030 A 
HETATM    4  C9  UNL     1      21.736  -1.098  54.178  1.00  0.00     0.133 A 
HETATM    5  N1  UNL     1      22.102  -1.774  55.295  1.00  0.00    -0.253 NA
HETATM    6  C10 UNL     1      23.393  -1.668  55.706  1.00  0.00     0.234 A 
HETATM    7  N2  UNL     1      24.290  -0.924  55.043  1.00  0.00    -0.223 NA
HETATM    8  C11 UNL     1      23.958  -0.231  53.917  1.00  0.00     0.144 A 
HETATM    9  N3  UNL     1      24.729   0.571  53.118  1.00  0.00    -0.322 N 
ENDROOT
BRANCH   9  10
HETATM   10  C12 UNL     1      26.120   0.865  53.307  1.00  0.00     0.120 C 
HETATM   11  C13 UNL     1      26.620   2.034  52.492  1.00  0.00     0.038 C 
BRANCH  10  12
HETATM   12  C14 UNL     1      27.030  -0.276  53.186  1.00  0.00    -0.035 A 
HETATM   13  C15 UNL     1      26.821  -1.539  52.674  1.00  0.00     0.009 A 
HETATM   14  C16 UNL     1      27.787  -2.519  52.636  1.00  0.00     0.001 A 
HETATM   15  C17 UNL     1      29.049  -2.278  53.123  1.00  0.00     0.000 A 
HETATM   16  C18 UNL     1      29.335  -1.041  53.652  1.00  0.00     0.001 A 
HETATM   17  C19 UNL     1      28.332  -0.100  53.665  1.00  0.00     0.009 A 
ENDBRANCH  10  12
ENDBRANCH   9  10
BRANCH   1  18
HETATM   18  C5  UNL     1      24.141   1.832  51.078  1.00  0.00     0.029 C 
HETATM   19  C4  UNL     1      23.223   2.438  50.345  1.00  0.00     0.002 C 
BRANCH  19  20
HETATM   20  C3  UNL     1      23.438   3.346  49.197  1.00  0.00    -0.004 C 
HETATM   21  C2  UNL     1      22.875   3.089  48.051  1.00  0.00    -0.031 C 
HETATM   22  C1  UNL     1      22.030   1.868  47.978  1.00  0.00     0.036 C 
ENDBRANCH  19  20
ENDBRANCH   1  18
TORSDOF 4
ENDMDL
MODEL 5
REMARK VINA RESULT:      -8.0      2.171      3.108
REMARK  4 active torsions:
REMARK  status: ('A' for Active; 'I' for Inactive)
REMARK    1  A    between atoms: C3_3  and  C4_4 
REMARK    2  A    between atoms: C5_5  and  C6_6 
REMARK    3  A    between atoms: N3_14  and  C12_15 
REMARK    4  A    between atoms: C12_15  and  C14_17 
ROOT
HETATM    1  C6  UNL     1      23.236   2.810  51.474  1.00  0.00     0.037 A 
HETATM    2  C7  UNL     1      22.095   3.548  51.413  1.00  0.00     0.046 A 
HETATM    3  C8  UNL     1      22.503   4.850  51.219  1.00  0.00     0.030 A 
HETATM    4  C9  UNL     1      21.815   6.037  51.081  1.00  0.00     0.133 A 
HETATM    5  N1  UNL     1      22.500   7.193  50.897  1.00  0.00    -0.253 NA
HETATM    6  C10 UNL     1      23.856   7.128  50.858  1.00  0.00     0.234 A 
HETATM    7  N2  UNL     1      24.515   5.969  50.994  1.00  0.00    -0.223 NA
HETATM    8  C11 UNL     1      23.860   4.787  51.180  1.00  0.00     0.144 A 
HETATM    9  N3  UNL     1      24.357   3.520  51.337  1.00  0.00    -0.322 N 
ENDROOT
BRANCH   9  10
HETATM   10  C12 UNL     1      25.744   3.152  51.338  1.00  0.00     0.120 C 
HETATM   11  C13 UNL     1      26.311   2.879  49.966  1.00  0.00     0.038 C 
BRANCH  10  12
HETATM   12  C14 UNL     1      26.114   2.086  52.271  1.00  0.00    -0.035 A 
HETATM   13  C15 UNL     1      26.137   2.068  53.650  1.00  0.00     0.009 A 
HETATM   14  C16 UNL     1      26.521   0.978  54.396  1.00  0.00     0.001 A 
HETATM   15  C17 UNL     1      26.913  -0.188  53.782  1.00  0.00     0.000 A 
HETATM   16  C18 UNL     1      26.917  -0.250  52.408  1.00  0.00     0.001 A 
HETATM   17  C19 UNL     1      26.524   0.871  51.714  1.00  0.00     0.009 A 
ENDBRANCH  10  12
ENDBRANCH   9  10
BRANCH   1  18
HETATM   18  C5  UNL     1      23.186   1.374  51.674  1.00  0.00     0.029 C 
HETATM   19  C4  UNL     1      22.905   0.794  52.829  1.00  0.00     0.002 C 
BRANCH  19  20
HETATM   20  C3  UNL     1      22.832  -0.656  53.116  1.00  0.00    -0.004 C 
HETATM   21  C2  UNL     1      22.007  -1.097  54.022  1.00  0.00    -0.031 C 
HETATM   22  C1  UNL     1      21.172  -0.084  54.720  1.00  0.00     0.036 C 
ENDBRANCH  19  20
ENDBRANCH   1  18
TORSDOF 4
ENDMDL
MODEL 6
REMARK VINA RESULT:      -8.0      2.375      6.614
REMARK  4 active torsions:
REMARK  status: ('A' for Active; 'I' for Inactive)
REMARK    1  A    between atoms: C3_3  and  C4_4 
REMARK    2  A    between atoms: C5_5  and  C6_6 
REMARK    3  A    between atoms: N3_14  and  C12_15 
REMARK    4  A    between atoms: C12_15  and  C14_17 
ROOT
HETATM    1  C6  UNL     1      24.396   0.745  53.122  1.00  0.00     0.037 A 
HETATM    2  C7  UNL     1      24.296  -0.381  53.878  1.00  0.00     0.046 A 
HETATM    3  C8  UNL     1      22.945  -0.627  54.002  1.00  0.00     0.030 A 
HETATM    4  C9  UNL     1      22.227  -1.613  54.646  1.00  0.00     0.133 A 
HETATM    5  N1  UNL     1      20.872  -1.601  54.594  1.00  0.00    -0.253 NA
HETATM    6  C10 UNL     1      20.273  -0.598  53.900  1.00  0.00     0.234 A 
HETATM    7  N2  UNL     1      20.980   0.355  53.278  1.00  0.00    -0.223 NA
HETATM    8  C11 UNL     1      22.344   0.375  53.308  1.00  0.00     0.144 A 
HETATM    9  N3  UNL     1      23.225   1.257  52.740  1.00  0.00    -0.322 N 
ENDROOT
BRANCH   9  10
HETATM   10  C12 UNL     1      22.880   2.406  51.954  1.00  0.00     0.120 C 
HETATM   11  C13 UNL     1      21.807   3.273  52.566  1.00  0.00     0.038 C 
BRANCH  10  12
HETATM   12  C14 UNL     1      22.588   2.142  50.543  1.00  0.00    -0.035 A 
HETATM   13  C15 UNL     1      21.764   1.205  49.957  1.00  0.00     0.009 A 
HETATM   14  C16 UNL     1      21.597   1.075  48.597  1.00  0.00     0.001 A 
HETATM   15  C17 UNL     1      22.267   1.901  47.727  1.00  0.00     0.000 A 
HETATM   16  C18 UNL     1      23.109   2.862  48.235  1.00  0.00     0.001 A 
HETATM   17  C19 UNL     1      23.237   2.947  49.601  1.00  0.00     0.009 A 
ENDBRANCH  10  12
ENDBRANCH   9  10
BRANCH   1  18
HETATM   18  C5  UNL     1      25.692   1.303  52.785  1.00  0.00     0.029 C 
HETATM   19  C4  UNL     1      26.576   1.721  53.676  1.00  0.00     0.002 C 
BRANCH  19  20
HETATM   20  C3  UNL     1      27.913   2.299  53.419  1.00  0.00    -0.004 C 
HETATM   21  C2  UNL     1      28.974   1.725  53.911  1.00  0.00    -0.031 C 
HETATM   22  C1  UNL     1      28.758   0.494  54.716  1.00  0.00     0.036 C 
ENDBRANCH  19  20
ENDBRANCH   1  18
TORSDOF 4
ENDMDL
MODEL 7
REMARK VINA RESULT:      -8.0      1.827      5.155
REMARK  4 active torsions:
REMARK  status: ('A' for Active; 'I' for Inactive)
REMARK    1  A    between atoms: C3_3  and  C4_4 
REMARK    2  A    between atoms: C5_5  and  C6_6 
REMARK    3  A    between atoms: N3_14  and  C12_15 
REMARK    4  A    between atoms: C12_15  and  C14_17 
ROOT
HETATM    1  C6  UNL     1      24.104   1.356  51.790  1.00  0.00     0.037 A 
HETATM    2  C7  UNL     1      22.850   1.471  52.303  1.00  0.00     0.046 A 
HETATM    3  C8  UNL     1      22.781   0.553  53.330  1.00  0.00     0.030 A 
HETATM    4  C9  UNL     1      21.780   0.207  54.212  1.00  0.00     0.133 A 
HETATM    5  N1  UNL     1      22.005  -0.756  55.140  1.00  0.00    -0.253 NA
HETATM    6  C10 UNL     1      23.228  -1.347  55.157  1.00  0.00     0.234 A 
HETATM    7  N2  UNL     1      24.194  -1.003  54.294  1.00  0.00    -0.223 NA
HETATM    8  C11 UNL     1      24.005  -0.039  53.349  1.00  0.00     0.144 A 
HETATM    9  N3  UNL     1      24.863   0.440  52.395  1.00  0.00    -0.322 N 
ENDROOT
BRANCH   9  10
HETATM   10  C12 UNL     1      26.213   0.006  52.179  1.00  0.00     0.120 C 
HETATM   11  C13 UNL     1      26.405  -1.488  52.286  1.00  0.00     0.038 C 
BRANCH  10  12
HETATM   12  C14 UNL     1      27.236   0.715  52.950  1.00  0.00    -0.035 A 
HETATM   13  C15 UNL     1      27.698   2.010  52.849  1.00  0.00     0.009 A 
HETATM   14  C16 UNL     1      28.684   2.537  53.651  1.00  0.00     0.001 A 
HETATM   15  C17 UNL     1      29.276   1.771  54.627  1.00  0.00     0.000 A 
HETATM   16  C18 UNL     1      28.870   0.467  54.790  1.00  0.00     0.001 A 
HETATM   17  C19 UNL     1      27.881  -0.006  53.959  1.00  0.00     0.009 A 
ENDBRANCH  10  12
ENDBRANCH   9  10
BRANCH   1  18
HETATM   18  C5  UNL     1      24.533   2.183  50.678  1.00  0.00     0.029 C 
HETATM   19  C4  UNL     1      25.214   3.310  50.809  1.00  0.00     0.002 C 
BRANCH  19  20
HETATM   20  C3  UNL     1      25.688   4.208  49.734  1.00  0.00    -0.004 C 
HETATM   21  C2  UNL     1      25.289   5.448  49.699  1.00  0.00    -0.031 C 
HETATM   22  C1  UNL     1      24.361   5.883  50.776  1.00  0.00     0.036 C 
ENDBRANCH  19  20
ENDBRANCH   1  18
TORSDOF 4
ENDMDL
MODEL 8
REMARK VINA RESULT:      -7.8      2.950      6.239
REMARK  4 active torsions:
REMARK  status: ('A' for Active; 'I' for Inactive)
REMARK    1  A    between atoms: C3_3  and  C4_4 
REMARK    2  A    between atoms: C5_5  and  C6_6 
REMARK    3  A    between atoms: N3_14  and  C12_15 
REMARK    4  A    between atoms: C12_15  and  C14_17 
ROOT
HETATM    1  C6  UNL     1      26.313   4.143  49.484  1.00  0.00     0.037 A 
HETATM    2  C7  UNL     1      27.389   4.723  48.886  1.00  0.00     0.046 A 
HETATM    3  C8  UNL     1      26.964   5.972  48.485  1.00  0.00     0.030 A 
HETATM    4  C9  UNL     1      27.595   7.010  47.833  1.00  0.00     0.133 A 
HETATM    5  N1  UNL     1      26.909   8.149  47.563  1.00  0.00    -0.253 NA
HETATM    6  C10 UNL     1      25.610   8.215  47.955  1.00  0.00     0.234 A 
HETATM    7  N2  UNL     1      25.007   7.199  48.588  1.00  0.00    -0.223 NA
HETATM    8  C11 UNL     1      25.665   6.040  48.876  1.00  0.00     0.144 A 
HETATM    9  N3  UNL     1      25.220   4.908  49.508  1.00  0.00    -0.322 N 
ENDROOT
BRANCH   9  10
HETATM   10  C12 UNL     1      23.900   4.695  50.027  1.00  0.00     0.120 C 
HETATM   11  C13 UNL     1      23.816   4.733  51.534  1.00  0.00     0.038 C 
BRANCH  10  12
HETATM   12  C14 UNL     1      23.194   3.526  49.499  1.00  0.00    -0.035 A 
HETATM   13  C15 UNL     1      22.878   3.178  48.203  1.00  0.00     0.009 A 
HETATM   14  C16 UNL     1      22.195   2.033  47.862  1.00  0.00     0.001 A 
HETATM   15  C17 UNL     1      21.781   1.150  48.830  1.00  0.00     0.000 A 
HETATM   16  C18 UNL     1      22.058   1.427  50.149  1.00  0.00     0.001 A 
HETATM   17  C19 UNL     1      22.743   2.585  50.431  1.00  0.00     0.009 A 
ENDBRANCH  10  12
ENDBRANCH   9  10
BRANCH   1  18
HETATM   18  C5  UNL     1      26.398   2.804  50.035  1.00  0.00     0.029 C 
HETATM   19  C4  UNL     1      26.643   2.537  51.307  1.00  0.00     0.002 C 
BRANCH  19  20
HETATM   20  C3  UNL     1      26.744   1.208  51.947  1.00  0.00    -0.004 C 
HETATM   21  C2  UNL     1      27.541   1.035  52.964  1.00  0.00    -0.031 C 
HETATM   22  C1  UNL     1      28.311   2.222  53.421  1.00  0.00     0.036 C 
ENDBRANCH  19  20
ENDBRANCH   1  18
TORSDOF 4
ENDMDL
MODEL 9
REMARK VINA RESULT:      -7.8      2.460      5.566
REMARK  4 active torsions:
REMARK  status: ('A' for Active; 'I' for Inactive)
REMARK    1  A    between atoms: C3_3  and  C4_4 
REMARK    2  A    between atoms: C5_5  and  C6_6 
REMARK    3  A    between atoms: N3_14  and  C12_15 
REMARK    4  A    between atoms: C12_15  and  C14_17 
ROOT
HETATM    1  C6  UNL     1      23.239   1.112  52.230  1.00  0.00     0.037 A 
HETATM    2  C7  UNL     1      23.505  -0.122  52.736  1.00  0.00     0.046 A 
HETATM    3  C8  UNL     1      24.627   0.030  53.522  1.00  0.00     0.030 A 
HETATM    4  C9  UNL     1      25.363  -0.851  54.285  1.00  0.00     0.133 A 
HETATM    5  N1  UNL     1      26.446  -0.405  54.969  1.00  0.00    -0.253 NA
HETATM    6  C10 UNL     1      26.762   0.913  54.868  1.00  0.00     0.234 A 
HETATM    7  N2  UNL     1      26.039   1.760  54.123  1.00  0.00    -0.223 NA
HETATM    8  C11 UNL     1      24.944   1.348  53.423  1.00  0.00     0.144 A 
HETATM    9  N3  UNL     1      24.094   2.060  52.618  1.00  0.00    -0.322 N 
ENDROOT
BRANCH   9  10
HETATM   10  C12 UNL     1      24.181   3.462  52.329  1.00  0.00     0.120 C 
HETATM   11  C13 UNL     1      22.847   4.167  52.282  1.00  0.00     0.038 C 
BRANCH  10  12
HETATM   12  C14 UNL     1      24.995   3.819  51.165  1.00  0.00    -0.035 A 
HETATM   13  C15 UNL     1      26.001   3.124  50.528  1.00  0.00     0.009 A 
HETATM   14  C16 UNL     1      26.687   3.601  49.435  1.00  0.00     0.001 A 
HETATM   15  C17 UNL     1      26.393   4.835  48.906  1.00  0.00     0.000 A 
HETATM   16  C18 UNL     1      25.401   5.590  49.487  1.00  0.00     0.001 A 
HETATM   17  C19 UNL     1      24.749   5.063  50.578  1.00  0.00     0.009 A 
ENDBRANCH  10  12
ENDBRANCH   9  10
BRANCH   1  18
HETATM   18  C5  UNL     1      22.110   1.328  51.346  1.00  0.00     0.029 C 
HETATM   19  C4  UNL     1      22.184   1.306  50.025  1.00  0.00     0.002 C 
BRANCH  19  20
HETATM   20  C3  UNL     1      21.087   1.514  49.055  1.00  0.00    -0.004 C 
HETATM   21  C2  UNL     1      21.220   2.394  48.103  1.00  0.00    -0.031 C 
HETATM   22  C1  UNL     1      22.504   3.144  48.057  1.00  0.00     0.036 C 
ENDBRANCH  19  20
ENDBRANCH   1  18
TORSDOF 4
ENDMDL
