MODEL 1
REMARK VINA RESULT:      -7.3      0.000      0.000
REMARK  11 active torsions:
REMARK  status: ('A' for Active; 'I' for Inactive)
REMARK    1  A    between atoms: C2_2  and  C3_3 
REMARK    2  A    between atoms: C8_8  and  C9_9 
REMARK    3  A    between atoms: C9_9  and  O1_10 
REMARK    4  A    between atoms: O1_10  and  C10_11 
REMARK    5  A    between atoms: C10_11  and  C11_12 
REMARK    6  A    between atoms: C11_12  and  C12_14 
REMARK    7  A    between atoms: C12_14  and  N1_15 
REMARK    8  A    between atoms: N1_15  and  C13_16 
REMARK    9  A    between atoms: C14_18  and  C15_19 
REMARK   10  A    between atoms: C15_19  and  C16_20 
REMARK   11  A    between atoms: C24_28  and  C25_29 
REMARK       I    between atoms: C25_29  and  N2_30 
ROOT
HETATM    1  C13 UNL     1      22.661   5.387  51.146  1.00  0.00     0.087 A 
HETATM    2  S1  UNL     1      23.237   4.666  52.706  1.00  0.00    -0.075 SA
HETATM    3  C14 UNL     1      23.120   2.905  52.133  1.00  0.00    -0.004 A 
HETATM    4  C22 UNL     1      22.657   3.040  50.817  1.00  0.00    -0.030 A 
HETATM    5  C23 UNL     1      22.451   1.798  50.032  1.00  0.00     0.050 C 
HETATM    6  C24 UNL     1      22.427   4.278  50.320  1.00  0.00     0.072 A 
ENDROOT
BRANCH   1   7
HETATM    7  N1  UNL     1      22.560   6.780  51.040  1.00  0.00    -0.376 N 
HETATM    8  H14 UNL     1      23.422   7.251  51.402  1.00  0.00     0.160 HD
BRANCH   7   9
HETATM    9  C12 UNL     1      21.482   7.577  50.527  1.00  0.00     0.201 C 
BRANCH   9  10
HETATM   10  C11 UNL     1      21.959   8.316  49.338  1.00  0.00     0.168 C 
HETATM   11  O2  UNL     1      21.282   8.739  48.393  1.00  0.00    -0.294 OA
BRANCH  10  12
HETATM   12  C10 UNL     1      23.379   8.669  49.101  1.00  0.00     0.254 C 
BRANCH  12  13
HETATM   13  O1  UNL     1      23.971   7.481  48.550  1.00  0.00    -0.355 OA
BRANCH  13  14
HETATM   14  C9  UNL     1      25.269   7.126  48.726  1.00  0.00     0.147 C 
BRANCH  14  15
HETATM   15  C8  UNL     1      26.464   6.648  48.493  1.00  0.00    -0.004 A 
HETATM   16  C3  UNL     1      26.758   5.364  48.880  1.00  0.00    -0.028 A 
HETATM   17  C4  UNL     1      28.044   4.872  48.628  1.00  0.00     0.012 A 
HETATM   18  C5  UNL     1      28.904   5.761  47.994  1.00  0.00     0.001 A 
HETATM   19  C6  UNL     1      28.612   7.050  47.604  1.00  0.00     0.001 A 
HETATM   20  C7  UNL     1      27.345   7.500  47.866  1.00  0.00     0.014 A 
BRANCH  16  21
HETATM   21  C2  UNL     1      25.914   4.546  49.477  1.00  0.00    -0.019 C 
HETATM   22  C1  UNL     1      26.366   3.156  49.763  1.00  0.00     0.037 C 
ENDBRANCH  16  21
ENDBRANCH  14  15
ENDBRANCH  13  14
ENDBRANCH  12  13
ENDBRANCH  10  12
ENDBRANCH   9  10
ENDBRANCH   7   9
ENDBRANCH   1   7
BRANCH   6  23
HETATM   23  C25 UNL     1      21.950   4.613  48.997  1.00  0.00     0.252 C 
HETATM   24  N2  UNL     1      22.636   4.938  47.824  1.00  0.00    -0.366 N 
HETATM   25  H25 UNL     1      22.956   4.534  46.928  1.00  0.00     0.159 HD
HETATM   26  H26 UNL     1      23.122   5.679  47.315  1.00  0.00     0.159 HD
HETATM   27  O3  UNL     1      20.728   4.650  48.738  1.00  0.00    -0.268 OA
ENDBRANCH   6  23
BRANCH   3  28
HETATM   28  C15 UNL     1      23.454   1.788  52.970  1.00  0.00     0.085 C 
BRANCH  28  29
HETATM   29  C16 UNL     1      24.909   1.548  52.937  1.00  0.00    -0.053 A 
HETATM   30  C17 UNL     1      25.873   2.287  53.575  1.00  0.00     0.007 A 
HETATM   31  C18 UNL     1      27.227   2.034  53.518  1.00  0.00     0.001 A 
HETATM   32  C19 UNL     1      27.677   0.964  52.772  1.00  0.00     0.000 A 
HETATM   33  C20 UNL     1      26.756   0.161  52.094  1.00  0.00     0.001 A 
HETATM   34  C21 UNL     1      25.422   0.496  52.212  1.00  0.00     0.007 A 
ENDBRANCH  28  29
ENDBRANCH   3  28
TORSDOF 11
ENDMDL
MODEL 2
REMARK VINA RESULT:      -7.3      2.326      5.404
REMARK  11 active torsions:
REMARK  status: ('A' for Active; 'I' for Inactive)
REMARK    1  A    between atoms: C2_2  and  C3_3 
REMARK    2  A    between atoms: C8_8  and  C9_9 
REMARK    3  A    between atoms: C9_9  and  O1_10 
REMARK    4  A    between atoms: O1_10  and  C10_11 
REMARK    5  A    between atoms: C10_11  and  C11_12 
REMARK    6  A    between atoms: C11_12  and  C12_14 
REMARK    7  A    between atoms: C12_14  and  N1_15 
REMARK    8  A    between atoms: N1_15  and  C13_16 
REMARK    9  A    between atoms: C14_18  and  C15_19 
REMARK   10  A    between atoms: C15_19  and  C16_20 
REMARK   11  A    between atoms: C24_28  and  C25_29 
REMARK       I    between atoms: C25_29  and  N2_30 
ROOT
HETATM    1  C13 UNL     1      22.914   4.392  49.748  1.00  0.00     0.087 A 
HETATM    2  S1  UNL     1      22.926   2.584  49.629  1.00  0.00    -0.075 SA
HETATM    3  C14 UNL     1      21.258   2.350  50.407  1.00  0.00    -0.004 A 
HETATM    4  C22 UNL     1      20.858   3.666  50.677  1.00  0.00    -0.030 A 
HETATM    5  C23 UNL     1      19.531   3.863  51.311  1.00  0.00     0.050 C 
HETATM    6  C24 UNL     1      21.682   4.689  50.349  1.00  0.00     0.072 A 
ENDROOT
BRANCH   1   7
HETATM    7  N1  UNL     1      24.017   5.110  49.268  1.00  0.00    -0.376 N 
HETATM    8  H14 UNL     1      23.876   5.397  48.270  1.00  0.00     0.160 HD
BRANCH   7   9
HETATM    9  C12 UNL     1      25.231   5.471  49.943  1.00  0.00     0.201 C 
BRANCH   9  10
HETATM   10  C11 UNL     1      26.372   4.855  49.233  1.00  0.00     0.168 C 
HETATM   11  O2  UNL     1      27.188   5.416  48.491  1.00  0.00    -0.294 OA
BRANCH  10  12
HETATM   12  C10 UNL     1      26.715   3.415  49.313  1.00  0.00     0.254 C 
BRANCH  12  13
HETATM   13  O1  UNL     1      26.880   3.149  50.715  1.00  0.00    -0.355 OA
BRANCH  13  14
HETATM   14  C9  UNL     1      26.671   1.937  51.290  1.00  0.00     0.147 C 
BRANCH  14  15
HETATM   15  C8  UNL     1      26.405   1.021  52.185  1.00  0.00    -0.004 A 
HETATM   16  C3  UNL     1      25.708   1.372  53.315  1.00  0.00    -0.028 A 
HETATM   17  C4  UNL     1      25.437   0.380  54.264  1.00  0.00     0.012 A 
HETATM   18  C5  UNL     1      25.915  -0.887  53.949  1.00  0.00     0.001 A 
HETATM   19  C6  UNL     1      26.614  -1.242  52.816  1.00  0.00     0.001 A 
HETATM   20  C7  UNL     1      26.862  -0.248  51.907  1.00  0.00     0.014 A 
BRANCH  16  21
HETATM   21  C2  UNL     1      25.266   2.586  53.579  1.00  0.00    -0.019 C 
HETATM   22  C1  UNL     1      23.896   2.948  53.121  1.00  0.00     0.037 C 
ENDBRANCH  16  21
ENDBRANCH  14  15
ENDBRANCH  13  14
ENDBRANCH  12  13
ENDBRANCH  10  12
ENDBRANCH   9  10
ENDBRANCH   7   9
ENDBRANCH   1   7
BRANCH   6  23
HETATM   23  C25 UNL     1      21.444   6.100  50.551  1.00  0.00     0.252 C 
HETATM   24  N2  UNL     1      21.922   6.988  51.519  1.00  0.00    -0.366 N 
HETATM   25  H25 UNL     1      22.632   7.722  51.671  1.00  0.00     0.159 HD
HETATM   26  H26 UNL     1      21.810   7.321  52.479  1.00  0.00     0.159 HD
HETATM   27  O3  UNL     1      20.696   6.747  49.787  1.00  0.00    -0.268 OA
ENDBRANCH   6  23
BRANCH   3  28
HETATM   28  C15 UNL     1      20.668   1.059  50.616  1.00  0.00     0.085 C 
BRANCH  28  29
HETATM   29  C16 UNL     1      21.025   0.550  51.954  1.00  0.00    -0.053 A 
HETATM   30  C17 UNL     1      20.456   0.917  53.147  1.00  0.00     0.007 A 
HETATM   31  C18 UNL     1      20.820   0.421  54.380  1.00  0.00     0.001 A 
HETATM   32  C19 UNL     1      21.830  -0.517  54.453  1.00  0.00     0.000 A 
HETATM   33  C20 UNL     1      22.459  -0.944  53.281  1.00  0.00     0.001 A 
HETATM   34  C21 UNL     1      22.023  -0.388  52.095  1.00  0.00     0.007 A 
ENDBRANCH  28  29
ENDBRANCH   3  28
TORSDOF 11
ENDMDL
MODEL 3
REMARK VINA RESULT:      -7.0      2.709      6.373
REMARK  11 active torsions:
REMARK  status: ('A' for Active; 'I' for Inactive)
REMARK    1  A    between atoms: C2_2  and  C3_3 
REMARK    2  A    between atoms: C8_8  and  C9_9 
REMARK    3  A    between atoms: C9_9  and  O1_10 
REMARK    4  A    between atoms: O1_10  and  C10_11 
REMARK    5  A    between atoms: C10_11  and  C11_12 
REMARK    6  A    between atoms: C11_12  and  C12_14 
REMARK    7  A    between atoms: C12_14  and  N1_15 
REMARK    8  A    between atoms: N1_15  and  C13_16 
REMARK    9  A    between atoms: C14_18  and  C15_19 
REMARK   10  A    between atoms: C15_19  and  C16_20 
REMARK   11  A    between atoms: C24_28  and  C25_29 
REMARK       I    between atoms: C25_29  and  N2_30 
ROOT
HETATM    1  C13 UNL     1      23.764   4.315  51.836  1.00  0.00     0.087 A 
HETATM    2  S1  UNL     1      24.003   2.754  52.724  1.00  0.00    -0.075 SA
HETATM    3  C14 UNL     1      25.352   2.130  51.614  1.00  0.00    -0.004 A 
HETATM    4  C22 UNL     1      25.487   3.169  50.682  1.00  0.00    -0.030 A 
HETATM    5  C23 UNL     1      26.510   3.007  49.620  1.00  0.00     0.050 C 
HETATM    6  C24 UNL     1      24.696   4.262  50.789  1.00  0.00     0.072 A 
ENDROOT
BRANCH   1   7
HETATM    7  N1  UNL     1      22.794   5.216  52.296  1.00  0.00    -0.376 N 
HETATM    8  H14 UNL     1      22.964   5.476  53.296  1.00  0.00     0.160 HD
BRANCH   7   9
HETATM    9  C12 UNL     1      21.674   5.781  51.599  1.00  0.00     0.201 C 
BRANCH   9  10
HETATM   10  C11 UNL     1      20.996   4.709  50.838  1.00  0.00     0.168 C 
HETATM   11  O2  UNL     1      21.251   4.325  49.691  1.00  0.00    -0.294 OA
BRANCH  10  12
HETATM   12  C10 UNL     1      19.866   3.910  51.368  1.00  0.00     0.254 C 
BRANCH  12  13
HETATM   13  O1  UNL     1      20.388   3.252  52.533  1.00  0.00    -0.355 OA
BRANCH  13  14
HETATM   14  C9  UNL     1      20.196   1.938  52.816  1.00  0.00     0.147 C 
BRANCH  14  15
HETATM   15  C8  UNL     1      20.389   0.731  53.282  1.00  0.00    -0.004 A 
HETATM   16  C3  UNL     1      19.417  -0.221  53.095  1.00  0.00    -0.028 A 
HETATM   17  C4  UNL     1      19.639  -1.505  53.606  1.00  0.00     0.012 A 
HETATM   18  C5  UNL     1      20.851  -1.680  54.263  1.00  0.00     0.001 A 
HETATM   19  C6  UNL     1      21.828  -0.726  54.452  1.00  0.00     0.001 A 
HETATM   20  C7  UNL     1      21.579   0.520  53.940  1.00  0.00     0.014 A 
BRANCH  16  21
HETATM   21  C2  UNL     1      18.279  -0.020  52.461  1.00  0.00    -0.019 C 
HETATM   22  C1  UNL     1      18.262  -0.181  50.981  1.00  0.00     0.037 C 
ENDBRANCH  16  21
ENDBRANCH  14  15
ENDBRANCH  13  14
ENDBRANCH  12  13
ENDBRANCH  10  12
ENDBRANCH   9  10
ENDBRANCH   7   9
ENDBRANCH   1   7
BRANCH   6  23
HETATM   23  C25 UNL     1      24.689   5.422  49.927  1.00  0.00     0.252 C 
HETATM   24  N2  UNL     1      24.106   5.639  48.675  1.00  0.00    -0.366 N 
HETATM   25  H25 UNL     1      23.285   6.072  48.223  1.00  0.00     0.159 HD
HETATM   26  H26 UNL     1      24.201   5.487  47.669  1.00  0.00     0.159 HD
HETATM   27  O3  UNL     1      25.276   6.476  50.254  1.00  0.00    -0.268 OA
ENDBRANCH   6  23
BRANCH   3  28
HETATM   28  C15 UNL     1      25.992   0.860  51.802  1.00  0.00     0.085 C 
BRANCH  28  29
HETATM   29  C16 UNL     1      27.191   1.017  52.647  1.00  0.00    -0.053 A 
HETATM   30  C17 UNL     1      27.725   2.198  53.095  1.00  0.00     0.007 A 
HETATM   31  C18 UNL     1      28.851   2.305  53.882  1.00  0.00     0.001 A 
HETATM   32  C19 UNL     1      29.514   1.157  54.264  1.00  0.00     0.000 A 
HETATM   33  C20 UNL     1      29.031  -0.087  53.848  1.00  0.00     0.001 A 
HETATM   34  C21 UNL     1      27.896  -0.090  53.062  1.00  0.00     0.007 A 
ENDBRANCH  28  29
ENDBRANCH   3  28
TORSDOF 11
ENDMDL
MODEL 4
REMARK VINA RESULT:      -6.9      2.843      4.329
REMARK  11 active torsions:
REMARK  status: ('A' for Active; 'I' for Inactive)
REMARK    1  A    between atoms: C2_2  and  C3_3 
REMARK    2  A    between atoms: C8_8  and  C9_9 
REMARK    3  A    between atoms: C9_9  and  O1_10 
REMARK    4  A    between atoms: O1_10  and  C10_11 
REMARK    5  A    between atoms: C10_11  and  C11_12 
REMARK    6  A    between atoms: C11_12  and  C12_14 
REMARK    7  A    between atoms: C12_14  and  N1_15 
REMARK    8  A    between atoms: N1_15  and  C13_16 
REMARK    9  A    between atoms: C14_18  and  C15_19 
REMARK   10  A    between atoms: C15_19  and  C16_20 
REMARK   11  A    between atoms: C24_28  and  C25_29 
REMARK       I    between atoms: C25_29  and  N2_30 
ROOT
HETATM    1  C13 UNL     1      24.530   3.185  51.782  1.00  0.00     0.087 A 
HETATM    2  S1  UNL     1      25.789   2.072  52.461  1.00  0.00    -0.075 SA
HETATM    3  C14 UNL     1      24.582   0.808  53.083  1.00  0.00    -0.004 A 
HETATM    4  C22 UNL     1      23.345   1.355  52.712  1.00  0.00    -0.030 A 
HETATM    5  C23 UNL     1      22.124   0.585  53.056  1.00  0.00     0.050 C 
HETATM    6  C24 UNL     1      23.315   2.543  52.062  1.00  0.00     0.072 A 
ENDROOT
BRANCH   1   7
HETATM    7  N1  UNL     1      24.939   4.370  51.156  1.00  0.00    -0.376 N 
HETATM    8  H14 UNL     1      25.217   5.093  51.861  1.00  0.00     0.160 HD
BRANCH   7   9
HETATM    9  C12 UNL     1      25.014   4.681  49.757  1.00  0.00     0.201 C 
BRANCH   9  10
HETATM   10  C11 UNL     1      26.398   4.449  49.291  1.00  0.00     0.168 C 
HETATM   11  O2  UNL     1      27.057   3.406  49.380  1.00  0.00    -0.294 OA
BRANCH  10  12
HETATM   12  C10 UNL     1      27.228   5.479  48.622  1.00  0.00     0.254 C 
BRANCH  12  13
HETATM   13  O1  UNL     1      28.528   4.883  48.489  1.00  0.00    -0.355 OA
BRANCH  13  14
HETATM   14  C9  UNL     1      29.660   5.580  48.215  1.00  0.00     0.147 C 
BRANCH  14  15
HETATM   15  C8  UNL     1      30.880   6.043  48.303  1.00  0.00    -0.004 A 
HETATM   16  C3  UNL     1      31.912   5.319  47.758  1.00  0.00    -0.028 A 
HETATM   17  C4  UNL     1      33.211   5.828  47.867  1.00  0.00     0.012 A 
HETATM   18  C5  UNL     1      33.317   7.043  48.534  1.00  0.00     0.001 A 
HETATM   19  C6  UNL     1      32.283   7.772  49.082  1.00  0.00     0.001 A 
HETATM   20  C7  UNL     1      31.025   7.246  48.957  1.00  0.00     0.014 A 
BRANCH  16  21
HETATM   21  C2  UNL     1      31.774   4.169  47.128  1.00  0.00    -0.019 C 
HETATM   22  C1  UNL     1      32.734   3.076  47.444  1.00  0.00     0.037 C 
ENDBRANCH  16  21
ENDBRANCH  14  15
ENDBRANCH  13  14
ENDBRANCH  12  13
ENDBRANCH  10  12
ENDBRANCH   9  10
ENDBRANCH   7   9
ENDBRANCH   1   7
BRANCH   6  23
HETATM   23  C25 UNL     1      22.145   3.258  51.606  1.00  0.00     0.252 C 
HETATM   24  N2  UNL     1      21.098   3.859  52.310  1.00  0.00    -0.366 N 
HETATM   25  H25 UNL     1      20.762   4.777  52.643  1.00  0.00     0.159 HD
HETATM   26  H26 UNL     1      20.217   3.697  52.802  1.00  0.00     0.159 HD
HETATM   27  O3  UNL     1      21.925   3.431  50.388  1.00  0.00    -0.268 OA
ENDBRANCH   6  23
BRANCH   3  28
HETATM   28  C15 UNL     1      24.985  -0.387  53.769  1.00  0.00     0.085 C 
BRANCH  28  29
HETATM   29  C16 UNL     1      26.457  -0.467  53.822  1.00  0.00    -0.053 A 
HETATM   30  C17 UNL     1      27.266  -1.192  52.985  1.00  0.00     0.007 A 
HETATM   31  C18 UNL     1      28.641  -1.245  53.068  1.00  0.00     0.001 A 
HETATM   32  C19 UNL     1      29.281  -0.526  54.057  1.00  0.00     0.000 A 
HETATM   33  C20 UNL     1      28.525   0.239  54.950  1.00  0.00     0.001 A 
HETATM   34  C21 UNL     1      27.155   0.228  54.785  1.00  0.00     0.007 A 
ENDBRANCH  28  29
ENDBRANCH   3  28
TORSDOF 11
ENDMDL
MODEL 5
REMARK VINA RESULT:      -6.8      3.727      5.392
REMARK  11 active torsions:
REMARK  status: ('A' for Active; 'I' for Inactive)
REMARK    1  A    between atoms: C2_2  and  C3_3 
REMARK    2  A    between atoms: C8_8  and  C9_9 
REMARK    3  A    between atoms: C9_9  and  O1_10 
REMARK    4  A    between atoms: O1_10  and  C10_11 
REMARK    5  A    between atoms: C10_11  and  C11_12 
REMARK    6  A    between atoms: C11_12  and  C12_14 
REMARK    7  A    between atoms: C12_14  and  N1_15 
REMARK    8  A    between atoms: N1_15  and  C13_16 
REMARK    9  A    between atoms: C14_18  and  C15_19 
REMARK   10  A    between atoms: C15_19  and  C16_20 
REMARK   11  A    between atoms: C24_28  and  C25_29 
REMARK       I    between atoms: C25_29  and  N2_30 
ROOT
HETATM    1  C13 UNL     1      26.125   4.789  49.902  1.00  0.00     0.087 A 
HETATM    2  S1  UNL     1      26.390   3.009  50.113  1.00  0.00    -0.075 SA
HETATM    3  C14 UNL     1      24.873   2.730  51.142  1.00  0.00    -0.004 A 
HETATM    4  C22 UNL     1      24.315   4.015  51.222  1.00  0.00    -0.030 A 
HETATM    5  C23 UNL     1      23.053   4.168  51.987  1.00  0.00     0.050 C 
HETATM    6  C24 UNL     1      24.938   5.046  50.604  1.00  0.00     0.072 A 
ENDROOT
BRANCH   1   7
HETATM    7  N1  UNL     1      27.049   5.529  49.153  1.00  0.00    -0.376 N 
HETATM    8  H14 UNL     1      26.808   6.547  49.153  1.00  0.00     0.160 HD
BRANCH   7   9
HETATM    9  C12 UNL     1      28.208   5.077  48.435  1.00  0.00     0.201 C 
BRANCH   9  10
HETATM   10  C11 UNL     1      29.023   6.252  48.059  1.00  0.00     0.168 C 
HETATM   11  O2  UNL     1      28.698   7.187  47.318  1.00  0.00    -0.294 OA
BRANCH  10  12
HETATM   12  C10 UNL     1      30.407   6.483  48.537  1.00  0.00     0.254 C 
BRANCH  12  13
HETATM   13  O1  UNL     1      31.016   5.182  48.559  1.00  0.00    -0.355 OA
BRANCH  13  14
HETATM   14  C9  UNL     1      32.197   4.884  47.957  1.00  0.00     0.147 C 
BRANCH  14  15
HETATM   15  C8  UNL     1      33.076   4.591  47.034  1.00  0.00    -0.004 A 
HETATM   16  C3  UNL     1      33.561   3.308  46.956  1.00  0.00    -0.028 A 
HETATM   17  C4  UNL     1      34.505   3.014  45.965  1.00  0.00     0.012 A 
HETATM   18  C5  UNL     1      34.857   4.082  45.148  1.00  0.00     0.001 A 
HETATM   19  C6  UNL     1      34.372   5.370  45.224  1.00  0.00     0.001 A 
HETATM   20  C7  UNL     1      33.449   5.624  46.204  1.00  0.00     0.014 A 
BRANCH  16  21
HETATM   21  C2  UNL     1      33.200   2.318  47.748  1.00  0.00    -0.019 C 
HETATM   22  C1  UNL     1      32.481   1.162  47.143  1.00  0.00     0.037 C 
ENDBRANCH  16  21
ENDBRANCH  14  15
ENDBRANCH  13  14
ENDBRANCH  12  13
ENDBRANCH  10  12
ENDBRANCH   9  10
ENDBRANCH   7   9
ENDBRANCH   1   7
BRANCH   6  23
HETATM   23  C25 UNL     1      24.519   6.429  50.578  1.00  0.00     0.252 C 
HETATM   24  N2  UNL     1      24.294   7.345  51.609  1.00  0.00    -0.366 N 
HETATM   25  H25 UNL     1      24.735   8.137  52.105  1.00  0.00     0.159 HD
HETATM   26  H26 UNL     1      23.634   7.657  52.324  1.00  0.00     0.159 HD
HETATM   27  O3  UNL     1      24.285   7.015  49.499  1.00  0.00    -0.268 OA
ENDBRANCH   6  23
BRANCH   3  28
HETATM   28  C15 UNL     1      24.507   1.444  51.661  1.00  0.00     0.085 C 
BRANCH  28  29
HETATM   29  C16 UNL     1      25.619   0.881  52.451  1.00  0.00    -0.053 A 
HETATM   30  C17 UNL     1      26.423  -0.171  52.094  1.00  0.00     0.007 A 
HETATM   31  C18 UNL     1      27.452  -0.672  52.861  1.00  0.00     0.001 A 
HETATM   32  C19 UNL     1      27.719  -0.094  54.085  1.00  0.00     0.000 A 
HETATM   33  C20 UNL     1      26.944   0.985  54.520  1.00  0.00     0.001 A 
HETATM   34  C21 UNL     1      25.936   1.414  53.680  1.00  0.00     0.007 A 
ENDBRANCH  28  29
ENDBRANCH   3  28
TORSDOF 11
ENDMDL
MODEL 6
REMARK VINA RESULT:      -6.7      3.552      5.403
REMARK  11 active torsions:
REMARK  status: ('A' for Active; 'I' for Inactive)
REMARK    1  A    between atoms: C2_2  and  C3_3 
REMARK    2  A    between atoms: C8_8  and  C9_9 
REMARK    3  A    between atoms: C9_9  and  O1_10 
REMARK    4  A    between atoms: O1_10  and  C10_11 
REMARK    5  A    between atoms: C10_11  and  C11_12 
REMARK    6  A    between atoms: C11_12  and  C12_14 
REMARK    7  A    between atoms: C12_14  and  N1_15 
REMARK    8  A    between atoms: N1_15  and  C13_16 
REMARK    9  A    between atoms: C14_18  and  C15_19 
REMARK   10  A    between atoms: C15_19  and  C16_20 
REMARK   11  A    between atoms: C24_28  and  C25_29 
REMARK       I    between atoms: C25_29  and  N2_30 
ROOT
HETATM    1  C13 UNL     1      25.726   4.616  49.722  1.00  0.00     0.087 A 
HETATM    2  S1  UNL     1      26.333   2.912  49.825  1.00  0.00    -0.075 SA
HETATM    3  C14 UNL     1      25.342   2.467  51.330  1.00  0.00    -0.004 A 
HETATM    4  C22 UNL     1      24.649   3.655  51.603  1.00  0.00    -0.030 A 
HETATM    5  C23 UNL     1      23.731   3.660  52.768  1.00  0.00     0.050 C 
HETATM    6  C24 UNL     1      24.838   4.730  50.802  1.00  0.00     0.072 A 
ENDROOT
BRANCH   1   7
HETATM    7  N1  UNL     1      26.193   5.441  48.691  1.00  0.00    -0.376 N 
HETATM    8  H14 UNL     1      25.717   5.221  47.785  1.00  0.00     0.160 HD
BRANCH   7   9
HETATM    9  C12 UNL     1      27.182   6.480  48.736  1.00  0.00     0.201 C 
BRANCH   9  10
HETATM   10  C11 UNL     1      28.474   5.929  48.272  1.00  0.00     0.168 C 
HETATM   11  O2  UNL     1      28.811   4.740  48.224  1.00  0.00    -0.294 OA
BRANCH  10  12
HETATM   12  C10 UNL     1      29.597   6.761  47.778  1.00  0.00     0.254 C 
BRANCH  12  13
HETATM   13  O1  UNL     1      30.626   6.624  48.771  1.00  0.00    -0.355 OA
BRANCH  13  14
HETATM   14  C9  UNL     1      31.650   5.735  48.688  1.00  0.00     0.147 C 
BRANCH  14  15
HETATM   15  C8  UNL     1      32.691   5.086  48.237  1.00  0.00    -0.004 A 
HETATM   16  C3  UNL     1      33.920   5.699  48.252  1.00  0.00    -0.028 A 
HETATM   17  C4  UNL     1      35.022   4.990  47.760  1.00  0.00     0.012 A 
HETATM   18  C5  UNL     1      34.744   3.709  47.297  1.00  0.00     0.001 A 
HETATM   19  C6  UNL     1      33.512   3.092  47.281  1.00  0.00     0.001 A 
HETATM   20  C7  UNL     1      32.455   3.812  47.770  1.00  0.00     0.014 A 
BRANCH  16  21
HETATM   21  C2  UNL     1      34.148   6.917  48.703  1.00  0.00    -0.019 C 
HETATM   22  C1  UNL     1      35.405   7.596  48.285  1.00  0.00     0.037 C 
ENDBRANCH  16  21
ENDBRANCH  14  15
ENDBRANCH  13  14
ENDBRANCH  12  13
ENDBRANCH  10  12
ENDBRANCH   9  10
ENDBRANCH   7   9
ENDBRANCH   1   7
BRANCH   6  23
HETATM   23  C25 UNL     1      24.217   6.030  50.926  1.00  0.00     0.252 C 
HETATM   24  N2  UNL     1      24.355   7.029  51.893  1.00  0.00    -0.366 N 
HETATM   25  H25 UNL     1      24.829   7.929  52.073  1.00  0.00     0.159 HD
HETATM   26  H26 UNL     1      24.073   7.337  52.827  1.00  0.00     0.159 HD
HETATM   27  O3  UNL     1      23.396   6.440  50.078  1.00  0.00    -0.268 OA
ENDBRANCH   6  23
BRANCH   3  28
HETATM   28  C15 UNL     1      25.397   1.173  51.946  1.00  0.00     0.085 C 
BRANCH  28  29
HETATM   29  C16 UNL     1      26.707   0.975  52.594  1.00  0.00    -0.053 A 
HETATM   30  C17 UNL     1      27.352  -0.221  52.784  1.00  0.00     0.007 A 
HETATM   31  C18 UNL     1      28.577  -0.367  53.397  1.00  0.00     0.001 A 
HETATM   32  C19 UNL     1      29.230   0.755  53.867  1.00  0.00     0.000 A 
HETATM   33  C20 UNL     1      28.638   2.011  53.710  1.00  0.00     0.001 A 
HETATM   34  C21 UNL     1      27.409   2.054  53.082  1.00  0.00     0.007 A 
ENDBRANCH  28  29
ENDBRANCH   3  28
TORSDOF 11
ENDMDL
MODEL 7
REMARK VINA RESULT:      -6.7      2.643      3.729
REMARK  11 active torsions:
REMARK  status: ('A' for Active; 'I' for Inactive)
REMARK    1  A    between atoms: C2_2  and  C3_3 
REMARK    2  A    between atoms: C8_8  and  C9_9 
REMARK    3  A    between atoms: C9_9  and  O1_10 
REMARK    4  A    between atoms: O1_10  and  C10_11 
REMARK    5  A    between atoms: C10_11  and  C11_12 
REMARK    6  A    between atoms: C11_12  and  C12_14 
REMARK    7  A    between atoms: C12_14  and  N1_15 
REMARK    8  A    between atoms: N1_15  and  C13_16 
REMARK    9  A    between atoms: C14_18  and  C15_19 
REMARK   10  A    between atoms: C15_19  and  C16_20 
REMARK   11  A    between atoms: C24_28  and  C25_29 
REMARK       I    between atoms: C25_29  and  N2_30 
ROOT
HETATM    1  C13 UNL     1      23.901   3.130  52.467  1.00  0.00     0.087 A 
HETATM    2  S1  UNL     1      25.217   2.180  53.271  1.00  0.00    -0.075 SA
HETATM    3  C14 UNL     1      24.219   0.627  53.458  1.00  0.00    -0.004 A 
HETATM    4  C22 UNL     1      22.987   0.984  52.891  1.00  0.00    -0.030 A 
HETATM    5  C23 UNL     1      21.921  -0.047  52.863  1.00  0.00     0.050 C 
HETATM    6  C24 UNL     1      22.824   2.234  52.395  1.00  0.00     0.072 A 
ENDROOT
BRANCH   1   7
HETATM    7  N1  UNL     1      24.153   4.456  52.092  1.00  0.00    -0.376 N 
HETATM    8  H14 UNL     1      24.066   5.104  52.910  1.00  0.00     0.160 HD
BRANCH   7   9
HETATM    9  C12 UNL     1      24.494   4.987  50.802  1.00  0.00     0.201 C 
BRANCH   9  10
HETATM   10  C11 UNL     1      25.158   3.928  50.012  1.00  0.00     0.168 C 
HETATM   11  O2  UNL     1      24.660   3.232  49.119  1.00  0.00    -0.294 OA
BRANCH  10  12
HETATM   12  C10 UNL     1      26.576   3.535  50.185  1.00  0.00     0.254 C 
BRANCH  12  13
HETATM   13  O1  UNL     1      27.230   3.953  48.976  1.00  0.00    -0.355 OA
BRANCH  13  14
HETATM   14  C9  UNL     1      27.572   5.238  48.701  1.00  0.00     0.147 C 
BRANCH  14  15
HETATM   15  C8  UNL     1      27.990   6.296  48.056  1.00  0.00    -0.004 A 
HETATM   16  C3  UNL     1      29.321   6.400  47.731  1.00  0.00    -0.028 A 
HETATM   17  C4  UNL     1      29.750   7.542  47.046  1.00  0.00     0.012 A 
HETATM   18  C5  UNL     1      28.755   8.471  46.762  1.00  0.00     0.001 A 
HETATM   19  C6  UNL     1      27.420   8.370  47.087  1.00  0.00     0.001 A 
HETATM   20  C7  UNL     1      27.033   7.239  47.757  1.00  0.00     0.014 A 
BRANCH  16  21
HETATM   21  C2  UNL     1      30.236   5.495  48.013  1.00  0.00    -0.019 C 
HETATM   22  C1  UNL     1      31.523   5.959  48.602  1.00  0.00     0.037 C 
ENDBRANCH  16  21
ENDBRANCH  14  15
ENDBRANCH  13  14
ENDBRANCH  12  13
ENDBRANCH  10  12
ENDBRANCH   9  10
ENDBRANCH   7   9
ENDBRANCH   1   7
BRANCH   6  23
HETATM   23  C25 UNL     1      21.636   2.779  51.780  1.00  0.00     0.252 C 
HETATM   24  N2  UNL     1      20.401   3.147  52.322  1.00  0.00    -0.366 N 
HETATM   25  H25 UNL     1      19.862   3.970  52.635  1.00  0.00     0.159 HD
HETATM   26  H26 UNL     1      19.495   2.807  52.649  1.00  0.00     0.159 HD
HETATM   27  O3  UNL     1      21.587   3.005  50.551  1.00  0.00    -0.268 OA
ENDBRANCH   6  23
BRANCH   3  28
HETATM   28  C15 UNL     1      24.735  -0.564  54.070  1.00  0.00     0.085 C 
BRANCH  28  29
HETATM   29  C16 UNL     1      26.206  -0.589  53.968  1.00  0.00    -0.053 A 
HETATM   30  C17 UNL     1      26.947  -1.223  53.004  1.00  0.00     0.007 A 
HETATM   31  C18 UNL     1      28.324  -1.227  52.944  1.00  0.00     0.001 A 
HETATM   32  C19 UNL     1      29.039  -0.552  53.912  1.00  0.00     0.000 A 
HETATM   33  C20 UNL     1      28.356   0.120  54.929  1.00  0.00     0.001 A 
HETATM   34  C21 UNL     1      26.977   0.066  54.902  1.00  0.00     0.007 A 
ENDBRANCH  28  29
ENDBRANCH   3  28
TORSDOF 11
ENDMDL
MODEL 8
REMARK VINA RESULT:      -6.7      2.717      3.838
REMARK  11 active torsions:
REMARK  status: ('A' for Active; 'I' for Inactive)
REMARK    1  A    between atoms: C2_2  and  C3_3 
REMARK    2  A    between atoms: C8_8  and  C9_9 
REMARK    3  A    between atoms: C9_9  and  O1_10 
REMARK    4  A    between atoms: O1_10  and  C10_11 
REMARK    5  A    between atoms: C10_11  and  C11_12 
REMARK    6  A    between atoms: C11_12  and  C12_14 
REMARK    7  A    between atoms: C12_14  and  N1_15 
REMARK    8  A    between atoms: N1_15  and  C13_16 
REMARK    9  A    between atoms: C14_18  and  C15_19 
REMARK   10  A    between atoms: C15_19  and  C16_20 
REMARK   11  A    between atoms: C24_28  and  C25_29 
REMARK       I    between atoms: C25_29  and  N2_30 
ROOT
HETATM    1  C13 UNL     1      22.148   1.452  52.059  1.00  0.00     0.087 A 
HETATM    2  S1  UNL     1      23.754   1.386  52.897  1.00  0.00    -0.075 SA
HETATM    3  C14 UNL     1      23.394  -0.173  53.835  1.00  0.00    -0.004 A 
HETATM    4  C22 UNL     1      22.093  -0.489  53.418  1.00  0.00    -0.030 A 
HETATM    5  C23 UNL     1      21.473  -1.715  53.979  1.00  0.00     0.050 C 
HETATM    6  C24 UNL     1      21.468   0.320  52.531  1.00  0.00     0.072 A 
ENDROOT
BRANCH   1   7
HETATM    7  N1  UNL     1      21.887   2.507  51.175  1.00  0.00    -0.376 N 
HETATM    8  H14 UNL     1      22.066   2.222  50.183  1.00  0.00     0.160 HD
BRANCH   7   9
HETATM    9  C12 UNL     1      21.435   3.839  51.458  1.00  0.00     0.201 C 
BRANCH   9  10
HETATM   10  C11 UNL     1      22.310   4.799  50.750  1.00  0.00     0.168 C 
HETATM   11  O2  UNL     1      22.650   5.927  51.127  1.00  0.00    -0.294 OA
BRANCH  10  12
HETATM   12  C10 UNL     1      22.929   4.533  49.430  1.00  0.00     0.254 C 
BRANCH  12  13
HETATM   13  O1  UNL     1      24.206   3.945  49.729  1.00  0.00    -0.355 OA
BRANCH  13  14
HETATM   14  C9  UNL     1      25.395   4.573  49.543  1.00  0.00     0.147 C 
BRANCH  14  15
HETATM   15  C8  UNL     1      26.350   5.278  48.993  1.00  0.00    -0.004 A 
HETATM   16  C3  UNL     1      26.087   6.566  48.595  1.00  0.00    -0.028 A 
HETATM   17  C4  UNL     1      27.119   7.302  48.002  1.00  0.00     0.012 A 
HETATM   18  C5  UNL     1      28.330   6.631  47.880  1.00  0.00     0.001 A 
HETATM   19  C6  UNL     1      28.597   5.339  48.279  1.00  0.00     0.001 A 
HETATM   20  C7  UNL     1      27.565   4.646  48.855  1.00  0.00     0.014 A 
BRANCH  16  21
HETATM   21  C2  UNL     1      24.924   7.173  48.731  1.00  0.00    -0.019 C 
HETATM   22  C1  UNL     1      24.924   8.638  48.994  1.00  0.00     0.037 C 
ENDBRANCH  16  21
ENDBRANCH  14  15
ENDBRANCH  13  14
ENDBRANCH  12  13
ENDBRANCH  10  12
ENDBRANCH   9  10
ENDBRANCH   7   9
ENDBRANCH   1   7
BRANCH   6  23
HETATM   23  C25 UNL     1      20.136   0.159  51.992  1.00  0.00     0.252 C 
HETATM   24  N2  UNL     1      18.922  -0.153  52.609  1.00  0.00    -0.366 N 
HETATM   25  H25 UNL     1      18.053   0.280  52.961  1.00  0.00     0.159 HD
HETATM   26  H26 UNL     1      18.342  -0.905  52.986  1.00  0.00     0.159 HD
HETATM   27  O3  UNL     1      19.910   0.298  50.770  1.00  0.00    -0.268 OA
ENDBRANCH   6  23
BRANCH   3  28
HETATM   28  C15 UNL     1      24.332  -0.775  54.739  1.00  0.00     0.085 C 
BRANCH  28  29
HETATM   29  C16 UNL     1      25.706  -0.611  54.227  1.00  0.00    -0.053 A 
HETATM   30  C17 UNL     1      26.219  -1.158  53.078  1.00  0.00     0.007 A 
HETATM   31  C18 UNL     1      27.512  -0.984  52.632  1.00  0.00     0.001 A 
HETATM   32  C19 UNL     1      28.379  -0.209  53.375  1.00  0.00     0.000 A 
HETATM   33  C20 UNL     1      27.930   0.384  54.558  1.00  0.00     0.001 A 
HETATM   34  C21 UNL     1      26.618   0.151  54.920  1.00  0.00     0.007 A 
ENDBRANCH  28  29
ENDBRANCH   3  28
TORSDOF 11
ENDMDL
MODEL 9
REMARK VINA RESULT:      -6.6      1.938      3.142
REMARK  11 active torsions:
REMARK  status: ('A' for Active; 'I' for Inactive)
REMARK    1  A    between atoms: C2_2  and  C3_3 
REMARK    2  A    between atoms: C8_8  and  C9_9 
REMARK    3  A    between atoms: C9_9  and  O1_10 
REMARK    4  A    between atoms: O1_10  and  C10_11 
REMARK    5  A    between atoms: C10_11  and  C11_12 
REMARK    6  A    between atoms: C11_12  and  C12_14 
REMARK    7  A    between atoms: C12_14  and  N1_15 
REMARK    8  A    between atoms: N1_15  and  C13_16 
REMARK    9  A    between atoms: C14_18  and  C15_19 
REMARK   10  A    between atoms: C15_19  and  C16_20 
REMARK   11  A    between atoms: C24_28  and  C25_29 
REMARK       I    between atoms: C25_29  and  N2_30 
ROOT
HETATM    1  C13 UNL     1      23.800   3.013  52.308  1.00  0.00     0.087 A 
HETATM    2  S1  UNL     1      25.174   2.013  52.938  1.00  0.00    -0.075 SA
HETATM    3  C14 UNL     1      24.144   0.512  53.295  1.00  0.00    -0.004 A 
HETATM    4  C22 UNL     1      22.862   0.918  52.899  1.00  0.00    -0.030 A 
HETATM    5  C23 UNL     1      21.758  -0.063  53.043  1.00  0.00     0.050 C 
HETATM    6  C24 UNL     1      22.686   2.166  52.406  1.00  0.00     0.072 A 
ENDROOT
BRANCH   1   7
HETATM    7  N1  UNL     1      24.056   4.320  51.874  1.00  0.00    -0.376 N 
HETATM    8  H14 UNL     1      24.904   4.356  51.261  1.00  0.00     0.160 HD
BRANCH   7   9
HETATM    9  C12 UNL     1      23.335   5.529  52.156  1.00  0.00     0.201 C 
BRANCH   9  10
HETATM   10  C11 UNL     1      22.821   6.085  50.886  1.00  0.00     0.168 C 
HETATM   11  O2  UNL     1      22.183   5.491  50.008  1.00  0.00    -0.294 OA
BRANCH  10  12
HETATM   12  C10 UNL     1      23.007   7.495  50.467  1.00  0.00     0.254 C 
BRANCH  12  13
HETATM   13  O1  UNL     1      23.771   7.424  49.252  1.00  0.00    -0.355 OA
BRANCH  13  14
HETATM   14  C9  UNL     1      25.091   7.110  49.200  1.00  0.00     0.147 C 
BRANCH  14  15
HETATM   15  C8  UNL     1      26.205   6.491  48.905  1.00  0.00    -0.004 A 
HETATM   16  C3  UNL     1      27.228   7.197  48.320  1.00  0.00    -0.028 A 
HETATM   17  C4  UNL     1      28.410   6.517  48.006  1.00  0.00     0.012 A 
HETATM   18  C5  UNL     1      28.419   5.166  48.331  1.00  0.00     0.001 A 
HETATM   19  C6  UNL     1      27.395   4.455  48.918  1.00  0.00     0.001 A 
HETATM   20  C7  UNL     1      26.252   5.150  49.212  1.00  0.00     0.014 A 
BRANCH  16  21
HETATM   21  C2  UNL     1      27.184   8.483  48.029  1.00  0.00    -0.019 C 
HETATM   22  C1  UNL     1      28.318   9.067  47.260  1.00  0.00     0.037 C 
ENDBRANCH  16  21
ENDBRANCH  14  15
ENDBRANCH  13  14
ENDBRANCH  12  13
ENDBRANCH  10  12
ENDBRANCH   9  10
ENDBRANCH   7   9
ENDBRANCH   1   7
BRANCH   6  23
HETATM   23  C25 UNL     1      21.447   2.759  51.953  1.00  0.00     0.252 C 
HETATM   24  N2  UNL     1      20.886   2.861  50.677  1.00  0.00    -0.366 N 
HETATM   25  H25 UNL     1      20.180   2.428  50.061  1.00  0.00     0.159 HD
HETATM   26  H26 UNL     1      20.899   3.377  49.795  1.00  0.00     0.159 HD
HETATM   27  O3  UNL     1      20.659   3.305  52.754  1.00  0.00    -0.268 OA
ENDBRANCH   6  23
BRANCH   3  28
HETATM   28  C15 UNL     1      24.688  -0.694  53.852  1.00  0.00     0.085 C 
BRANCH  28  29
HETATM   29  C16 UNL     1      26.161  -0.627  53.864  1.00  0.00    -0.053 A 
HETATM   30  C17 UNL     1      27.014  -1.238  52.980  1.00  0.00     0.007 A 
HETATM   31  C18 UNL     1      28.389  -1.155  53.026  1.00  0.00     0.001 A 
HETATM   32  C19 UNL     1      28.982  -0.408  54.022  1.00  0.00     0.000 A 
HETATM   33  C20 UNL     1      28.181   0.247  54.961  1.00  0.00     0.001 A 
HETATM   34  C21 UNL     1      26.814   0.103  54.832  1.00  0.00     0.007 A 
ENDBRANCH  28  29
ENDBRANCH   3  28
TORSDOF 11
ENDMDL
