MODEL 1
REMARK VINA RESULT:      -7.5      0.000      0.000
REMARK  4 active torsions:
REMARK  status: ('A' for Active; 'I' for Inactive)
REMARK    1  A    between atoms: O1_2  and  C2_3 
REMARK    2  A    between atoms: C6_9  and  N3_10 
REMARK    3  A    between atoms: N3_10  and  C8_12 
REMARK    4  A    between atoms: C17_21  and  O2_22 
ROOT
HETATM    1  C2  UNL     1      21.480   1.417  49.548  1.00  0.00     0.115 A 
HETATM    2  C3  UNL     1      20.989   0.641  50.471  1.00  0.00     0.043 A 
HETATM    3  C4  UNL     1      21.627   0.472  51.571  1.00  0.00     0.061 A 
HETATM    4  N1  UNL     1      21.035  -0.397  52.559  1.00  0.00    -0.349 N 
HETATM    5  C5  UNL     1      21.751  -0.583  53.783  1.00  0.00     0.209 A 
HETATM    6  N2  UNL     1      22.886  -0.006  54.025  1.00  0.00    -0.225 NA
HETATM    7  C6  UNL     1      23.510   0.862  53.076  1.00  0.00     0.143 A 
HETATM    8  C15 UNL     1      22.907   1.084  51.917  1.00  0.00     0.041 A 
HETATM    9  C16 UNL     1      23.446   1.956  50.861  1.00  0.00     0.057 A 
HETATM   10  C17 UNL     1      22.752   2.102  49.738  1.00  0.00     0.103 A 
HETATM   11  H4  UNL     1      20.126  -0.903  52.452  1.00  0.00     0.166 HD
ENDROOT
BRANCH   7  12
HETATM   12  N3  UNL     1      24.754   1.520  53.292  1.00  0.00    -0.335 N 
HETATM   13  C7  UNL     1      24.906   2.967  53.494  1.00  0.00     0.158 C 
BRANCH  12  14
HETATM   14  C8  UNL     1      25.926   0.712  53.311  1.00  0.00     0.035 A 
HETATM   15  C9  UNL     1      27.043   1.038  54.076  1.00  0.00     0.030 A 
HETATM   16  C10 UNL     1      28.200   0.306  54.137  1.00  0.00     0.009 A 
HETATM   17  C11 UNL     1      28.242  -0.840  53.376  1.00  0.00    -0.062 A 
HETATM   18  C12 UNL     1      29.479  -1.669  53.412  1.00  0.00     0.048 C 
HETATM   19  C13 UNL     1      27.199  -1.230  52.603  1.00  0.00     0.009 A 
HETATM   20  C14 UNL     1      26.041  -0.449  52.574  1.00  0.00     0.030 A 
ENDBRANCH  12  14
ENDBRANCH   7  12
BRANCH  10  21
HETATM   21  O2  UNL     1      23.383   2.951  48.840  1.00  0.00    -0.353 OA
HETATM   22  C18 UNL     1      23.348   4.353  48.987  1.00  0.00     0.210 C 
ENDBRANCH  10  21
BRANCH   1  23
HETATM   23  O1  UNL     1      20.839   1.639  48.338  1.00  0.00    -0.352 OA
HETATM   24  C1  UNL     1      19.914   2.713  48.193  1.00  0.00     0.210 C 
ENDBRANCH   1  23
TORSDOF 4
ENDMDL
MODEL 2
REMARK VINA RESULT:      -7.3      2.565      6.189
REMARK  4 active torsions:
REMARK  status: ('A' for Active; 'I' for Inactive)
REMARK    1  A    between atoms: O1_2  and  C2_3 
REMARK    2  A    between atoms: C6_9  and  N3_10 
REMARK    3  A    between atoms: N3_10  and  C8_12 
REMARK    4  A    between atoms: C17_21  and  O2_22 
ROOT
HETATM    1  C2  UNL     1      26.727  -0.284  53.732  1.00  0.00     0.115 A 
HETATM    2  C3  UNL     1      25.573  -0.830  53.990  1.00  0.00     0.043 A 
HETATM    3  C4  UNL     1      24.491  -0.220  53.671  1.00  0.00     0.061 A 
HETATM    4  N1  UNL     1      23.241  -0.871  53.979  1.00  0.00    -0.349 N 
HETATM    5  C5  UNL     1      22.038  -0.186  53.621  1.00  0.00     0.209 A 
HETATM    6  N2  UNL     1      22.038   0.973  53.043  1.00  0.00    -0.225 NA
HETATM    7  C6  UNL     1      23.251   1.656  52.719  1.00  0.00     0.143 A 
HETATM    8  C15 UNL     1      24.408   1.084  53.019  1.00  0.00     0.041 A 
HETATM    9  C16 UNL     1      25.722   1.685  52.738  1.00  0.00     0.057 A 
HETATM   10  C17 UNL     1      26.816   1.018  53.085  1.00  0.00     0.103 A 
HETATM   11  H4  UNL     1      23.144  -1.804  54.443  1.00  0.00     0.166 HD
ENDROOT
BRANCH   7  12
HETATM   12  N3  UNL     1      23.306   2.930  52.084  1.00  0.00    -0.335 N 
HETATM   13  C7  UNL     1      23.693   4.178  52.756  1.00  0.00     0.158 C 
BRANCH  12  14
HETATM   14  C8  UNL     1      22.960   2.988  50.705  1.00  0.00     0.035 A 
HETATM   15  C9  UNL     1      23.123   4.144  49.945  1.00  0.00     0.030 A 
HETATM   16  C10 UNL     1      22.810   4.266  48.615  1.00  0.00     0.009 A 
HETATM   17  C11 UNL     1      22.296   3.148  48.001  1.00  0.00    -0.062 A 
HETATM   18  C12 UNL     1      21.941   3.233  46.556  1.00  0.00     0.048 C 
HETATM   19  C13 UNL     1      22.105   1.983  48.667  1.00  0.00     0.009 A 
HETATM   20  C14 UNL     1      22.440   1.908  50.021  1.00  0.00     0.030 A 
ENDBRANCH  12  14
ENDBRANCH   7  12
BRANCH  10  21
HETATM   21  O2  UNL     1      27.975   1.707  52.757  1.00  0.00    -0.353 OA
HETATM   22  C18 UNL     1      28.677   2.480  53.704  1.00  0.00     0.210 C 
ENDBRANCH  10  21
BRANCH   1  23
HETATM   23  O1  UNL     1      27.931  -0.894  54.053  1.00  0.00    -0.352 OA
HETATM   24  C1  UNL     1      28.639  -1.659  53.082  1.00  0.00     0.210 C 
ENDBRANCH   1  23
TORSDOF 4
ENDMDL
MODEL 3
REMARK VINA RESULT:      -7.1      2.552      5.822
REMARK  4 active torsions:
REMARK  status: ('A' for Active; 'I' for Inactive)
REMARK    1  A    between atoms: O1_2  and  C2_3 
REMARK    2  A    between atoms: C6_9  and  N3_10 
REMARK    3  A    between atoms: N3_10  and  C8_12 
REMARK    4  A    between atoms: C17_21  and  O2_22 
ROOT
HETATM    1  C2  UNL     1      25.893  -0.460  53.823  1.00  0.00     0.115 A 
HETATM    2  C3  UNL     1      24.851  -0.828  54.512  1.00  0.00     0.043 A 
HETATM    3  C4  UNL     1      23.674  -0.522  54.105  1.00  0.00     0.061 A 
HETATM    4  N1  UNL     1      22.556  -0.956  54.907  1.00  0.00    -0.349 N 
HETATM    5  C5  UNL     1      21.246  -0.611  54.448  1.00  0.00     0.209 A 
HETATM    6  N2  UNL     1      21.039   0.061  53.360  1.00  0.00    -0.225 NA
HETATM    7  C6  UNL     1      22.115   0.512  52.535  1.00  0.00     0.143 A 
HETATM    8  C15 UNL     1      23.360   0.232  52.894  1.00  0.00     0.041 A 
HETATM    9  C16 UNL     1      24.550   0.639  52.130  1.00  0.00     0.057 A 
HETATM   10  C17 UNL     1      25.749   0.301  52.588  1.00  0.00     0.103 A 
HETATM   11  H4  UNL     1      22.627  -1.502  55.796  1.00  0.00     0.166 HD
ENDROOT
BRANCH   7  12
HETATM   12  N3  UNL     1      21.942   1.254  51.331  1.00  0.00    -0.335 N 
HETATM   13  C7  UNL     1      21.329   0.720  50.107  1.00  0.00     0.158 C 
BRANCH  12  14
HETATM   14  C8  UNL     1      22.399   2.601  51.322  1.00  0.00     0.035 A 
HETATM   15  C9  UNL     1      23.173   3.118  50.287  1.00  0.00     0.030 A 
HETATM   16  C10 UNL     1      23.645   4.404  50.218  1.00  0.00     0.009 A 
HETATM   17  C11 UNL     1      23.316   5.235  51.264  1.00  0.00    -0.062 A 
HETATM   18  C12 UNL     1      23.805   6.641  51.233  1.00  0.00     0.048 C 
HETATM   19  C13 UNL     1      22.566   4.812  52.311  1.00  0.00     0.009 A 
HETATM   20  C14 UNL     1      22.109   3.492  52.336  1.00  0.00     0.030 A 
ENDBRANCH  12  14
ENDBRANCH   7  12
BRANCH  10  21
HETATM   21  O2  UNL     1      26.770   0.753  51.765  1.00  0.00    -0.353 OA
HETATM   22  C18 UNL     1      26.768   2.053  51.218  1.00  0.00     0.210 C 
ENDBRANCH  10  21
BRANCH   1  23
HETATM   23  O1  UNL     1      27.190  -0.759  54.211  1.00  0.00    -0.352 OA
HETATM   24  C1  UNL     1      28.009   0.228  54.831  1.00  0.00     0.210 C 
ENDBRANCH   1  23
TORSDOF 4
ENDMDL
MODEL 4
REMARK VINA RESULT:      -7.1      1.653      2.369
REMARK  4 active torsions:
REMARK  status: ('A' for Active; 'I' for Inactive)
REMARK    1  A    between atoms: O1_2  and  C2_3 
REMARK    2  A    between atoms: C6_9  and  N3_10 
REMARK    3  A    between atoms: N3_10  and  C8_12 
REMARK    4  A    between atoms: C17_21  and  O2_22 
ROOT
HETATM    1  C2  UNL     1      19.639   0.105  51.830  1.00  0.00     0.115 A 
HETATM    2  C3  UNL     1      19.868  -0.531  52.943  1.00  0.00     0.043 A 
HETATM    3  C4  UNL     1      21.053  -0.557  53.432  1.00  0.00     0.061 A 
HETATM    4  N1  UNL     1      21.249  -1.276  54.668  1.00  0.00    -0.349 N 
HETATM    5  C5  UNL     1      22.573  -1.302  55.209  1.00  0.00     0.209 A 
HETATM    6  N2  UNL     1      23.575  -0.713  54.637  1.00  0.00    -0.225 NA
HETATM    7  C6  UNL     1      23.428   0.009  53.413  1.00  0.00     0.143 A 
HETATM    8  C15 UNL     1      22.231   0.079  52.849  1.00  0.00     0.041 A 
HETATM    9  C16 UNL     1      21.952   0.791  51.591  1.00  0.00     0.057 A 
HETATM   10  C17 UNL     1      20.710   0.792  51.121  1.00  0.00     0.103 A 
HETATM   11  H4  UNL     1      20.502  -1.779  55.200  1.00  0.00     0.166 HD
ENDROOT
BRANCH   7  12
HETATM   12  N3  UNL     1      24.496   0.673  52.744  1.00  0.00    -0.335 N 
HETATM   13  C7  UNL     1      24.324   1.808  51.826  1.00  0.00     0.158 C 
BRANCH  12  14
HETATM   14  C8  UNL     1      25.815   0.198  52.985  1.00  0.00     0.035 A 
HETATM   15  C9  UNL     1      26.749   0.931  53.713  1.00  0.00     0.030 A 
HETATM   16  C10 UNL     1      28.033   0.532  53.979  1.00  0.00     0.009 A 
HETATM   17  C11 UNL     1      28.411  -0.694  53.481  1.00  0.00    -0.062 A 
HETATM   18  C12 UNL     1      29.797  -1.171  53.746  1.00  0.00     0.048 C 
HETATM   19  C13 UNL     1      27.563  -1.471  52.762  1.00  0.00     0.009 A 
HETATM   20  C14 UNL     1      26.265  -1.020  52.517  1.00  0.00     0.030 A 
ENDBRANCH  12  14
ENDBRANCH   7  12
BRANCH  10  21
HETATM   21  O2  UNL     1      20.602   1.502  49.934  1.00  0.00    -0.353 OA
HETATM   22  C18 UNL     1      21.325   1.139  48.779  1.00  0.00     0.210 C 
ENDBRANCH  10  21
BRANCH   1  23
HETATM   23  O1  UNL     1      18.380   0.169  51.250  1.00  0.00    -0.352 OA
HETATM   24  C1  UNL     1      17.271  -0.500  51.844  1.00  0.00     0.210 C 
ENDBRANCH   1  23
TORSDOF 4
ENDMDL
MODEL 5
REMARK VINA RESULT:      -7.1      2.761      6.680
REMARK  4 active torsions:
REMARK  status: ('A' for Active; 'I' for Inactive)
REMARK    1  A    between atoms: O1_2  and  C2_3 
REMARK    2  A    between atoms: C6_9  and  N3_10 
REMARK    3  A    between atoms: N3_10  and  C8_12 
REMARK    4  A    between atoms: C17_21  and  O2_22 
ROOT
HETATM    1  C2  UNL     1      25.962   1.329  53.872  1.00  0.00     0.115 A 
HETATM    2  C3  UNL     1      25.563   2.568  53.927  1.00  0.00     0.043 A 
HETATM    3  C4  UNL     1      24.527   2.936  53.268  1.00  0.00     0.061 A 
HETATM    4  N1  UNL     1      24.130   4.320  53.367  1.00  0.00    -0.349 N 
HETATM    5  C5  UNL     1      22.973   4.725  52.629  1.00  0.00     0.209 A 
HETATM    6  N2  UNL     1      22.288   3.906  51.896  1.00  0.00    -0.225 NA
HETATM    7  C6  UNL     1      22.643   2.527  51.769  1.00  0.00     0.143 A 
HETATM    8  C15 UNL     1      23.704   2.076  52.422  1.00  0.00     0.041 A 
HETATM    9  C16 UNL     1      24.171   0.681  52.372  1.00  0.00     0.057 A 
HETATM   10  C17 UNL     1      25.249   0.344  53.070  1.00  0.00     0.103 A 
HETATM   11  H4  UNL     1      24.620   5.050  53.933  1.00  0.00     0.166 HD
ENDROOT
BRANCH   7  12
HETATM   12  N3  UNL     1      21.925   1.587  50.977  1.00  0.00    -0.335 N 
HETATM   13  C7  UNL     1      22.188   1.325  49.555  1.00  0.00     0.158 C 
BRANCH  12  14
HETATM   14  C8  UNL     1      20.883   0.856  51.613  1.00  0.00     0.035 A 
HETATM   15  C9  UNL     1      19.671   0.585  50.983  1.00  0.00     0.030 A 
HETATM   16  C10 UNL     1      18.628  -0.110  51.539  1.00  0.00     0.009 A 
HETATM   17  C11 UNL     1      18.814  -0.570  52.823  1.00  0.00    -0.062 A 
HETATM   18  C12 UNL     1      17.709  -1.332  53.468  1.00  0.00     0.048 C 
HETATM   19  C13 UNL     1      19.962  -0.350  53.508  1.00  0.00     0.009 A 
HETATM   20  C14 UNL     1      20.996   0.364  52.898  1.00  0.00     0.030 A 
ENDBRANCH  12  14
ENDBRANCH   7  12
BRANCH  10  21
HETATM   21  O2  UNL     1      25.566  -0.999  52.926  1.00  0.00    -0.353 OA
HETATM   22  C18 UNL     1      26.722  -1.423  52.237  1.00  0.00     0.210 C 
ENDBRANCH  10  21
BRANCH   1  23
HETATM   23  O1  UNL     1      27.075   0.870  54.561  1.00  0.00    -0.352 OA
HETATM   24  C1  UNL     1      28.389   1.220  54.134  1.00  0.00     0.210 C 
ENDBRANCH   1  23
TORSDOF 4
ENDMDL
MODEL 6
REMARK VINA RESULT:      -7.0      2.188      3.509
REMARK  4 active torsions:
REMARK  status: ('A' for Active; 'I' for Inactive)
REMARK    1  A    between atoms: O1_2  and  C2_3 
REMARK    2  A    between atoms: C6_9  and  N3_10 
REMARK    3  A    between atoms: N3_10  and  C8_12 
REMARK    4  A    between atoms: C17_21  and  O2_22 
ROOT
HETATM    1  C2  UNL     1      20.567   0.449  51.551  1.00  0.00     0.115 A 
HETATM    2  C3  UNL     1      21.012   0.948  50.434  1.00  0.00     0.043 A 
HETATM    3  C4  UNL     1      22.142   1.555  50.410  1.00  0.00     0.061 A 
HETATM    4  N1  UNL     1      22.586   2.087  49.145  1.00  0.00    -0.349 N 
HETATM    5  C5  UNL     1      23.847   2.763  49.125  1.00  0.00     0.209 A 
HETATM    6  N2  UNL     1      24.583   2.906  50.181  1.00  0.00    -0.225 NA
HETATM    7  C6  UNL     1      24.183   2.395  51.455  1.00  0.00     0.143 A 
HETATM    8  C15 UNL     1      23.026   1.756  51.555  1.00  0.00     0.041 A 
HETATM    9  C16 UNL     1      22.504   1.186  52.807  1.00  0.00     0.057 A 
HETATM   10  C17 UNL     1      21.330   0.566  52.786  1.00  0.00     0.103 A 
HETATM   11  H4  UNL     1      22.062   2.019  48.243  1.00  0.00     0.166 HD
ENDROOT
BRANCH   7  12
HETATM   12  N3  UNL     1      24.953   2.525  52.646  1.00  0.00    -0.335 N 
HETATM   13  C7  UNL     1      24.689   3.512  53.702  1.00  0.00     0.158 C 
BRANCH  12  14
HETATM   14  C8  UNL     1      26.050   1.636  52.815  1.00  0.00     0.035 A 
HETATM   15  C9  UNL     1      25.970   0.284  52.491  1.00  0.00     0.030 A 
HETATM   16  C10 UNL     1      26.987  -0.625  52.631  1.00  0.00     0.009 A 
HETATM   17  C11 UNL     1      28.175  -0.143  53.131  1.00  0.00    -0.062 A 
HETATM   18  C12 UNL     1      29.310  -1.093  53.300  1.00  0.00     0.048 C 
HETATM   19  C13 UNL     1      28.338   1.159  53.472  1.00  0.00     0.009 A 
HETATM   20  C14 UNL     1      27.271   2.046  53.311  1.00  0.00     0.030 A 
ENDBRANCH  12  14
ENDBRANCH   7  12
BRANCH  10  21
HETATM   21  O2  UNL     1      20.972   0.083  54.036  1.00  0.00    -0.353 OA
HETATM   22  C18 UNL     1      21.796  -0.807  54.756  1.00  0.00     0.210 C 
ENDBRANCH  10  21
BRANCH   1  23
HETATM   23  O1  UNL     1      19.353  -0.217  51.642  1.00  0.00    -0.352 OA
HETATM   24  C1  UNL     1      18.159   0.377  51.140  1.00  0.00     0.210 C 
ENDBRANCH   1  23
TORSDOF 4
ENDMDL
MODEL 7
REMARK VINA RESULT:      -6.9      2.895      6.580
REMARK  4 active torsions:
REMARK  status: ('A' for Active; 'I' for Inactive)
REMARK    1  A    between atoms: O1_2  and  C2_3 
REMARK    2  A    between atoms: C6_9  and  N3_10 
REMARK    3  A    between atoms: N3_10  and  C8_12 
REMARK    4  A    between atoms: C17_21  and  O2_22 
ROOT
HETATM    1  C2  UNL     1      25.985  -0.206  52.892  1.00  0.00     0.115 A 
HETATM    2  C3  UNL     1      26.569   0.527  51.988  1.00  0.00     0.043 A 
HETATM    3  C4  UNL     1      25.980   1.571  51.532  1.00  0.00     0.061 A 
HETATM    4  N1  UNL     1      26.675   2.346  50.533  1.00  0.00    -0.349 N 
HETATM    5  C5  UNL     1      26.012   3.509  50.028  1.00  0.00     0.209 A 
HETATM    6  N2  UNL     1      24.838   3.877  50.432  1.00  0.00    -0.225 NA
HETATM    7  C6  UNL     1      24.113   3.140  51.418  1.00  0.00     0.143 A 
HETATM    8  C15 UNL     1      24.661   2.050  51.935  1.00  0.00     0.041 A 
HETATM    9  C16 UNL     1      24.016   1.207  52.955  1.00  0.00     0.057 A 
HETATM   10  C17 UNL     1      24.663   0.136  53.399  1.00  0.00     0.103 A 
HETATM   11  H4  UNL     1      27.622   2.127  50.149  1.00  0.00     0.166 HD
ENDROOT
BRANCH   7  12
HETATM   12  N3  UNL     1      22.820   3.501  51.896  1.00  0.00    -0.335 N 
HETATM   13  C7  UNL     1      22.550   4.644  52.778  1.00  0.00     0.158 C 
BRANCH  12  14
HETATM   14  C8  UNL     1      21.723   2.693  51.487  1.00  0.00     0.035 A 
HETATM   15  C9  UNL     1      20.656   2.402  52.334  1.00  0.00     0.030 A 
HETATM   16  C10 UNL     1      19.572   1.631  52.003  1.00  0.00     0.009 A 
HETATM   17  C11 UNL     1      19.553   1.114  50.728  1.00  0.00    -0.062 A 
HETATM   18  C12 UNL     1      18.394   0.271  50.323  1.00  0.00     0.048 C 
HETATM   19  C13 UNL     1      20.551   1.348  49.841  1.00  0.00     0.009 A 
HETATM   20  C14 UNL     1      21.635   2.140  50.226  1.00  0.00     0.030 A 
ENDBRANCH  12  14
ENDBRANCH   7  12
BRANCH  10  21
HETATM   21  O2  UNL     1      23.933  -0.556  54.355  1.00  0.00    -0.353 OA
HETATM   22  C18 UNL     1      22.592  -0.937  54.139  1.00  0.00     0.210 C 
ENDBRANCH  10  21
BRANCH   1  23
HETATM   23  O1  UNL     1      26.569  -1.346  53.423  1.00  0.00    -0.352 OA
HETATM   24  C1  UNL     1      27.164  -2.323  52.572  1.00  0.00     0.210 C 
ENDBRANCH   1  23
TORSDOF 4
ENDMDL
MODEL 8
REMARK VINA RESULT:      -6.8      3.069      6.480
REMARK  4 active torsions:
REMARK  status: ('A' for Active; 'I' for Inactive)
REMARK    1  A    between atoms: O1_2  and  C2_3 
REMARK    2  A    between atoms: C6_9  and  N3_10 
REMARK    3  A    between atoms: N3_10  and  C8_12 
REMARK    4  A    between atoms: C17_21  and  O2_22 
ROOT
HETATM    1  C2  UNL     1      23.266  -0.184  53.639  1.00  0.00     0.115 A 
HETATM    2  C3  UNL     1      24.504  -0.090  53.245  1.00  0.00     0.043 A 
HETATM    3  C4  UNL     1      24.862   0.879  52.486  1.00  0.00     0.061 A 
HETATM    4  N1  UNL     1      26.246   0.934  52.082  1.00  0.00    -0.349 N 
HETATM    5  C5  UNL     1      26.640   2.017  51.235  1.00  0.00     0.209 A 
HETATM    6  N2  UNL     1      25.811   2.927  50.831  1.00  0.00    -0.225 NA
HETATM    7  C6  UNL     1      24.432   2.913  51.206  1.00  0.00     0.143 A 
HETATM    8  C15 UNL     1      23.991   1.941  51.990  1.00  0.00     0.041 A 
HETATM    9  C16 UNL     1      22.596   1.817  52.444  1.00  0.00     0.057 A 
HETATM   10  C17 UNL     1      22.269   0.797  53.230  1.00  0.00     0.103 A 
HETATM   11  H4  UNL     1      26.984   0.246  52.358  1.00  0.00     0.166 HD
ENDROOT
BRANCH   7  12
HETATM   12  N3  UNL     1      23.481   3.889  50.790  1.00  0.00    -0.335 N 
HETATM   13  C7  UNL     1      22.935   4.940  51.659  1.00  0.00     0.158 C 
BRANCH  12  14
HETATM   14  C8  UNL     1      23.035   3.833  49.440  1.00  0.00     0.035 A 
HETATM   15  C9  UNL     1      22.866   4.977  48.664  1.00  0.00     0.030 A 
HETATM   16  C10 UNL     1      22.439   4.992  47.361  1.00  0.00     0.009 A 
HETATM   17  C11 UNL     1      22.162   3.771  46.792  1.00  0.00    -0.062 A 
HETATM   18  C12 UNL     1      21.696   3.738  45.377  1.00  0.00     0.048 C 
HETATM   19  C13 UNL     1      22.300   2.609  47.477  1.00  0.00     0.009 A 
HETATM   20  C14 UNL     1      22.738   2.645  48.802  1.00  0.00     0.030 A 
ENDBRANCH  12  14
ENDBRANCH   7  12
BRANCH  10  21
HETATM   21  O2  UNL     1      20.926   0.813  53.575  1.00  0.00    -0.353 OA
HETATM   22  C18 UNL     1      19.951   0.137  52.812  1.00  0.00     0.210 C 
ENDBRANCH  10  21
BRANCH   1  23
HETATM   23  O1  UNL     1      22.817  -1.208  54.459  1.00  0.00    -0.352 OA
HETATM   24  C1  UNL     1      23.455  -1.474  55.705  1.00  0.00     0.210 C 
ENDBRANCH   1  23
TORSDOF 4
ENDMDL
MODEL 9
REMARK VINA RESULT:      -6.7      1.535      2.035
REMARK  4 active torsions:
REMARK  status: ('A' for Active; 'I' for Inactive)
REMARK    1  A    between atoms: O1_2  and  C2_3 
REMARK    2  A    between atoms: C6_9  and  N3_10 
REMARK    3  A    between atoms: N3_10  and  C8_12 
REMARK    4  A    between atoms: C17_21  and  O2_22 
ROOT
HETATM    1  C2  UNL     1      22.666   3.543  48.211  1.00  0.00     0.115 A 
HETATM    2  C3  UNL     1      21.940   2.522  48.566  1.00  0.00     0.043 A 
HETATM    3  C4  UNL     1      22.143   1.956  49.699  1.00  0.00     0.061 A 
HETATM    4  N1  UNL     1      21.308   0.830  50.041  1.00  0.00    -0.349 N 
HETATM    5  C5  UNL     1      21.539   0.203  51.306  1.00  0.00     0.209 A 
HETATM    6  N2  UNL     1      22.452   0.607  52.132  1.00  0.00    -0.225 NA
HETATM    7  C6  UNL     1      23.301   1.717  51.836  1.00  0.00     0.143 A 
HETATM    8  C15 UNL     1      23.148   2.351  50.682  1.00  0.00     0.041 A 
HETATM    9  C16 UNL     1      23.959   3.505  50.261  1.00  0.00     0.057 A 
HETATM   10  C17 UNL     1      23.715   4.060  49.080  1.00  0.00     0.103 A 
HETATM   11  H4  UNL     1      20.549   0.436  49.440  1.00  0.00     0.166 HD
ENDROOT
BRANCH   7  12
HETATM   12  N3  UNL     1      24.318   2.201  52.707  1.00  0.00    -0.335 N 
HETATM   13  C7  UNL     1      24.261   3.485  53.419  1.00  0.00     0.158 C 
BRANCH  12  14
HETATM   14  C8  UNL     1      25.464   1.379  52.895  1.00  0.00     0.035 A 
HETATM   15  C9  UNL     1      26.273   1.476  54.025  1.00  0.00     0.030 A 
HETATM   16  C10 UNL     1      27.389   0.716  54.265  1.00  0.00     0.009 A 
HETATM   17  C11 UNL     1      27.719  -0.211  53.304  1.00  0.00    -0.062 A 
HETATM   18  C12 UNL     1      28.923  -1.060  53.522  1.00  0.00     0.048 C 
HETATM   19  C13 UNL     1      26.986  -0.370  52.175  1.00  0.00     0.009 A 
HETATM   20  C14 UNL     1      25.857   0.428  51.975  1.00  0.00     0.030 A 
ENDBRANCH  12  14
ENDBRANCH   7  12
BRANCH  10  21
HETATM   21  O2  UNL     1      24.555   5.134  48.823  1.00  0.00    -0.353 OA
HETATM   22  C18 UNL     1      25.612   5.479  49.691  1.00  0.00     0.210 C 
ENDBRANCH  10  21
BRANCH   1  23
HETATM   23  O1  UNL     1      22.496   4.197  46.999  1.00  0.00    -0.352 OA
HETATM   24  C1  UNL     1      21.748   3.594  45.947  1.00  0.00     0.210 C 
ENDBRANCH   1  23
TORSDOF 4
ENDMDL
