MODEL 1
REMARK VINA RESULT:      -7.9      0.000      0.000
REMARK  7 active torsions:
REMARK  status: ('A' for Active; 'I' for Inactive)
REMARK    1  A    between atoms: C1_2  and  C2_3 
REMARK    2  A    between atoms: C2_3  and  C3_4 
REMARK    3  A    between atoms: C3_4  and  N1_5 
REMARK    4  A    between atoms: N1_5  and  C4_6 
REMARK    5  A    between atoms: C4_6  and  C5_7 
REMARK    6  A    between atoms: C9_14  and  N5_15 
REMARK    7  A    between atoms: N5_15  and  C10_16 
ROOT
HETATM    1  C5  UNL     1      24.161   1.229  52.224  1.00  0.00     0.004 A 
HETATM    2  C6  UNL     1      22.900   1.398  51.641  1.00  0.00     0.030 A 
HETATM    3  C7  UNL     1      23.135   2.267  50.603  1.00  0.00     0.119 A 
HETATM    4  N2  UNL     1      24.424   2.589  50.570  1.00  0.00    -0.240 N 
HETATM    5  N3  UNL     1      24.952   3.398  49.696  1.00  0.00    -0.161 NA
HETATM    6  C8  UNL     1      26.235   3.738  49.640  1.00  0.00     0.258 A 
HETATM    7  N4  UNL     1      26.929   3.144  50.598  1.00  0.00    -0.221 NA
HETATM    8  C9  UNL     1      26.399   2.310  51.503  1.00  0.00     0.155 A 
HETATM    9  C15 UNL     1      25.080   1.967  51.553  1.00  0.00     0.111 A 
ENDROOT
BRANCH   8  10
HETATM   10  N5  UNL     1      27.177   1.716  52.489  1.00  0.00    -0.363 N 
HETATM   11  H13 UNL     1      27.350   0.730  52.748  1.00  0.00     0.162 HD
BRANCH  10  12
HETATM   12  C10 UNL     1      28.173   1.638  53.691  1.00  0.00     0.127 A 
HETATM   13  C11 UNL     1      28.822   0.774  53.640  1.00  0.00    -0.039 A 
HETATM   14  C12 UNL     1      29.295   0.109  53.599  1.00  0.00    -0.036 A 
HETATM   15  C14 UNL     1      28.052  -0.470  53.442  1.00  0.00     0.090 A 
HETATM   16  C13 UNL     1      29.878  -0.752  53.544  1.00  0.00     0.100 A 
HETATM   17 CL1  UNL     1      29.392  -2.394  53.322  1.00  0.00    -0.111 Cl
ENDBRANCH  10  12
ENDBRANCH   8  10
BRANCH   1  18
HETATM   18  C4  UNL     1      24.522   0.394  53.394  1.00  0.00     0.310 C 
BRANCH  18  19
HETATM   19  N1  UNL     1      23.628  -0.784  53.315  1.00  0.00     0.087 N 
HETATM   20  H7  UNL     1      24.120  -1.613  52.972  1.00  0.00     0.316 HD
BRANCH  19  21
HETATM   21  C3  UNL     1      22.997  -0.943  54.614  1.00  0.00     0.272 C 
BRANCH  21  22
HETATM   22  C2  UNL     1      21.652  -1.592  54.452  1.00  0.00     0.061 C 
BRANCH  22  23
HETATM   23  C1  UNL     1      20.672  -0.551  53.981  1.00  0.00     0.223 C 
HETATM   24  F1  UNL     1      20.831   0.606  54.704  1.00  0.00    -0.255 F 
ENDBRANCH  22  23
ENDBRANCH  21  22
ENDBRANCH  19  21
ENDBRANCH  18  19
ENDBRANCH   1  18
TORSDOF 7
ENDMDL
MODEL 2
REMARK VINA RESULT:      -7.7      2.906      4.928
REMARK  7 active torsions:
REMARK  status: ('A' for Active; 'I' for Inactive)
REMARK    1  A    between atoms: C1_2  and  C2_3 
REMARK    2  A    between atoms: C2_3  and  C3_4 
REMARK    3  A    between atoms: C3_4  and  N1_5 
REMARK    4  A    between atoms: N1_5  and  C4_6 
REMARK    5  A    between atoms: C4_6  and  C5_7 
REMARK    6  A    between atoms: C9_14  and  N5_15 
REMARK    7  A    between atoms: N5_15  and  C10_16 
ROOT
HETATM    1  C5  UNL     1      25.287   0.714  53.156  1.00  0.00     0.004 A 
HETATM    2  C6  UNL     1      25.149  -0.156  54.243  1.00  0.00     0.030 A 
HETATM    3  C7  UNL     1      26.346  -0.039  54.907  1.00  0.00     0.119 A 
HETATM    4  N2  UNL     1      27.131   0.825  54.271  1.00  0.00    -0.240 N 
HETATM    5  N3  UNL     1      28.332   1.144  54.661  1.00  0.00    -0.161 NA
HETATM    6  C8  UNL     1      29.137   2.003  54.045  1.00  0.00     0.258 A 
HETATM    7  N4  UNL     1      28.562   2.508  52.965  1.00  0.00    -0.221 NA
HETATM    8  C9  UNL     1      27.327   2.188  52.554  1.00  0.00     0.155 A 
HETATM    9  C15 UNL     1      26.507   1.305  53.192  1.00  0.00     0.111 A 
ENDROOT
BRANCH   8  10
HETATM   10  N5  UNL     1      26.775   2.749  51.409  1.00  0.00    -0.363 N 
HETATM   11  H13 UNL     1      26.086   3.506  51.260  1.00  0.00     0.162 HD
BRANCH  10  12
HETATM   12  C10 UNL     1      26.536   2.972  49.880  1.00  0.00     0.127 A 
HETATM   13  C11 UNL     1      26.257   3.990  49.645  1.00  0.00    -0.039 A 
HETATM   14  C12 UNL     1      26.030   4.759  49.482  1.00  0.00    -0.036 A 
HETATM   15  C14 UNL     1      25.131   4.450  50.482  1.00  0.00     0.090 A 
HETATM   16  C13 UNL     1      25.725   5.735  49.292  1.00  0.00     0.100 A 
HETATM   17 CL1  UNL     1      24.465   6.655  50.031  1.00  0.00    -0.111 Cl
ENDBRANCH  10  12
ENDBRANCH   8  10
BRANCH   1  18
HETATM   18  C4  UNL     1      24.303   1.004  52.086  1.00  0.00     0.310 C 
BRANCH  18  19
HETATM   19  N1  UNL     1      23.144   1.606  52.784  1.00  0.00     0.087 N 
HETATM   20  H7  UNL     1      23.011   2.587  52.525  1.00  0.00     0.316 HD
BRANCH  19  21
HETATM   21  C3  UNL     1      21.994   0.751  52.543  1.00  0.00     0.272 C 
BRANCH  21  22
HETATM   22  C2  UNL     1      21.380   0.339  53.851  1.00  0.00     0.061 C 
BRANCH  22  23
HETATM   23  C1  UNL     1      21.591  -1.140  54.034  1.00  0.00     0.223 C 
HETATM   24  F1  UNL     1      22.386  -1.629  53.027  1.00  0.00    -0.255 F 
ENDBRANCH  22  23
ENDBRANCH  21  22
ENDBRANCH  19  21
ENDBRANCH  18  19
ENDBRANCH   1  18
TORSDOF 7
ENDMDL
MODEL 3
REMARK VINA RESULT:      -7.7      3.425      5.439
REMARK  7 active torsions:
REMARK  status: ('A' for Active; 'I' for Inactive)
REMARK    1  A    between atoms: C1_2  and  C2_3 
REMARK    2  A    between atoms: C2_3  and  C3_4 
REMARK    3  A    between atoms: C3_4  and  N1_5 
REMARK    4  A    between atoms: N1_5  and  C4_6 
REMARK    5  A    between atoms: C4_6  and  C5_7 
REMARK    6  A    between atoms: C9_14  and  N5_15 
REMARK    7  A    between atoms: N5_15  and  C10_16 
ROOT
HETATM    1  C5  UNL     1      25.209   0.750  53.100  1.00  0.00     0.004 A 
HETATM    2  C6  UNL     1      25.045  -0.114  54.189  1.00  0.00     0.030 A 
HETATM    3  C7  UNL     1      26.239  -0.021  54.861  1.00  0.00     0.119 A 
HETATM    4  N2  UNL     1      27.047   0.825  54.229  1.00  0.00    -0.240 N 
HETATM    5  N3  UNL     1      28.251   1.120  54.626  1.00  0.00    -0.161 NA
HETATM    6  C8  UNL     1      29.079   1.960  54.014  1.00  0.00     0.258 A 
HETATM    7  N4  UNL     1      28.522   2.474  52.929  1.00  0.00    -0.221 NA
HETATM    8  C9  UNL     1      27.284   2.179  52.509  1.00  0.00     0.155 A 
HETATM    9  C15 UNL     1      26.441   1.315  53.144  1.00  0.00     0.111 A 
ENDROOT
BRANCH   8  10
HETATM   10  N5  UNL     1      26.752   2.749  51.359  1.00  0.00    -0.363 N 
HETATM   11  H13 UNL     1      26.185   3.597  51.194  1.00  0.00     0.162 HD
BRANCH  10  12
HETATM   12  C10 UNL     1      26.448   2.909  49.834  1.00  0.00     0.127 A 
HETATM   13  C11 UNL     1      26.314   3.941  49.541  1.00  0.00    -0.039 A 
HETATM   14  C12 UNL     1      26.199   4.724  49.335  1.00  0.00    -0.036 A 
HETATM   15  C14 UNL     1      25.332   4.627  50.404  1.00  0.00     0.090 A 
HETATM   16  C13 UNL     1      26.037   5.723  49.092  1.00  0.00     0.100 A 
HETATM   17 CL1  UNL     1      24.987   6.877  49.831  1.00  0.00    -0.111 Cl
ENDBRANCH  10  12
ENDBRANCH   8  10
BRANCH   1  18
HETATM   18  C4  UNL     1      24.239   1.058  52.023  1.00  0.00     0.310 C 
BRANCH  18  19
HETATM   19  N1  UNL     1      23.406   2.159  52.559  1.00  0.00     0.087 N 
HETATM   20  H7  UNL     1      23.978   2.941  52.889  1.00  0.00     0.316 HD
BRANCH  19  21
HETATM   21  C3  UNL     1      22.427   2.504  51.543  1.00  0.00     0.272 C 
BRANCH  21  22
HETATM   22  C2  UNL     1      22.705   1.733  50.284  1.00  0.00     0.061 C 
BRANCH  22  23
HETATM   23  C1  UNL     1      22.379   2.609  49.103  1.00  0.00     0.223 C 
HETATM   24  F1  UNL     1      23.460   2.680  48.259  1.00  0.00    -0.255 F 
ENDBRANCH  22  23
ENDBRANCH  21  22
ENDBRANCH  19  21
ENDBRANCH  18  19
ENDBRANCH   1  18
TORSDOF 7
ENDMDL
MODEL 4
REMARK VINA RESULT:      -7.6      2.598      4.808
REMARK  7 active torsions:
REMARK  status: ('A' for Active; 'I' for Inactive)
REMARK    1  A    between atoms: C1_2  and  C2_3 
REMARK    2  A    between atoms: C2_3  and  C3_4 
REMARK    3  A    between atoms: C3_4  and  N1_5 
REMARK    4  A    between atoms: N1_5  and  C4_6 
REMARK    5  A    between atoms: C4_6  and  C5_7 
REMARK    6  A    between atoms: C9_14  and  N5_15 
REMARK    7  A    between atoms: N5_15  and  C10_16 
ROOT
HETATM    1  C5  UNL     1      26.614  -0.568  52.877  1.00  0.00     0.004 A 
HETATM    2  C6  UNL     1      27.442  -1.696  52.919  1.00  0.00     0.030 A 
HETATM    3  C7  UNL     1      28.637  -1.204  53.387  1.00  0.00     0.119 A 
HETATM    4  N2  UNL     1      28.532   0.103  53.605  1.00  0.00    -0.240 N 
HETATM    5  N3  UNL     1      29.501   0.849  54.050  1.00  0.00    -0.161 NA
HETATM    6  C8  UNL     1      29.425   2.156  54.275  1.00  0.00     0.258 A 
HETATM    7  N4  UNL     1      28.219   2.621  53.988  1.00  0.00    -0.221 NA
HETATM    8  C9  UNL     1      27.213   1.864  53.530  1.00  0.00     0.155 A 
HETATM    9  C15 UNL     1      27.300   0.522  53.301  1.00  0.00     0.111 A 
ENDROOT
BRANCH   8  10
HETATM   10  N5  UNL     1      25.967   2.408  53.243  1.00  0.00    -0.363 N 
HETATM   11  H13 UNL     1      25.343   2.340  52.421  1.00  0.00     0.162 HD
BRANCH  10  12
HETATM   12  C10 UNL     1      24.658   3.228  53.485  1.00  0.00     0.127 A 
HETATM   13  C11 UNL     1      23.846   2.919  52.841  1.00  0.00    -0.039 A 
HETATM   14  C12 UNL     1      23.245   2.688  52.337  1.00  0.00    -0.036 A 
HETATM   15  C14 UNL     1      24.260   2.891  51.424  1.00  0.00     0.090 A 
HETATM   16  C13 UNL     1      22.496   2.395  51.676  1.00  0.00     0.100 A 
HETATM   17 CL1  UNL     1      22.550   2.228  49.958  1.00  0.00    -0.111 Cl
ENDBRANCH  10  12
ENDBRANCH   8  10
BRANCH   1  18
HETATM   18  C4  UNL     1      25.197  -0.490  52.449  1.00  0.00     0.310 C 
BRANCH  18  19
HETATM   19  N1  UNL     1      24.412  -0.601  53.699  1.00  0.00     0.087 N 
HETATM   20  H7  UNL     1      24.535   0.220  54.299  1.00  0.00     0.316 HD
BRANCH  19  21
HETATM   21  C3  UNL     1      23.036  -0.885  53.330  1.00  0.00     0.272 C 
BRANCH  21  22
HETATM   22  C2  UNL     1      22.156  -0.810  54.544  1.00  0.00     0.061 C 
BRANCH  22  23
HETATM   23  C1  UNL     1      20.968   0.058  54.222  1.00  0.00     0.223 C 
HETATM   24  F1  UNL     1      20.573   0.747  55.342  1.00  0.00    -0.255 F 
ENDBRANCH  22  23
ENDBRANCH  21  22
ENDBRANCH  19  21
ENDBRANCH  18  19
ENDBRANCH   1  18
TORSDOF 7
ENDMDL
MODEL 5
REMARK VINA RESULT:      -7.2      3.065      6.618
REMARK  7 active torsions:
REMARK  status: ('A' for Active; 'I' for Inactive)
REMARK    1  A    between atoms: C1_2  and  C2_3 
REMARK    2  A    between atoms: C2_3  and  C3_4 
REMARK    3  A    between atoms: C3_4  and  N1_5 
REMARK    4  A    between atoms: N1_5  and  C4_6 
REMARK    5  A    between atoms: C4_6  and  C5_7 
REMARK    6  A    between atoms: C9_14  and  N5_15 
REMARK    7  A    between atoms: N5_15  and  C10_16 
ROOT
HETATM    1  C5  UNL     1      24.699   0.041  53.355  1.00  0.00     0.004 A 
HETATM    2  C6  UNL     1      25.406  -0.506  54.433  1.00  0.00     0.030 A 
HETATM    3  C7  UNL     1      24.439  -1.163  55.156  1.00  0.00     0.119 A 
HETATM    4  N2  UNL     1      23.258  -1.020  54.562  1.00  0.00    -0.240 N 
HETATM    5  N3  UNL     1      22.148  -1.530  55.012  1.00  0.00    -0.161 NA
HETATM    6  C8  UNL     1      20.956  -1.403  54.440  1.00  0.00     0.258 A 
HETATM    7  N4  UNL     1      21.031  -0.680  53.333  1.00  0.00    -0.221 NA
HETATM    8  C9  UNL     1      22.166  -0.150  52.859  1.00  0.00     0.155 A 
HETATM    9  C15 UNL     1      23.387  -0.285  53.453  1.00  0.00     0.111 A 
ENDROOT
BRANCH   8  10
HETATM   10  N5  UNL     1      22.185   0.602  51.691  1.00  0.00    -0.363 N 
HETATM   11  H13 UNL     1      22.818   1.342  51.342  1.00  0.00     0.162 HD
BRANCH  10  12
HETATM   12  C10 UNL     1      21.724   1.090  50.279  1.00  0.00     0.127 A 
HETATM   13  C11 UNL     1      22.404   1.808  49.842  1.00  0.00    -0.039 A 
HETATM   14  C12 UNL     1      22.917   2.363  49.530  1.00  0.00    -0.036 A 
HETATM   15  C14 UNL     1      22.692   2.917  50.774  1.00  0.00     0.090 A 
HETATM   16  C13 UNL     1      23.569   3.081  49.154  1.00  0.00     0.100 A 
HETATM   17 CL1  UNL     1      24.164   4.521  49.898  1.00  0.00    -0.111 Cl
ENDBRANCH  10  12
ENDBRANCH   8  10
BRANCH   1  18
HETATM   18  C4  UNL     1      25.226   0.861  52.239  1.00  0.00     0.310 C 
BRANCH  18  19
HETATM   19  N1  UNL     1      25.870   2.026  52.889  1.00  0.00     0.087 N 
HETATM   20  H7  UNL     1      25.813   1.971  53.910  1.00  0.00     0.316 HD
BRANCH  19  21
HETATM   21  C3  UNL     1      27.218   2.136  52.358  1.00  0.00     0.272 C 
BRANCH  21  22
HETATM   22  C2  UNL     1      28.199   2.289  53.485  1.00  0.00     0.061 C 
BRANCH  22  23
HETATM   23  C1  UNL     1      29.073   1.064  53.529  1.00  0.00     0.223 C 
HETATM   24  F1  UNL     1      28.344  -0.046  53.178  1.00  0.00    -0.255 F 
ENDBRANCH  22  23
ENDBRANCH  21  22
ENDBRANCH  19  21
ENDBRANCH  18  19
ENDBRANCH   1  18
TORSDOF 7
ENDMDL
MODEL 6
REMARK VINA RESULT:      -7.2      2.244      4.846
REMARK  7 active torsions:
REMARK  status: ('A' for Active; 'I' for Inactive)
REMARK    1  A    between atoms: C1_2  and  C2_3 
REMARK    2  A    between atoms: C2_3  and  C3_4 
REMARK    3  A    between atoms: C3_4  and  N1_5 
REMARK    4  A    between atoms: N1_5  and  C4_6 
REMARK    5  A    between atoms: C4_6  and  C5_7 
REMARK    6  A    between atoms: C9_14  and  N5_15 
REMARK    7  A    between atoms: N5_15  and  C10_16 
ROOT
HETATM    1  C5  UNL     1      24.390   1.746  51.669  1.00  0.00     0.004 A 
HETATM    2  C6  UNL     1      23.486   2.178  50.691  1.00  0.00     0.030 A 
HETATM    3  C7  UNL     1      22.362   1.427  50.934  1.00  0.00     0.119 A 
HETATM    4  N2  UNL     1      22.576   0.617  51.966  1.00  0.00    -0.240 N 
HETATM    5  N3  UNL     1      21.693  -0.219  52.433  1.00  0.00    -0.161 NA
HETATM    6  C8  UNL     1      21.880  -1.040  53.461  1.00  0.00     0.258 A 
HETATM    7  N4  UNL     1      23.096  -0.904  53.966  1.00  0.00    -0.221 NA
HETATM    8  C9  UNL     1      24.013  -0.049  53.495  1.00  0.00     0.155 A 
HETATM    9  C15 UNL     1      23.813   0.790  52.438  1.00  0.00     0.111 A 
ENDROOT
BRANCH   8  10
HETATM   10  N5  UNL     1      25.277   0.049  54.064  1.00  0.00    -0.363 N 
HETATM   11  H13 UNL     1      26.230   0.048  53.663  1.00  0.00     0.162 HD
BRANCH  10  12
HETATM   12  C10 UNL     1      26.342   0.207  55.197  1.00  0.00     0.127 A 
HETATM   13  C11 UNL     1      27.347   0.316  54.814  1.00  0.00    -0.039 A 
HETATM   14  C12 UNL     1      28.104   0.380  54.511  1.00  0.00    -0.036 A 
HETATM   15  C14 UNL     1      27.677  -0.754  53.851  1.00  0.00     0.090 A 
HETATM   16  C13 UNL     1      29.064   0.442  54.113  1.00  0.00     0.100 A 
HETATM   17 CL1  UNL     1      29.847  -0.589  52.970  1.00  0.00    -0.111 Cl
ENDBRANCH  10  12
ENDBRANCH   8  10
BRANCH   1  18
HETATM   18  C4  UNL     1      25.780   2.208  51.896  1.00  0.00     0.310 C 
BRANCH  18  19
HETATM   19  N1  UNL     1      25.867   3.515  51.207  1.00  0.00     0.087 N 
HETATM   20  H7  UNL     1      26.136   4.266  51.849  1.00  0.00     0.316 HD
BRANCH  19  21
HETATM   21  C3  UNL     1      26.744   3.350  50.060  1.00  0.00     0.272 C 
BRANCH  21  22
HETATM   22  C2  UNL     1      26.631   4.544  49.156  1.00  0.00     0.061 C 
BRANCH  22  23
HETATM   23  C1  UNL     1      25.371   5.292  49.503  1.00  0.00     0.223 C 
HETATM   24  F1  UNL     1      24.410   5.059  48.551  1.00  0.00    -0.255 F 
ENDBRANCH  22  23
ENDBRANCH  21  22
ENDBRANCH  19  21
ENDBRANCH  18  19
ENDBRANCH   1  18
TORSDOF 7
ENDMDL
MODEL 7
REMARK VINA RESULT:      -7.1      2.813      5.454
REMARK  7 active torsions:
REMARK  status: ('A' for Active; 'I' for Inactive)
REMARK    1  A    between atoms: C1_2  and  C2_3 
REMARK    2  A    between atoms: C2_3  and  C3_4 
REMARK    3  A    between atoms: C3_4  and  N1_5 
REMARK    4  A    between atoms: N1_5  and  C4_6 
REMARK    5  A    between atoms: C4_6  and  C5_7 
REMARK    6  A    between atoms: C9_14  and  N5_15 
REMARK    7  A    between atoms: N5_15  and  C10_16 
ROOT
HETATM    1  C5  UNL     1      24.893   1.272  52.203  1.00  0.00     0.004 A 
HETATM    2  C6  UNL     1      25.673   2.097  51.385  1.00  0.00     0.030 A 
HETATM    3  C7  UNL     1      26.925   2.023  51.947  1.00  0.00     0.119 A 
HETATM    4  N2  UNL     1      26.894   1.224  53.009  1.00  0.00    -0.240 N 
HETATM    5  N3  UNL     1      27.930   0.957  53.752  1.00  0.00    -0.161 NA
HETATM    6  C8  UNL     1      27.928   0.164  54.819  1.00  0.00     0.258 A 
HETATM    7  N4  UNL     1      26.722  -0.334  55.041  1.00  0.00    -0.221 NA
HETATM    8  C9  UNL     1      25.649  -0.068  54.284  1.00  0.00     0.155 A 
HETATM    9  C15 UNL     1      25.659   0.747  53.191  1.00  0.00     0.111 A 
ENDROOT
BRANCH   8  10
HETATM   10  N5  UNL     1      24.405  -0.620  54.567  1.00  0.00    -0.363 N 
HETATM   11  H13 UNL     1      23.491  -0.577  54.085  1.00  0.00     0.162 HD
BRANCH  10  12
HETATM   12  C10 UNL     1      23.341  -1.461  55.344  1.00  0.00     0.127 A 
HETATM   13  C11 UNL     1      22.375  -1.464  54.858  1.00  0.00    -0.039 A 
HETATM   14  C12 UNL     1      21.645  -1.445  54.490  1.00  0.00    -0.036 A 
HETATM   15  C14 UNL     1      21.919  -0.094  54.550  1.00  0.00     0.090 A 
HETATM   16  C13 UNL     1      20.718  -1.397  54.020  1.00  0.00     0.100 A 
HETATM   17 CL1  UNL     1      19.826  -0.016  53.491  1.00  0.00    -0.111 Cl
ENDBRANCH  10  12
ENDBRANCH   8  10
BRANCH   1  18
HETATM   18  C4  UNL     1      23.448   0.966  52.080  1.00  0.00     0.310 C 
BRANCH  18  19
HETATM   19  N1  UNL     1      22.869   2.130  51.372  1.00  0.00     0.087 N 
HETATM   20  H7  UNL     1      23.535   2.904  51.304  1.00  0.00     0.316 HD
BRANCH  19  21
HETATM   21  C3  UNL     1      22.351   1.657  50.100  1.00  0.00     0.272 C 
BRANCH  21  22
HETATM   22  C2  UNL     1      21.298   0.612  50.334  1.00  0.00     0.061 C 
BRANCH  22  23
HETATM   23  C1  UNL     1      19.963   1.176  49.928  1.00  0.00     0.223 C 
HETATM   24  F1  UNL     1      18.952   0.368  50.386  1.00  0.00    -0.255 F 
ENDBRANCH  22  23
ENDBRANCH  21  22
ENDBRANCH  19  21
ENDBRANCH  18  19
ENDBRANCH   1  18
TORSDOF 7
ENDMDL
MODEL 8
REMARK VINA RESULT:      -7.1      3.099      5.543
REMARK  7 active torsions:
REMARK  status: ('A' for Active; 'I' for Inactive)
REMARK    1  A    between atoms: C1_2  and  C2_3 
REMARK    2  A    between atoms: C2_3  and  C3_4 
REMARK    3  A    between atoms: C3_4  and  N1_5 
REMARK    4  A    between atoms: N1_5  and  C4_6 
REMARK    5  A    between atoms: C4_6  and  C5_7 
REMARK    6  A    between atoms: C9_14  and  N5_15 
REMARK    7  A    between atoms: N5_15  and  C10_16 
ROOT
HETATM    1  C5  UNL     1      26.468   4.277  49.664  1.00  0.00     0.004 A 
HETATM    2  C6  UNL     1      27.402   4.712  48.716  1.00  0.00     0.030 A 
HETATM    3  C7  UNL     1      27.075   6.032  48.519  1.00  0.00     0.119 A 
HETATM    4  N2  UNL     1      26.037   6.357  49.283  1.00  0.00    -0.240 N 
HETATM    5  N3  UNL     1      25.496   7.542  49.315  1.00  0.00    -0.161 NA
HETATM    6  C8  UNL     1      24.459   7.893  50.067  1.00  0.00     0.258 A 
HETATM    7  N4  UNL     1      24.031   6.876  50.797  1.00  0.00    -0.221 NA
HETATM    8  C9  UNL     1      24.578   5.653  50.773  1.00  0.00     0.155 A 
HETATM    9  C15 UNL     1      25.643   5.300  49.998  1.00  0.00     0.111 A 
ENDROOT
BRANCH   8  10
HETATM   10  N5  UNL     1      24.084   4.620  51.561  1.00  0.00    -0.363 N 
HETATM   11  H13 UNL     1      23.574   3.749  51.338  1.00  0.00     0.162 HD
BRANCH  10  12
HETATM   12  C10 UNL     1      23.790   3.814  52.868  1.00  0.00     0.127 A 
HETATM   13  C11 UNL     1      23.519   2.785  52.672  1.00  0.00    -0.039 A 
HETATM   14  C12 UNL     1      23.300   2.014  52.509  1.00  0.00    -0.036 A 
HETATM   15  C14 UNL     1      22.434   2.692  51.676  1.00  0.00     0.090 A 
HETATM   16  C13 UNL     1      23.004   1.042  52.287  1.00  0.00     0.100 A 
HETATM   17 CL1  UNL     1      21.788   0.487  51.194  1.00  0.00    -0.111 Cl
ENDBRANCH  10  12
ENDBRANCH   8  10
BRANCH   1  18
HETATM   18  C4  UNL     1      26.334   2.928  50.262  1.00  0.00     0.310 C 
BRANCH  18  19
HETATM   19  N1  UNL     1      27.100   2.992  51.528  1.00  0.00     0.087 N 
HETATM   20  H7  UNL     1      26.802   3.777  52.113  1.00  0.00     0.316 HD
BRANCH  19  21
HETATM   21  C3  UNL     1      27.007   1.688  52.163  1.00  0.00     0.272 C 
BRANCH  21  22
HETATM   22  C2  UNL     1      26.955   1.851  53.655  1.00  0.00     0.061 C 
BRANCH  22  23
HETATM   23  C1  UNL     1      27.106   0.494  54.290  1.00  0.00     0.223 C 
HETATM   24  F1  UNL     1      26.007   0.213  55.064  1.00  0.00    -0.255 F 
ENDBRANCH  22  23
ENDBRANCH  21  22
ENDBRANCH  19  21
ENDBRANCH  18  19
ENDBRANCH   1  18
TORSDOF 7
ENDMDL
MODEL 9
REMARK VINA RESULT:      -7.0      3.377      5.751
REMARK  7 active torsions:
REMARK  status: ('A' for Active; 'I' for Inactive)
REMARK    1  A    between atoms: C1_2  and  C2_3 
REMARK    2  A    between atoms: C2_3  and  C3_4 
REMARK    3  A    between atoms: C3_4  and  N1_5 
REMARK    4  A    between atoms: N1_5  and  C4_6 
REMARK    5  A    between atoms: C4_6  and  C5_7 
REMARK    6  A    between atoms: C9_14  and  N5_15 
REMARK    7  A    between atoms: N5_15  and  C10_16 
ROOT
HETATM    1  C5  UNL     1      23.638  -0.461  53.834  1.00  0.00     0.004 A 
HETATM    2  C6  UNL     1      22.930  -1.145  54.829  1.00  0.00     0.030 A 
HETATM    3  C7  UNL     1      21.678  -0.580  54.784  1.00  0.00     0.119 A 
HETATM    4  N2  UNL     1      21.643   0.360  53.844  1.00  0.00    -0.240 N 
HETATM    5  N3  UNL     1      20.590   1.074  53.565  1.00  0.00    -0.161 NA
HETATM    6  C8  UNL     1      20.527   2.019  52.634  1.00  0.00     0.258 A 
HETATM    7  N4  UNL     1      21.686   2.152  52.008  1.00  0.00    -0.221 NA
HETATM    8  C9  UNL     1      22.776   1.424  52.285  1.00  0.00     0.155 A 
HETATM    9  C15 UNL     1      22.832   0.456  53.244  1.00  0.00     0.111 A 
ENDROOT
BRANCH   8  10
HETATM   10  N5  UNL     1      23.968   1.609  51.595  1.00  0.00    -0.363 N 
HETATM   11  H13 UNL     1      24.309   1.270  50.680  1.00  0.00     0.162 HD
BRANCH  10  12
HETATM   12  C10 UNL     1      25.406   2.155  51.317  1.00  0.00     0.127 A 
HETATM   13  C11 UNL     1      25.399   3.145  50.880  1.00  0.00    -0.039 A 
HETATM   14  C12 UNL     1      25.380   3.886  50.535  1.00  0.00    -0.036 A 
HETATM   15  C14 UNL     1      24.514   3.210  49.700  1.00  0.00     0.090 A 
HETATM   16  C13 UNL     1      25.341   4.821  50.080  1.00  0.00     0.100 A 
HETATM   17 CL1  UNL     1      24.445   5.330  48.694  1.00  0.00    -0.111 Cl
ENDBRANCH  10  12
ENDBRANCH   8  10
BRANCH   1  18
HETATM   18  C4  UNL     1      25.051  -0.647  53.427  1.00  0.00     0.310 C 
BRANCH  18  19
HETATM   19  N1  UNL     1      25.808  -0.733  54.696  1.00  0.00     0.087 N 
HETATM   20  H7  UNL     1      26.079  -1.696  54.913  1.00  0.00     0.316 HD
BRANCH  19  21
HETATM   21  C3  UNL     1      26.914   0.207  54.612  1.00  0.00     0.272 C 
BRANCH  21  22
HETATM   22  C2  UNL     1      27.745  -0.091  53.397  1.00  0.00     0.061 C 
BRANCH  22  23
HETATM   23  C1  UNL     1      29.089  -0.597  53.849  1.00  0.00     0.223 C 
HETATM   24  F1  UNL     1      29.391  -1.771  53.203  1.00  0.00    -0.255 F 
ENDBRANCH  22  23
ENDBRANCH  21  22
ENDBRANCH  19  21
ENDBRANCH  18  19
ENDBRANCH   1  18
TORSDOF 7
ENDMDL
