MODEL 1
REMARK VINA RESULT:      -9.3      0.000      0.000
REMARK  4 active torsions:
REMARK  status: ('A' for Active; 'I' for Inactive)
REMARK    1  A    between atoms: N1_1  and  C1_2 
REMARK    2  A    between atoms: C2_4  and  N3_5 
REMARK    3  A    between atoms: N5_16  and  C11_17 
REMARK    4  A    between atoms: C11_17  and  C12_18 
ROOT
HETATM    1  C1  UNL     1      27.830   1.788  53.505  1.00  0.00     0.721 C 
HETATM    2  N2  UNL     1      27.659   0.825  54.316  1.00  0.00    -0.038 NA
HETATM    3  C2  UNL     1      26.766  -0.282  54.508  1.00  0.00     0.591 C 
HETATM    4  N4  UNL     1      25.375   0.006  54.429  1.00  0.00     0.152 N 
HETATM    5  C3  UNL     1      24.685  -1.059  55.177  1.00  0.00     0.306 C 
HETATM    6  C4  UNL     1      23.238  -0.738  55.326  1.00  0.00     0.018 C 
HETATM    7  C5  UNL     1      22.696  -0.568  54.124  1.00  0.00    -0.011 C 
HETATM    8 BR1  UNL     1      20.839  -0.147  54.111  1.00  0.00    -0.056 Br
HETATM    9  C6  UNL     1      23.571  -0.717  52.927  1.00  0.00     0.083 C 
HETATM   10  C7  UNL     1      24.848   0.107  53.084  1.00  0.00     0.248 C 
HETATM   11  C8  UNL     1      24.603   1.541  52.723  1.00  0.00     0.114 A 
HETATM   12  C9  UNL     1      23.534   1.753  51.738  1.00  0.00     0.005 A 
HETATM   13  C10 UNL     1      24.042   2.301  50.622  1.00  0.00     0.089 A 
HETATM   14  N5  UNL     1      25.458   2.511  50.726  1.00  0.00    -0.340 N 
HETATM   15  C18 UNL     1      25.814   2.041  52.022  1.00  0.00     0.135 A 
HETATM   16  N6  UNL     1      27.065   2.132  52.338  1.00  0.00    -0.049 NA
ENDROOT
BRANCH  14  17
HETATM   17  C11 UNL     1      26.290   3.084  49.690  1.00  0.00     0.168 C 
BRANCH  17  18
HETATM   18  C12 UNL     1      26.177   4.563  49.635  1.00  0.00    -0.038 A 
HETATM   19  C13 UNL     1      25.279   5.305  50.377  1.00  0.00     0.010 A 
HETATM   20  C14 UNL     1      25.303   6.675  50.208  1.00  0.00     0.026 A 
HETATM   21  C15 UNL     1      26.170   7.284  49.350  1.00  0.00     0.055 A 
HETATM   22 CL1  UNL     1      26.167   9.034  49.166  1.00  0.00    -0.083 Cl
HETATM   23  C16 UNL     1      27.082   6.565  48.593  1.00  0.00     0.056 A 
HETATM   24 CL2  UNL     1      28.201   7.322  47.488  1.00  0.00    -0.083 Cl
HETATM   25  C17 UNL     1      27.049   5.201  48.768  1.00  0.00     0.034 A 
ENDBRANCH  17  18
ENDBRANCH  14  17
BRANCH   1  26
HETATM   26  N1  UNL     1      28.942   2.605  53.844  1.00  0.00    -0.231 N 
HETATM   27  H1  UNL     1      28.585   3.595  53.729  1.00  0.00     0.174 HD
HETATM   28  H2  UNL     1      29.945   2.689  54.154  1.00  0.00     0.174 HD
ENDBRANCH   1  26
BRANCH   3  29
HETATM   29  N3  UNL     1      27.109  -1.280  53.506  1.00  0.00     0.134 N 
HETATM   30  H4  UNL     1      26.253  -1.565  52.945  1.00  0.00     0.318 HD
HETATM   31  H5  UNL     1      27.856  -0.918  52.875  1.00  0.00     0.318 HD
ENDBRANCH   3  29
TORSDOF 4
ENDMDL
MODEL 2
REMARK VINA RESULT:      -8.4      4.359      6.753
REMARK  4 active torsions:
REMARK  status: ('A' for Active; 'I' for Inactive)
REMARK    1  A    between atoms: N1_1  and  C1_2 
REMARK    2  A    between atoms: C2_4  and  N3_5 
REMARK    3  A    between atoms: N5_16  and  C11_17 
REMARK    4  A    between atoms: C11_17  and  C12_18 
ROOT
HETATM    1  C1  UNL     1      22.162   2.150  49.018  1.00  0.00     0.721 C 
HETATM    2  N2  UNL     1      20.924   2.213  48.743  1.00  0.00    -0.038 NA
HETATM    3  C2  UNL     1      19.660   2.114  49.415  1.00  0.00     0.591 C 
HETATM    4  N4  UNL     1      19.492   1.005  50.290  1.00  0.00     0.152 N 
HETATM    5  C3  UNL     1      18.041   0.785  50.412  1.00  0.00     0.306 C 
HETATM    6  C4  UNL     1      17.765  -0.482  51.146  1.00  0.00     0.018 C 
HETATM    7  C5  UNL     1      18.346  -0.438  52.341  1.00  0.00    -0.011 C 
HETATM    8 BR1  UNL     1      18.105  -1.979  53.431  1.00  0.00    -0.056 Br
HETATM    9  C6  UNL     1      19.116   0.785  52.707  1.00  0.00     0.083 C 
HETATM   10  C7  UNL     1      20.096   1.160  51.596  1.00  0.00     0.248 C 
HETATM   11  C8  UNL     1      21.349   0.346  51.695  1.00  0.00     0.114 A 
HETATM   12  C9  UNL     1      21.687  -0.100  53.055  1.00  0.00     0.005 A 
HETATM   13  C10 UNL     1      22.856   0.439  53.436  1.00  0.00     0.089 A 
HETATM   14  N5  UNL     1      23.416   1.279  52.416  1.00  0.00    -0.340 N 
HETATM   15  C18 UNL     1      22.489   1.228  51.336  1.00  0.00     0.135 A 
HETATM   16  N6  UNL     1      22.795   1.925  50.290  1.00  0.00    -0.049 NA
ENDROOT
BRANCH  14  17
HETATM   17  C11 UNL     1      24.667   1.998  52.527  1.00  0.00     0.168 C 
BRANCH  17  18
HETATM   18  C12 UNL     1      25.821   1.087  52.734  1.00  0.00    -0.038 A 
HETATM   19  C13 UNL     1      25.869  -0.222  52.298  1.00  0.00     0.010 A 
HETATM   20  C14 UNL     1      27.019  -0.934  52.573  1.00  0.00     0.026 A 
HETATM   21  C15 UNL     1      28.070  -0.384  53.246  1.00  0.00     0.055 A 
HETATM   22 CL1  UNL     1      29.517  -1.329  53.575  1.00  0.00    -0.083 Cl
HETATM   23  C16 UNL     1      28.049   0.927  53.696  1.00  0.00     0.056 A 
HETATM   24 CL2  UNL     1      29.380   1.654  54.558  1.00  0.00    -0.083 Cl
HETATM   25  C17 UNL     1      26.899   1.628  53.416  1.00  0.00     0.034 A 
ENDBRANCH  17  18
ENDBRANCH  14  17
BRANCH   1  26
HETATM   26  N1  UNL     1      22.992   2.333  47.879  1.00  0.00    -0.231 N 
HETATM   27  H1  UNL     1      22.657   3.243  47.454  1.00  0.00     0.174 HD
HETATM   28  H2  UNL     1      23.776   1.993  47.264  1.00  0.00     0.174 HD
ENDBRANCH   1  26
BRANCH   3  29
HETATM   29  N3  UNL     1      19.484   3.349  50.164  1.00  0.00     0.134 N 
HETATM   30  H4  UNL     1      20.368   3.938  50.141  1.00  0.00     0.318 HD
HETATM   31  H5  UNL     1      18.675   3.889  49.788  1.00  0.00     0.318 HD
ENDBRANCH   3  29
TORSDOF 4
ENDMDL
MODEL 3
REMARK VINA RESULT:      -8.1      3.911      6.685
REMARK  4 active torsions:
REMARK  status: ('A' for Active; 'I' for Inactive)
REMARK    1  A    between atoms: N1_1  and  C1_2 
REMARK    2  A    between atoms: C2_4  and  N3_5 
REMARK    3  A    between atoms: N5_16  and  C11_17 
REMARK    4  A    between atoms: C11_17  and  C12_18 
ROOT
HETATM    1  C1  UNL     1      25.847   4.218  49.810  1.00  0.00     0.721 C 
HETATM    2  N2  UNL     1      24.998   4.781  49.051  1.00  0.00    -0.038 NA
HETATM    3  C2  UNL     1      23.582   5.005  48.992  1.00  0.00     0.591 C 
HETATM    4  N4  UNL     1      22.750   3.873  49.219  1.00  0.00     0.152 N 
HETATM    5  C3  UNL     1      21.456   4.172  48.584  1.00  0.00     0.306 C 
HETATM    6  C4  UNL     1      20.582   2.965  48.589  1.00  0.00     0.018 C 
HETATM    7  C5  UNL     1      20.417   2.542  49.838  1.00  0.00    -0.011 C 
HETATM    8 BR1  UNL     1      19.324   0.998  50.048  1.00  0.00    -0.056 Br
HETATM    9  C6  UNL     1      21.089   3.297  50.934  1.00  0.00     0.083 C 
HETATM   10  C7  UNL     1      22.566   3.519  50.611  1.00  0.00     0.248 C 
HETATM   11  C8  UNL     1      23.374   2.306  50.955  1.00  0.00     0.114 A 
HETATM   12  C9  UNL     1      22.825   1.491  52.048  1.00  0.00     0.005 A 
HETATM   13  C10 UNL     1      23.680   1.478  53.083  1.00  0.00     0.089 A 
HETATM   14  N5  UNL     1      24.857   2.254  52.815  1.00  0.00    -0.340 N 
HETATM   15  C18 UNL     1      24.675   2.772  51.501  1.00  0.00     0.135 A 
HETATM   16  N6  UNL     1      25.630   3.516  51.045  1.00  0.00    -0.049 NA
ENDROOT
BRANCH  14  17
HETATM   17  C11 UNL     1      25.960   2.433  53.734  1.00  0.00     0.168 C 
BRANCH  17  18
HETATM   18  C12 UNL     1      26.945   1.324  53.649  1.00  0.00    -0.038 A 
HETATM   19  C13 UNL     1      28.241   1.394  54.120  1.00  0.00     0.010 A 
HETATM   20  C14 UNL     1      29.028   0.271  53.962  1.00  0.00     0.026 A 
HETATM   21  C15 UNL     1      28.562  -0.865  53.369  1.00  0.00     0.055 A 
HETATM   22 CL1  UNL     1      29.601  -2.273  53.188  1.00  0.00    -0.083 Cl
HETATM   23  C16 UNL     1      27.266  -0.963  52.886  1.00  0.00     0.056 A 
HETATM   24 CL2  UNL     1      26.646  -2.404  52.124  1.00  0.00    -0.083 Cl
HETATM   25  C17 UNL     1      26.490   0.161  53.048  1.00  0.00     0.034 A 
ENDBRANCH  17  18
ENDBRANCH  14  17
BRANCH   1  26
HETATM   26  N1  UNL     1      27.179   4.327  49.324  1.00  0.00    -0.231 N 
HETATM   27  H1  UNL     1      27.535   3.330  49.311  1.00  0.00     0.174 HD
HETATM   28  H2  UNL     1      27.971   4.926  48.975  1.00  0.00     0.174 HD
ENDBRANCH   1  26
BRANCH   3  29
HETATM   29  N3  UNL     1      23.276   6.031  49.978  1.00  0.00     0.134 N 
HETATM   30  H4  UNL     1      23.976   6.011  50.777  1.00  0.00     0.318 HD
HETATM   31  H5  UNL     1      23.261   6.973  49.529  1.00  0.00     0.318 HD
ENDBRANCH   3  29
TORSDOF 4
ENDMDL
MODEL 4
REMARK VINA RESULT:      -8.1      3.947      6.893
REMARK  4 active torsions:
REMARK  status: ('A' for Active; 'I' for Inactive)
REMARK    1  A    between atoms: N1_1  and  C1_2 
REMARK    2  A    between atoms: C2_4  and  N3_5 
REMARK    3  A    between atoms: N5_16  and  C11_17 
REMARK    4  A    between atoms: C11_17  and  C12_18 
ROOT
HETATM    1  C1  UNL     1      25.807   4.384  49.734  1.00  0.00     0.721 C 
HETATM    2  N2  UNL     1      25.100   5.158  49.016  1.00  0.00    -0.038 NA
HETATM    3  C2  UNL     1      23.744   5.618  48.935  1.00  0.00     0.591 C 
HETATM    4  N4  UNL     1      22.731   4.621  49.000  1.00  0.00     0.152 N 
HETATM    5  C3  UNL     1      21.536   5.196  48.360  1.00  0.00     0.306 C 
HETATM    6  C4  UNL     1      20.481   4.157  48.195  1.00  0.00     0.018 C 
HETATM    7  C5  UNL     1      20.185   3.634  49.381  1.00  0.00    -0.011 C 
HETATM    8 BR1  UNL     1      18.849   2.278  49.373  1.00  0.00    -0.056 Br
HETATM    9  C6  UNL     1      20.911   4.144  50.579  1.00  0.00     0.083 C 
HETATM   10  C7  UNL     1      22.419   4.154  50.335  1.00  0.00     0.248 C 
HETATM   11  C8  UNL     1      23.003   2.794  50.564  1.00  0.00     0.114 A 
HETATM   12  C9  UNL     1      22.274   1.967  51.536  1.00  0.00     0.005 A 
HETATM   13  C10 UNL     1      23.059   1.700  52.592  1.00  0.00     0.089 A 
HETATM   14  N5  UNL     1      24.358   2.296  52.456  1.00  0.00    -0.340 N 
HETATM   15  C18 UNL     1      24.331   2.976  51.205  1.00  0.00     0.135 A 
HETATM   16  N6  UNL     1      25.415   3.598  50.871  1.00  0.00    -0.049 NA
ENDROOT
BRANCH  14  17
HETATM   17  C11 UNL     1      25.426   2.190  53.427  1.00  0.00     0.168 C 
BRANCH  17  18
HETATM   18  C12 UNL     1      26.188   0.924  53.284  1.00  0.00    -0.038 A 
HETATM   19  C13 UNL     1      25.626  -0.292  52.949  1.00  0.00     0.010 A 
HETATM   20  C14 UNL     1      26.478  -1.375  52.857  1.00  0.00     0.026 A 
HETATM   21  C15 UNL     1      27.818  -1.265  53.083  1.00  0.00     0.055 A 
HETATM   22 CL1  UNL     1      28.867  -2.671  52.953  1.00  0.00    -0.083 Cl
HETATM   23  C16 UNL     1      28.410  -0.057  53.420  1.00  0.00     0.056 A 
HETATM   24 CL2  UNL     1      30.121   0.110  53.713  1.00  0.00    -0.083 Cl
HETATM   25  C17 UNL     1      27.553   1.015  53.509  1.00  0.00     0.034 A 
ENDBRANCH  17  18
ENDBRANCH  14  17
BRANCH   1  26
HETATM   26  N1  UNL     1      27.163   4.324  49.310  1.00  0.00    -0.231 N 
HETATM   27  H1  UNL     1      27.484   3.355  49.594  1.00  0.00     0.174 HD
HETATM   28  H2  UNL     1      27.991   4.784  48.851  1.00  0.00     0.174 HD
ENDBRANCH   1  26
BRANCH   3  29
HETATM   29  N3  UNL     1      23.554   6.568  50.021  1.00  0.00     0.134 N 
HETATM   30  H4  UNL     1      23.735   6.109  50.963  1.00  0.00     0.318 HD
HETATM   31  H5  UNL     1      24.176   7.395  49.893  1.00  0.00     0.318 HD
ENDBRANCH   3  29
TORSDOF 4
ENDMDL
MODEL 5
REMARK VINA RESULT:      -8.0      4.498      7.356
REMARK  4 active torsions:
REMARK  status: ('A' for Active; 'I' for Inactive)
REMARK    1  A    between atoms: N1_1  and  C1_2 
REMARK    2  A    between atoms: C2_4  and  N3_5 
REMARK    3  A    between atoms: N5_16  and  C11_17 
REMARK    4  A    between atoms: C11_17  and  C12_18 
ROOT
HETATM    1  C1  UNL     1      26.367   6.930  49.574  1.00  0.00     0.721 C 
HETATM    2  N2  UNL     1      25.579   7.909  49.761  1.00  0.00    -0.038 NA
HETATM    3  C2  UNL     1      24.214   8.141  50.139  1.00  0.00     0.591 C 
HETATM    4  N4  UNL     1      23.228   7.371  49.461  1.00  0.00     0.152 N 
HETATM    5  C3  UNL     1      21.966   8.120  49.568  1.00  0.00     0.306 C 
HETATM    6  C4  UNL     1      20.915   7.497  48.715  1.00  0.00     0.018 C 
HETATM    7  C5  UNL     1      20.750   6.227  49.073  1.00  0.00    -0.011 C 
HETATM    8 BR1  UNL     1      19.441   5.258  48.089  1.00  0.00    -0.056 Br
HETATM    9  C6  UNL     1      21.588   5.692  50.184  1.00  0.00     0.083 C 
HETATM   10  C7  UNL     1      23.062   6.020  49.956  1.00  0.00     0.248 C 
HETATM   11  C8  UNL     1      23.687   5.036  49.015  1.00  0.00     0.114 A 
HETATM   12  C9  UNL     1      23.074   3.701  49.025  1.00  0.00     0.005 A 
HETATM   13  C10 UNL     1      23.968   2.789  49.441  1.00  0.00     0.089 A 
HETATM   14  N5  UNL     1      25.237   3.386  49.748  1.00  0.00    -0.340 N 
HETATM   15  C18 UNL     1      25.071   4.776  49.489  1.00  0.00     0.135 A 
HETATM   16  N6  UNL     1      26.106   5.523  49.702  1.00  0.00    -0.049 NA
ENDROOT
BRANCH  14  17
HETATM   17  C11 UNL     1      26.400   2.666  50.219  1.00  0.00     0.168 C 
BRANCH  17  18
HETATM   18  C12 UNL     1      26.134   1.940  51.487  1.00  0.00    -0.038 A 
HETATM   19  C13 UNL     1      25.534   2.502  52.596  1.00  0.00     0.010 A 
HETATM   20  C14 UNL     1      25.359   1.687  53.697  1.00  0.00     0.026 A 
HETATM   21  C15 UNL     1      25.756   0.382  53.704  1.00  0.00     0.055 A 
HETATM   22 CL1  UNL     1      25.513  -0.620  55.130  1.00  0.00    -0.083 Cl
HETATM   23  C16 UNL     1      26.361  -0.208  52.606  1.00  0.00     0.056 A 
HETATM   24 CL2  UNL     1      26.877  -1.874  52.590  1.00  0.00    -0.083 Cl
HETATM   25  C17 UNL     1      26.531   0.613  51.514  1.00  0.00     0.034 A 
ENDBRANCH  17  18
ENDBRANCH  14  17
BRANCH   1  26
HETATM   26  N1  UNL     1      27.673   7.339  49.188  1.00  0.00    -0.231 N 
HETATM   27  H1  UNL     1      28.315   6.843  49.868  1.00  0.00     0.174 HD
HETATM   28  H2  UNL     1      28.296   7.897  48.549  1.00  0.00     0.174 HD
ENDBRANCH   1  26
BRANCH   3  29
HETATM   29  N3  UNL     1      24.124   7.888  51.569  1.00  0.00     0.134 N 
HETATM   30  H4  UNL     1      23.860   8.772  52.096  1.00  0.00     0.318 HD
HETATM   31  H5  UNL     1      23.434   7.130  51.761  1.00  0.00     0.318 HD
ENDBRANCH   3  29
TORSDOF 4
ENDMDL
MODEL 6
REMARK VINA RESULT:      -8.0      4.944      8.108
REMARK  4 active torsions:
REMARK  status: ('A' for Active; 'I' for Inactive)
REMARK    1  A    between atoms: N1_1  and  C1_2 
REMARK    2  A    between atoms: C2_4  and  N3_5 
REMARK    3  A    between atoms: N5_16  and  C11_17 
REMARK    4  A    between atoms: C11_17  and  C12_18 
ROOT
HETATM    1  C1  UNL     1      25.196   7.338  50.194  1.00  0.00     0.721 C 
HETATM    2  N2  UNL     1      24.687   8.178  49.388  1.00  0.00    -0.038 NA
HETATM    3  C2  UNL     1      23.535   8.304  48.542  1.00  0.00     0.591 C 
HETATM    4  N4  UNL     1      23.244   7.196  47.698  1.00  0.00     0.152 N 
HETATM    5  C3  UNL     1      22.439   7.721  46.582  1.00  0.00     0.306 C 
HETATM    6  C4  UNL     1      22.255   6.676  45.536  1.00  0.00     0.018 C 
HETATM    7  C5  UNL     1      21.684   5.604  46.077  1.00  0.00    -0.011 C 
HETATM    8 BR1  UNL     1      21.366   4.153  44.887  1.00  0.00    -0.056 Br
HETATM    9  C6  UNL     1      21.355   5.636  47.530  1.00  0.00     0.083 C 
HETATM   10  C7  UNL     1      22.560   6.097  48.347  1.00  0.00     0.248 C 
HETATM   11  C8  UNL     1      23.506   4.961  48.590  1.00  0.00     0.114 A 
HETATM   12  C9  UNL     1      22.876   3.633  48.622  1.00  0.00     0.005 A 
HETATM   13  C10 UNL     1      23.029   3.084  49.838  1.00  0.00     0.089 A 
HETATM   14  N5  UNL     1      23.751   3.947  50.728  1.00  0.00    -0.340 N 
HETATM   15  C18 UNL     1      24.048   5.112  49.964  1.00  0.00     0.135 A 
HETATM   16  N6  UNL     1      24.705   6.043  50.577  1.00  0.00    -0.049 NA
ENDROOT
BRANCH  14  17
HETATM   17  C11 UNL     1      24.075   3.637  52.104  1.00  0.00     0.168 C 
BRANCH  17  18
HETATM   18  C12 UNL     1      24.916   2.419  52.220  1.00  0.00    -0.038 A 
HETATM   19  C13 UNL     1      26.071   2.196  51.498  1.00  0.00     0.010 A 
HETATM   20  C14 UNL     1      26.736   1.008  51.726  1.00  0.00     0.026 A 
HETATM   21  C15 UNL     1      26.286   0.085  52.622  1.00  0.00     0.055 A 
HETATM   22 CL1  UNL     1      27.166  -1.416  52.881  1.00  0.00    -0.083 Cl
HETATM   23  C16 UNL     1      25.129   0.281  53.361  1.00  0.00     0.056 A 
HETATM   24 CL2  UNL     1      24.532  -0.884  54.513  1.00  0.00    -0.083 Cl
HETATM   25  C17 UNL     1      24.474   1.468  53.126  1.00  0.00     0.034 A 
ENDBRANCH  17  18
ENDBRANCH  14  17
BRANCH   1  26
HETATM   26  N1  UNL     1      26.416   7.791  50.766  1.00  0.00    -0.231 N 
HETATM   27  H1  UNL     1      27.045   7.973  49.934  1.00  0.00     0.174 HD
HETATM   28  H2  UNL     1      26.984   8.028  51.620  1.00  0.00     0.174 HD
ENDBRANCH   1  26
BRANCH   3  29
HETATM   29  N3  UNL     1      22.398   8.558  49.413  1.00  0.00     0.134 N 
HETATM   30  H4  UNL     1      22.673   9.188  50.224  1.00  0.00     0.318 HD
HETATM   31  H5  UNL     1      21.614   8.982  48.872  1.00  0.00     0.318 HD
ENDBRANCH   3  29
TORSDOF 4
ENDMDL
MODEL 7
REMARK VINA RESULT:      -7.9      2.504      3.838
REMARK  4 active torsions:
REMARK  status: ('A' for Active; 'I' for Inactive)
REMARK    1  A    between atoms: N1_1  and  C1_2 
REMARK    2  A    between atoms: C2_4  and  N3_5 
REMARK    3  A    between atoms: N5_16  and  C11_17 
REMARK    4  A    between atoms: C11_17  and  C12_18 
ROOT
HETATM    1  C1  UNL     1      22.138   1.455  50.038  1.00  0.00     0.721 C 
HETATM    2  N2  UNL     1      21.864   0.723  51.039  1.00  0.00    -0.038 NA
HETATM    3  C2  UNL     1      22.336   0.497  52.375  1.00  0.00     0.591 C 
HETATM    4  N4  UNL     1      23.740   0.324  52.531  1.00  0.00     0.152 N 
HETATM    5  C3  UNL     1      23.933  -0.419  53.787  1.00  0.00     0.306 C 
HETATM    6  C4  UNL     1      25.358  -0.828  53.937  1.00  0.00     0.018 C 
HETATM    7  C5  UNL     1      26.135   0.250  53.893  1.00  0.00    -0.011 C 
HETATM    8 BR1  UNL     1      28.002  -0.074  54.069  1.00  0.00    -0.056 Br
HETATM    9  C6  UNL     1      25.488   1.580  53.714  1.00  0.00     0.083 C 
HETATM   10  C7  UNL     1      24.508   1.552  52.541  1.00  0.00     0.248 C 
HETATM   11  C8  UNL     1      25.230   1.730  51.241  1.00  0.00     0.114 A 
HETATM   12  C9  UNL     1      26.474   2.507  51.330  1.00  0.00     0.005 A 
HETATM   13  C10 UNL     1      26.364   3.633  50.605  1.00  0.00     0.089 A 
HETATM   14  N5  UNL     1      25.081   3.737  49.971  1.00  0.00    -0.340 N 
HETATM   15  C18 UNL     1      24.372   2.565  50.361  1.00  0.00     0.135 A 
HETATM   16  N6  UNL     1      23.169   2.447  49.899  1.00  0.00    -0.049 NA
ENDROOT
BRANCH  14  17
HETATM   17  C11 UNL     1      24.659   4.833  49.126  1.00  0.00     0.168 C 
BRANCH  17  18
HETATM   18  C12 UNL     1      25.538   6.021  49.270  1.00  0.00    -0.038 A 
HETATM   19  C13 UNL     1      25.328   7.042  50.176  1.00  0.00     0.010 A 
HETATM   20  C14 UNL     1      26.243   8.077  50.180  1.00  0.00     0.026 A 
HETATM   21  C15 UNL     1      27.312   8.104  49.335  1.00  0.00     0.055 A 
HETATM   22 CL1  UNL     1      28.453   9.442  49.376  1.00  0.00    -0.083 Cl
HETATM   23  C16 UNL     1      27.547   7.093  48.415  1.00  0.00     0.056 A 
HETATM   24 CL2  UNL     1      28.907   7.105  47.323  1.00  0.00    -0.083 Cl
HETATM   25  C17 UNL     1      26.630   6.068  48.418  1.00  0.00     0.034 A 
ENDBRANCH  17  18
ENDBRANCH  14  17
BRANCH   1  26
HETATM   26  N1  UNL     1      21.278   1.221  48.931  1.00  0.00    -0.231 N 
HETATM   27  H1  UNL     1      21.872   1.448  48.084  1.00  0.00     0.174 HD
HETATM   28  H2  UNL     1      20.336   0.932  48.559  1.00  0.00     0.174 HD
ENDBRANCH   1  26
BRANCH   3  29
HETATM   29  N3  UNL     1      21.899   1.631  53.175  1.00  0.00     0.134 N 
HETATM   30  H4  UNL     1      22.378   2.525  52.859  1.00  0.00     0.318 HD
HETATM   31  H5  UNL     1      20.863   1.734  53.123  1.00  0.00     0.318 HD
ENDBRANCH   3  29
TORSDOF 4
ENDMDL
MODEL 8
REMARK VINA RESULT:      -7.8      5.369      8.814
REMARK  4 active torsions:
REMARK  status: ('A' for Active; 'I' for Inactive)
REMARK    1  A    between atoms: N1_1  and  C1_2 
REMARK    2  A    between atoms: C2_4  and  N3_5 
REMARK    3  A    between atoms: N5_16  and  C11_17 
REMARK    4  A    between atoms: C11_17  and  C12_18 
ROOT
HETATM    1  C1  UNL     1      30.992   5.367  47.840  1.00  0.00     0.721 C 
HETATM    2  N2  UNL     1      31.714   6.394  48.033  1.00  0.00    -0.038 NA
HETATM    3  C2  UNL     1      31.597   7.707  48.601  1.00  0.00     0.591 C 
HETATM    4  N4  UNL     1      30.470   8.475  48.196  1.00  0.00     0.152 N 
HETATM    5  C3  UNL     1      30.825   9.887  48.418  1.00  0.00     0.306 C 
HETATM    6  C4  UNL     1      29.788  10.783  47.834  1.00  0.00     0.018 C 
HETATM    7  C5  UNL     1      28.604  10.497  48.367  1.00  0.00    -0.011 C 
HETATM    8 BR1  UNL     1      27.144  11.544  47.741  1.00  0.00    -0.056 Br
HETATM    9  C6  UNL     1      28.531   9.407  49.381  1.00  0.00     0.083 C 
HETATM   10  C7  UNL     1      29.233   8.148  48.873  1.00  0.00     0.248 C 
HETATM   11  C8  UNL     1      28.331   7.364  47.970  1.00  0.00     0.114 A 
HETATM   12  C9  UNL     1      26.896   7.521  48.246  1.00  0.00     0.005 A 
HETATM   13  C10 UNL     1      26.369   6.343  48.617  1.00  0.00     0.089 A 
HETATM   14  N5  UNL     1      27.353   5.298  48.633  1.00  0.00    -0.340 N 
HETATM   15  C18 UNL     1      28.571   5.922  48.236  1.00  0.00     0.135 A 
HETATM   16  N6  UNL     1      29.612   5.156  48.181  1.00  0.00    -0.049 NA
ENDROOT
BRANCH  14  17
HETATM   17  C11 UNL     1      27.095   3.920  48.990  1.00  0.00     0.168 C 
BRANCH  17  18
HETATM   18  C12 UNL     1      25.782   3.753  49.663  1.00  0.00    -0.038 A 
HETATM   19  C13 UNL     1      24.560   3.961  49.054  1.00  0.00     0.010 A 
HETATM   20  C14 UNL     1      23.432   3.761  49.823  1.00  0.00     0.026 A 
HETATM   21  C15 UNL     1      23.503   3.375  51.129  1.00  0.00     0.055 A 
HETATM   22 CL1  UNL     1      22.038   3.132  52.073  1.00  0.00    -0.083 Cl
HETATM   23  C16 UNL     1      24.715   3.160  51.767  1.00  0.00     0.056 A 
HETATM   24 CL2  UNL     1      24.833   2.666  53.436  1.00  0.00    -0.083 Cl
HETATM   25  C17 UNL     1      25.834   3.362  50.992  1.00  0.00     0.034 A 
ENDBRANCH  17  18
ENDBRANCH  14  17
BRANCH   1  26
HETATM   26  N1  UNL     1      31.693   4.312  47.195  1.00  0.00    -0.231 N 
HETATM   27  H1  UNL     1      30.984   3.894  46.529  1.00  0.00     0.174 HD
HETATM   28  H2  UNL     1      32.578   3.756  47.068  1.00  0.00     0.174 HD
ENDBRANCH   1  26
BRANCH   3  29
HETATM   29  N3  UNL     1      31.572   7.541  50.046  1.00  0.00     0.134 N 
HETATM   30  H4  UNL     1      32.413   6.982  50.379  1.00  0.00     0.318 HD
HETATM   31  H5  UNL     1      31.541   8.470  50.518  1.00  0.00     0.318 HD
ENDBRANCH   3  29
TORSDOF 4
ENDMDL
MODEL 9
REMARK VINA RESULT:      -7.7     16.734     19.665
REMARK  4 active torsions:
REMARK  status: ('A' for Active; 'I' for Inactive)
REMARK    1  A    between atoms: N1_1  and  C1_2 
REMARK    2  A    between atoms: C2_4  and  N3_5 
REMARK    3  A    between atoms: N5_16  and  C11_17 
REMARK    4  A    between atoms: C11_17  and  C12_18 
ROOT
HETATM    1  C1  UNL     1      39.548   7.744  52.921  1.00  0.00     0.721 C 
HETATM    2  N2  UNL     1      39.436   8.310  51.790  1.00  0.00    -0.038 NA
HETATM    3  C2  UNL     1      40.257   8.646  50.662  1.00  0.00     0.591 C 
HETATM    4  N4  UNL     1      41.497   9.283  50.948  1.00  0.00     0.152 N 
HETATM    5  C3  UNL     1      41.883  10.012  49.729  1.00  0.00     0.306 C 
HETATM    6  C4  UNL     1      43.066  10.879  49.992  1.00  0.00     0.018 C 
HETATM    7  C5  UNL     1      44.070  10.133  50.444  1.00  0.00    -0.011 C 
HETATM    8 BR1  UNL     1      45.679  11.070  50.840  1.00  0.00    -0.056 Br
HETATM    9  C6  UNL     1      43.848   8.667  50.596  1.00  0.00     0.083 C 
HETATM   10  C7  UNL     1      42.558   8.392  51.368  1.00  0.00     0.248 C 
HETATM   11  C8  UNL     1      42.787   8.508  52.844  1.00  0.00     0.114 A 
HETATM   12  C9  UNL     1      44.157   8.201  53.280  1.00  0.00     0.005 A 
HETATM   13  C10 UNL     1      44.151   7.127  54.086  1.00  0.00     0.089 A 
HETATM   14  N5  UNL     1      42.826   6.608  54.276  1.00  0.00    -0.340 N 
HETATM   15  C18 UNL     1      41.976   7.456  53.509  1.00  0.00     0.135 A 
HETATM   16  N6  UNL     1      40.715   7.169  53.532  1.00  0.00    -0.049 NA
ENDROOT
BRANCH  14  17
HETATM   17  C11 UNL     1      42.494   5.458  55.089  1.00  0.00     0.168 C 
BRANCH  17  18
HETATM   18  C12 UNL     1      43.640   5.011  55.921  1.00  0.00    -0.038 A 
HETATM   19  C13 UNL     1      44.399   3.887  55.664  1.00  0.00     0.010 A 
HETATM   20  C14 UNL     1      45.431   3.612  56.539  1.00  0.00     0.026 A 
HETATM   21  C15 UNL     1      45.702   4.406  57.614  1.00  0.00     0.055 A 
HETATM   22 CL1  UNL     1      47.029   4.017  58.702  1.00  0.00    -0.083 Cl
HETATM   23  C16 UNL     1      44.957   5.540  57.896  1.00  0.00     0.056 A 
HETATM   24 CL2  UNL     1      45.284   6.571  59.265  1.00  0.00    -0.083 Cl
HETATM   25  C17 UNL     1      43.931   5.805  57.019  1.00  0.00     0.034 A 
ENDBRANCH  17  18
ENDBRANCH  14  17
BRANCH   1  26
HETATM   26  N1  UNL     1      38.323   7.701  53.641  1.00  0.00    -0.231 N 
HETATM   27  H1  UNL     1      38.617   7.698  54.659  1.00  0.00     0.174 HD
HETATM   28  H2  UNL     1      37.271   7.670  53.640  1.00  0.00     0.174 HD
ENDBRANCH   1  26
BRANCH   3  29
HETATM   29  N3  UNL     1      40.508   7.408  49.939  1.00  0.00     0.134 N 
HETATM   30  H4  UNL     1      39.762   6.683  50.157  1.00  0.00     0.318 HD
HETATM   31  H5  UNL     1      40.552   7.589  48.913  1.00  0.00     0.318 HD
ENDBRANCH   3  29
TORSDOF 4
ENDMDL
