MODEL 1
REMARK VINA RESULT:      -8.7      0.000      0.000
REMARK  3 active torsions:
REMARK  status: ('A' for Active; 'I' for Inactive)
REMARK    1  A    between atoms: C2_3  and  C3_4 
REMARK    2  A    between atoms: C4_5  and  C5_6 
REMARK    3  A    between atoms: C5_6  and  C6_7 
ROOT
HETATM    1 CL1  UNL     1      17.123  -1.591  53.113  1.00  0.00    -0.023 Cl
HETATM    2  C1  UNL     1      18.823  -1.382  53.477  1.00  0.00     0.009 C 
HETATM    3  C2  UNL     1      20.019  -1.252  53.722  1.00  0.00    -0.062 C 
ENDROOT
BRANCH   3   4
HETATM    4  C3  UNL     1      21.413  -1.095  54.009  1.00  0.00     0.061 C 
HETATM    5  C4  UNL     1      22.017  -0.046  53.458  1.00  0.00    -0.016 C 
BRANCH   5   6
HETATM    6  C5  UNL     1      23.384   0.601  53.400  1.00  0.00     0.063 C 
BRANCH   6   7
HETATM    7  C6  UNL     1      24.426  -0.358  52.992  1.00  0.00     0.231 C 
HETATM    8  N1  UNL     1      25.643   0.195  52.362  1.00  0.00     0.098 N 
HETATM    9  C7  UNL     1      26.247  -1.049  52.734  1.00  0.00     0.257 C 
HETATM   10  H6  UNL     1      25.516   0.340  51.330  1.00  0.00     0.317 HD
HETATM   11  C8  UNL     1      27.703  -1.040  52.938  1.00  0.00    -0.038 A 
HETATM   12  C18 UNL     1      25.341  -0.997  53.967  1.00  0.00     0.057 C 
HETATM   13  C9  UNL     1      28.736  -1.945  53.161  1.00  0.00     0.003 A 
HETATM   14  C13 UNL     1      28.404   0.077  53.262  1.00  0.00     0.062 A 
HETATM   15  C10 UNL     1      29.919  -1.289  53.592  1.00  0.00    -0.010 A 
HETATM   16  C11 UNL     1      29.599   0.010  53.623  1.00  0.00     0.029 A 
HETATM   17  C12 UNL     1      29.258   1.286  53.644  1.00  0.00    -0.051 A 
HETATM   18  O2  UNL     1      28.991   1.331  53.757  1.00  0.00     0.000 OA
HETATM   19  O1  UNL     1      28.866   2.758  53.669  1.00  0.00     0.000 OA
HETATM   20  C14 UNL     1      27.379   2.432  53.814  1.00  0.00     0.012 C 
HETATM   21  C15 UNL     1      27.586   1.027  54.402  1.00  0.00    -0.016 C 
HETATM   22  C16 UNL     1      27.286  -0.135  54.979  1.00  0.00     0.001 C 
HETATM   23  C17 UNL     1      25.852   0.006  55.082  1.00  0.00     0.015 C 
ENDBRANCH   6   7
ENDBRANCH   5   6
ENDBRANCH   3   4
TORSDOF 3
ENDMDL
MODEL 2
REMARK VINA RESULT:      -7.7      5.101      7.040
REMARK  3 active torsions:
REMARK  status: ('A' for Active; 'I' for Inactive)
REMARK    1  A    between atoms: C2_3  and  C3_4 
REMARK    2  A    between atoms: C4_5  and  C5_6 
REMARK    3  A    between atoms: C5_6  and  C6_7 
ROOT
HETATM    1 CL1  UNL     1      30.039  -0.100  53.451  1.00  0.00    -0.023 Cl
HETATM    2  C1  UNL     1      28.289  -0.140  53.512  1.00  0.00     0.009 C 
HETATM    3  C2  UNL     1      27.062  -0.174  53.536  1.00  0.00    -0.062 C 
ENDROOT
BRANCH   3   4
HETATM    4  C3  UNL     1      25.631  -0.214  53.570  1.00  0.00     0.061 C 
HETATM    5  C4  UNL     1      24.995   0.665  52.801  1.00  0.00    -0.016 C 
BRANCH   5   6
HETATM    6  C5  UNL     1      23.584   1.077  52.441  1.00  0.00     0.063 C 
BRANCH   6   7
HETATM    7  C6  UNL     1      23.421   2.541  52.457  1.00  0.00     0.231 C 
HETATM    8  N1  UNL     1      24.637   3.358  52.268  1.00  0.00     0.098 N 
HETATM    9  C7  UNL     1      23.726   4.402  51.904  1.00  0.00     0.257 C 
HETATM   10  H6  UNL     1      25.151   3.507  53.171  1.00  0.00     0.317 HD
HETATM   11  C8  UNL     1      24.242   5.443  51.003  1.00  0.00    -0.038 A 
HETATM   12  C18 UNL     1      22.860   3.289  51.308  1.00  0.00     0.057 C 
HETATM   13  C9  UNL     1      23.844   6.669  50.480  1.00  0.00     0.003 A 
HETATM   14  C13 UNL     1      25.283   5.245  50.154  1.00  0.00     0.062 A 
HETATM   15  C10 UNL     1      24.667   7.065  49.394  1.00  0.00    -0.010 A 
HETATM   16  C11 UNL     1      25.563   6.080  49.266  1.00  0.00     0.029 A 
HETATM   17  C12 UNL     1      26.437   5.094  49.161  1.00  0.00    -0.051 A 
HETATM   18  O2  UNL     1      26.313   4.829  49.190  1.00  0.00     0.000 OA
HETATM   19  O1  UNL     1      27.444   3.958  49.039  1.00  0.00     0.000 OA
HETATM   20  C14 UNL     1      26.509   2.961  49.726  1.00  0.00     0.012 C 
HETATM   21  C15 UNL     1      25.213   3.724  49.410  1.00  0.00    -0.016 C 
HETATM   22  C16 UNL     1      23.908   3.966  49.309  1.00  0.00     0.001 C 
HETATM   23  C17 UNL     1      23.387   2.760  49.910  1.00  0.00     0.015 C 
ENDBRANCH   6   7
ENDBRANCH   5   6
ENDBRANCH   3   4
TORSDOF 3
ENDMDL
MODEL 3
REMARK VINA RESULT:      -7.3      4.694      7.905
REMARK  3 active torsions:
REMARK  status: ('A' for Active; 'I' for Inactive)
REMARK    1  A    between atoms: C2_3  and  C3_4 
REMARK    2  A    between atoms: C4_5  and  C5_6 
REMARK    3  A    between atoms: C5_6  and  C6_7 
ROOT
HETATM    1 CL1  UNL     1      30.177  -1.109  53.810  1.00  0.00    -0.023 Cl
HETATM    2  C1  UNL     1      28.583  -0.398  53.951  1.00  0.00     0.009 C 
HETATM    3  C2  UNL     1      27.467   0.099  54.070  1.00  0.00    -0.062 C 
ENDROOT
BRANCH   3   4
HETATM    4  C3  UNL     1      26.165   0.681  54.202  1.00  0.00     0.061 C 
HETATM    5  C4  UNL     1      25.890   1.707  53.403  1.00  0.00    -0.016 C 
BRANCH   5   6
HETATM    6  C5  UNL     1      24.760   2.667  53.102  1.00  0.00     0.063 C 
BRANCH   6   7
HETATM    7  C6  UNL     1      24.071   2.323  51.846  1.00  0.00     0.231 C 
HETATM    8  N1  UNL     1      23.314   1.055  51.816  1.00  0.00     0.098 N 
HETATM    9  C7  UNL     1      22.626   1.638  50.703  1.00  0.00     0.257 C 
HETATM   10  H6  UNL     1      23.931   0.238  51.582  1.00  0.00     0.317 HD
HETATM   11  C8  UNL     1      21.259   1.160  50.449  1.00  0.00    -0.038 A 
HETATM   12  C18 UNL     1      22.804   2.972  51.432  1.00  0.00     0.057 C 
HETATM   13  C9  UNL     1      20.265   1.289  49.484  1.00  0.00     0.003 A 
HETATM   14  C13 UNL     1      20.471   0.609  51.408  1.00  0.00     0.062 A 
HETATM   15  C10 UNL     1      19.013   0.818  49.958  1.00  0.00    -0.010 A 
HETATM   16  C11 UNL     1      19.255   0.401  51.207  1.00  0.00     0.029 A 
HETATM   17  C12 UNL     1      19.520  -0.005  52.436  1.00  0.00    -0.051 A 
HETATM   18  O2  UNL     1      19.695   0.181  52.581  1.00  0.00     0.000 OA
HETATM   19  O1  UNL     1      19.824  -0.472  53.853  1.00  0.00     0.000 OA
HETATM   20  C14 UNL     1      21.050   0.434  53.964  1.00  0.00     0.012 C 
HETATM   21  C15 UNL     1      20.603   1.431  52.884  1.00  0.00    -0.016 C 
HETATM   22  C16 UNL     1      20.599   2.532  52.135  1.00  0.00     0.001 C 
HETATM   23  C17 UNL     1      21.793   3.174  52.635  1.00  0.00     0.015 C 
ENDBRANCH   6   7
ENDBRANCH   5   6
ENDBRANCH   3   4
TORSDOF 3
ENDMDL
MODEL 4
REMARK VINA RESULT:      -7.3      4.849      8.446
REMARK  3 active torsions:
REMARK  status: ('A' for Active; 'I' for Inactive)
REMARK    1  A    between atoms: C2_3  and  C3_4 
REMARK    2  A    between atoms: C4_5  and  C5_6 
REMARK    3  A    between atoms: C5_6  and  C6_7 
ROOT
HETATM    1 CL1  UNL     1      29.901  -1.114  53.829  1.00  0.00    -0.023 Cl
HETATM    2  C1  UNL     1      28.275  -0.758  53.287  1.00  0.00     0.009 C 
HETATM    3  C2  UNL     1      27.127  -0.521  52.921  1.00  0.00    -0.062 C 
ENDROOT
BRANCH   3   4
HETATM    4  C3  UNL     1      25.790  -0.240  52.491  1.00  0.00     0.061 C 
HETATM    5  C4  UNL     1      25.177   0.777  53.089  1.00  0.00    -0.016 C 
BRANCH   5   6
HETATM    6  C5  UNL     1      23.849   1.502  53.061  1.00  0.00     0.063 C 
BRANCH   6   7
HETATM    7  C6  UNL     1      22.717   0.576  53.235  1.00  0.00     0.231 C 
HETATM    8  N1  UNL     1      21.412   1.167  53.599  1.00  0.00     0.098 N 
HETATM    9  C7  UNL     1      20.861  -0.059  53.101  1.00  0.00     0.257 C 
HETATM   10  H6  UNL     1      21.323   1.308  54.635  1.00  0.00     0.317 HD
HETATM   11  C8  UNL     1      19.482  -0.005  52.596  1.00  0.00    -0.038 A 
HETATM   12  C18 UNL     1      22.008  -0.035  52.086  1.00  0.00     0.057 C 
HETATM   13  C9  UNL     1      18.492  -0.877  52.155  1.00  0.00     0.003 A 
HETATM   14  C13 UNL     1      18.899   1.133  52.138  1.00  0.00     0.062 A 
HETATM   15  C10 UNL     1      17.446  -0.186  51.489  1.00  0.00    -0.010 A 
HETATM   16  C11 UNL     1      17.805   1.103  51.534  1.00  0.00     0.029 A 
HETATM   17  C12 UNL     1      18.181   2.368  51.593  1.00  0.00    -0.051 A 
HETATM   18  O2  UNL     1      18.467   2.404  51.538  1.00  0.00     0.000 OA
HETATM   19  O1  UNL     1      18.614   3.827  51.660  1.00  0.00     0.000 OA
HETATM   20  C14 UNL     1      20.087   3.455  51.828  1.00  0.00     0.012 C 
HETATM   21  C15 UNL     1      19.966   2.057  51.202  1.00  0.00    -0.016 C 
HETATM   22  C16 UNL     1      20.346   0.886  50.693  1.00  0.00     0.001 C 
HETATM   23  C17 UNL     1      21.773   0.982  50.894  1.00  0.00     0.015 C 
ENDBRANCH   6   7
ENDBRANCH   5   6
ENDBRANCH   3   4
TORSDOF 3
ENDMDL
MODEL 5
REMARK VINA RESULT:      -7.1      3.296      4.299
REMARK  3 active torsions:
REMARK  status: ('A' for Active; 'I' for Inactive)
REMARK    1  A    between atoms: C2_3  and  C3_4 
REMARK    2  A    between atoms: C4_5  and  C5_6 
REMARK    3  A    between atoms: C5_6  and  C6_7 
ROOT
HETATM    1 CL1  UNL     1      21.788   7.214  50.059  1.00  0.00    -0.023 Cl
HETATM    2  C1  UNL     1      21.851   5.549  50.598  1.00  0.00     0.009 C 
HETATM    3  C2  UNL     1      21.886   4.376  50.959  1.00  0.00    -0.062 C 
ENDROOT
BRANCH   3   4
HETATM    4  C3  UNL     1      21.930   3.010  51.384  1.00  0.00     0.061 C 
HETATM    5  C4  UNL     1      22.924   2.676  52.202  1.00  0.00    -0.016 C 
BRANCH   5   6
HETATM    6  C5  UNL     1      23.457   1.466  52.938  1.00  0.00     0.063 C 
BRANCH   6   7
HETATM    7  C6  UNL     1      24.699   1.774  53.668  1.00  0.00     0.231 C 
HETATM    8  N1  UNL     1      25.420   0.640  54.283  1.00  0.00     0.098 N 
HETATM    9  C7  UNL     1      26.550   1.520  54.278  1.00  0.00     0.257 C 
HETATM   10  H6  UNL     1      25.040   0.405  55.233  1.00  0.00     0.317 HD
HETATM   11  C8  UNL     1      27.877   0.889  54.239  1.00  0.00    -0.038 A 
HETATM   12  C18 UNL     1      25.973   2.078  52.975  1.00  0.00     0.057 C 
HETATM   13  C9  UNL     1      29.216   1.254  54.346  1.00  0.00     0.003 A 
HETATM   14  C13 UNL     1      28.096  -0.356  53.744  1.00  0.00     0.062 A 
HETATM   15  C10 UNL     1      30.076   0.213  53.907  1.00  0.00    -0.010 A 
HETATM   16  C11 UNL     1      29.256  -0.779  53.542  1.00  0.00     0.029 A 
HETATM   17  C12 UNL     1      28.425  -1.743  53.189  1.00  0.00    -0.051 A 
HETATM   18  O2  UNL     1      28.192  -1.644  53.039  1.00  0.00     0.000 OA
HETATM   19  O1  UNL     1      27.467  -2.855  52.781  1.00  0.00     0.000 OA
HETATM   20  C14 UNL     1      26.315  -1.876  52.553  1.00  0.00     0.012 C 
HETATM   21  C15 UNL     1      27.204  -0.642  52.332  1.00  0.00    -0.016 C 
HETATM   22  C16 UNL     1      27.539   0.606  52.010  1.00  0.00     0.001 C 
HETATM   23  C17 UNL     1      26.230   1.145  51.720  1.00  0.00     0.015 C 
ENDBRANCH   6   7
ENDBRANCH   5   6
ENDBRANCH   3   4
TORSDOF 3
ENDMDL
MODEL 6
REMARK VINA RESULT:      -7.1      6.041      8.467
REMARK  3 active torsions:
REMARK  status: ('A' for Active; 'I' for Inactive)
REMARK    1  A    between atoms: C2_3  and  C3_4 
REMARK    2  A    between atoms: C4_5  and  C5_6 
REMARK    3  A    between atoms: C5_6  and  C6_7 
ROOT
HETATM    1 CL1  UNL     1      29.662   9.799  48.603  1.00  0.00    -0.023 Cl
HETATM    2  C1  UNL     1      28.662   8.362  48.600  1.00  0.00     0.009 C 
HETATM    3  C2  UNL     1      27.947   7.364  48.584  1.00  0.00    -0.062 C 
ENDROOT
BRANCH   3   4
HETATM    4  C3  UNL     1      27.119   6.195  48.569  1.00  0.00     0.061 C 
HETATM    5  C4  UNL     1      25.995   6.256  49.276  1.00  0.00    -0.016 C 
BRANCH   5   6
HETATM    6  C5  UNL     1      24.799   5.396  49.620  1.00  0.00     0.063 C 
BRANCH   6   7
HETATM    7  C6  UNL     1      25.172   4.261  50.483  1.00  0.00     0.231 C 
HETATM    8  N1  UNL     1      24.407   4.086  51.735  1.00  0.00     0.098 N 
HETATM    9  C7  UNL     1      24.888   2.737  51.692  1.00  0.00     0.257 C 
HETATM   10  H6  UNL     1      24.796   4.674  52.514  1.00  0.00     0.317 HD
HETATM   11  C8  UNL     1      24.064   1.722  52.363  1.00  0.00    -0.038 A 
HETATM   12  C18 UNL     1      24.785   2.866  50.170  1.00  0.00     0.057 C 
HETATM   13  C9  UNL     1      24.135   0.377  52.711  1.00  0.00     0.003 A 
HETATM   14  C13 UNL     1      22.732   1.867  52.582  1.00  0.00     0.062 A 
HETATM   15  C10 UNL     1      22.864  -0.132  53.087  1.00  0.00    -0.010 A 
HETATM   16  C11 UNL     1      22.030   0.908  52.970  1.00  0.00     0.029 A 
HETATM   17  C12 UNL     1      21.229   1.951  52.848  1.00  0.00    -0.051 A 
HETATM   18  O2  UNL     1      21.281   2.107  52.605  1.00  0.00     0.000 OA
HETATM   19  O1  UNL     1      20.303   3.153  52.707  1.00  0.00     0.000 OA
HETATM   20  C14 UNL     1      21.235   3.842  51.711  1.00  0.00     0.012 C 
HETATM   21  C15 UNL     1      21.945   2.560  51.251  1.00  0.00    -0.016 C 
HETATM   22  C16 UNL     1      22.731   1.767  50.525  1.00  0.00     0.001 C 
HETATM   23  C17 UNL     1      23.302   2.743  49.626  1.00  0.00     0.015 C 
ENDBRANCH   6   7
ENDBRANCH   5   6
ENDBRANCH   3   4
TORSDOF 3
ENDMDL
MODEL 7
REMARK VINA RESULT:      -6.9      3.814      4.784
REMARK  3 active torsions:
REMARK  status: ('A' for Active; 'I' for Inactive)
REMARK    1  A    between atoms: C2_3  and  C3_4 
REMARK    2  A    between atoms: C4_5  and  C5_6 
REMARK    3  A    between atoms: C5_6  and  C6_7 
ROOT
HETATM    1 CL1  UNL     1      19.363   7.455  49.030  1.00  0.00    -0.023 Cl
HETATM    2  C1  UNL     1      20.586   6.570  49.916  1.00  0.00     0.009 C 
HETATM    3  C2  UNL     1      21.458   5.963  50.533  1.00  0.00    -0.062 C 
ENDROOT
BRANCH   3   4
HETATM    4  C3  UNL     1      22.470   5.252  51.255  1.00  0.00     0.061 C 
HETATM    5  C4  UNL     1      22.484   3.930  51.110  1.00  0.00    -0.016 C 
BRANCH   5   6
HETATM    6  C5  UNL     1      23.262   2.724  51.588  1.00  0.00     0.063 C 
BRANCH   6   7
HETATM    7  C6  UNL     1      24.620   3.089  52.028  1.00  0.00     0.231 C 
HETATM    8  N1  UNL     1      25.008   2.711  53.403  1.00  0.00     0.098 N 
HETATM    9  C7  UNL     1      26.351   2.863  52.930  1.00  0.00     0.257 C 
HETATM   10  H6  UNL     1      24.698   3.426  54.106  1.00  0.00     0.317 HD
HETATM   11  C8  UNL     1      27.386   2.081  53.622  1.00  0.00    -0.038 A 
HETATM   12  C18 UNL     1      25.823   2.342  51.590  1.00  0.00     0.057 C 
HETATM   13  C9  UNL     1      28.773   1.967  53.648  1.00  0.00     0.003 A 
HETATM   14  C13 UNL     1      27.125   0.935  54.301  1.00  0.00     0.062 A 
HETATM   15  C10 UNL     1      29.187   0.788  54.320  1.00  0.00    -0.010 A 
HETATM   16  C11 UNL     1      28.050   0.195  54.703  1.00  0.00     0.029 A 
HETATM   17  C12 UNL     1      26.913  -0.370  55.071  1.00  0.00    -0.051 A 
HETATM   18  O2  UNL     1      26.708  -0.360  54.861  1.00  0.00     0.000 OA
HETATM   19  O1  UNL     1      25.603  -1.022  55.495  1.00  0.00     0.000 OA
HETATM   20  C14 UNL     1      24.811  -0.304  54.402  1.00  0.00     0.012 C 
HETATM   21  C15 UNL     1      26.015  -0.047  53.482  1.00  0.00    -0.016 C 
HETATM   22  C16 UNL     1      26.691   0.303  52.390  1.00  0.00     0.001 C 
HETATM   23  C17 UNL     1      25.601   0.774  51.566  1.00  0.00     0.015 C 
ENDBRANCH   6   7
ENDBRANCH   5   6
ENDBRANCH   3   4
TORSDOF 3
ENDMDL
MODEL 8
REMARK VINA RESULT:      -6.8      4.737      6.793
REMARK  3 active torsions:
REMARK  status: ('A' for Active; 'I' for Inactive)
REMARK    1  A    between atoms: C2_3  and  C3_4 
REMARK    2  A    between atoms: C4_5  and  C5_6 
REMARK    3  A    between atoms: C5_6  and  C6_7 
ROOT
HETATM    1 CL1  UNL     1      27.967   4.875  48.578  1.00  0.00    -0.023 Cl
HETATM    2  C1  UNL     1      26.249   5.094  48.837  1.00  0.00     0.009 C 
HETATM    3  C2  UNL     1      25.047   5.268  49.018  1.00  0.00    -0.062 C 
ENDROOT
BRANCH   3   4
HETATM    4  C3  UNL     1      23.644   5.464  49.228  1.00  0.00     0.061 C 
HETATM    5  C4  UNL     1      22.863   4.404  49.045  1.00  0.00    -0.016 C 
BRANCH   5   6
HETATM    6  C5  UNL     1      21.401   4.020  49.113  1.00  0.00     0.063 C 
BRANCH   6   7
HETATM    7  C6  UNL     1      21.221   2.634  49.578  1.00  0.00     0.231 C 
HETATM    8  N1  UNL     1      22.442   1.858  49.878  1.00  0.00     0.098 N 
HETATM    9  C7  UNL     1      21.571   1.025  50.652  1.00  0.00     0.257 C 
HETATM   10  H6  UNL     1      22.840   1.409  49.016  1.00  0.00     0.317 HD
HETATM   11  C8  UNL     1      22.181   0.294  51.772  1.00  0.00    -0.038 A 
HETATM   12  C18 UNL     1      20.796   2.309  50.960  1.00  0.00     0.057 C 
HETATM   13  C9  UNL     1      21.836  -0.688  52.695  1.00  0.00     0.003 A 
HETATM   14  C13 UNL     1      23.320   0.695  52.393  1.00  0.00     0.062 A 
HETATM   15  C10 UNL     1      22.781  -0.766  53.752  1.00  0.00    -0.010 A 
HETATM   16  C11 UNL     1      23.697   0.166  53.461  1.00  0.00     0.029 A 
HETATM   17  C12 UNL     1      24.587   1.091  53.151  1.00  0.00    -0.051 A 
HETATM   18  O2  UNL     1      24.464   1.339  53.054  1.00  0.00     0.000 OA
HETATM   19  O1  UNL     1      25.615   2.158  52.795  1.00  0.00     0.000 OA
HETATM   20  C14 UNL     1      24.615   2.935  51.938  1.00  0.00     0.012 C 
HETATM   21  C15 UNL     1      23.358   2.373  52.621  1.00  0.00    -0.016 C 
HETATM   22  C16 UNL     1      22.072   2.239  52.940  1.00  0.00     0.001 C 
HETATM   23  C17 UNL     1      21.495   3.221  52.051  1.00  0.00     0.015 C 
ENDBRANCH   6   7
ENDBRANCH   5   6
ENDBRANCH   3   4
TORSDOF 3
ENDMDL
MODEL 9
REMARK VINA RESULT:      -6.8      4.831      5.892
REMARK  3 active torsions:
REMARK  status: ('A' for Active; 'I' for Inactive)
REMARK    1  A    between atoms: C2_3  and  C3_4 
REMARK    2  A    between atoms: C4_5  and  C5_6 
REMARK    3  A    between atoms: C5_6  and  C6_7 
ROOT
HETATM    1 CL1  UNL     1      21.150   5.327  43.520  1.00  0.00    -0.023 Cl
HETATM    2  C1  UNL     1      21.535   4.629  45.079  1.00  0.00     0.009 C 
HETATM    3  C2  UNL     1      21.824   4.134  46.165  1.00  0.00    -0.062 C 
ENDROOT
BRANCH   3   4
HETATM    4  C3  UNL     1      22.155   3.560  47.434  1.00  0.00     0.061 C 
HETATM    5  C4  UNL     1      22.470   4.411  48.406  1.00  0.00    -0.016 C 
BRANCH   5   6
HETATM    6  C5  UNL     1      22.881   4.401  49.862  1.00  0.00     0.063 C 
BRANCH   6   7
HETATM    7  C6  UNL     1      22.545   3.124  50.516  1.00  0.00     0.231 C 
HETATM    8  N1  UNL     1      23.545   2.039  50.430  1.00  0.00     0.098 N 
HETATM    9  C7  UNL     1      22.859   1.489  51.561  1.00  0.00     0.257 C 
HETATM   10  H6  UNL     1      23.450   1.491  49.540  1.00  0.00     0.317 HD
HETATM   11  C8  UNL     1      23.645   0.623  52.452  1.00  0.00    -0.038 A 
HETATM   12  C18 UNL     1      22.620   2.941  51.984  1.00  0.00     0.057 C 
HETATM   13  C9  UNL     1      23.444  -0.216  53.543  1.00  0.00     0.003 A 
HETATM   14  C13 UNL     1      24.996   0.693  52.559  1.00  0.00     0.062 A 
HETATM   15  C10 UNL     1      24.669  -0.548  54.178  1.00  0.00    -0.010 A 
HETATM   16  C11 UNL     1      25.607   0.087  53.465  1.00  0.00     0.029 A 
HETATM   17  C12 UNL     1      26.514   0.724  52.745  1.00  0.00    -0.051 A 
HETATM   18  O2  UNL     1      26.431   0.996  52.673  1.00  0.00     0.000 OA
HETATM   19  O1  UNL     1      27.560   1.457  51.916  1.00  0.00     0.000 OA
HETATM   20  C14 UNL     1      26.541   2.478  51.406  1.00  0.00     0.012 C 
HETATM   21  C15 UNL     1      25.548   2.295  52.564  1.00  0.00    -0.016 C 
HETATM   22  C16 UNL     1      24.497   2.529  53.347  1.00  0.00     0.001 C 
HETATM   23  C17 UNL     1      23.894   3.628  52.628  1.00  0.00     0.015 C 
ENDBRANCH   6   7
ENDBRANCH   5   6
ENDBRANCH   3   4
TORSDOF 3
ENDMDL
