MODEL 1
REMARK VINA RESULT:      -8.4      0.000      0.000
REMARK  5 active torsions:
REMARK  status: ('A' for Active; 'I' for Inactive)
REMARK    1  A    between atoms: C7_9  and  N3_10 
REMARK    2  A    between atoms: N3_10  and  C8_11 
REMARK    3  A    between atoms: C11_14  and  N4_15 
REMARK    4  A    between atoms: N4_15  and  C12_16 
REMARK    5  A    between atoms: C12_16  and  N5_18 
ROOT
HETATM    1  C8  UNL     1      25.189   1.813  52.444  1.00  0.00     0.033 A 
HETATM    2  C9  UNL     1      25.713   0.705  51.803  1.00  0.00     0.031 A 
HETATM    3  C10 UNL     1      26.667  -0.101  52.371  1.00  0.00     0.031 A 
HETATM    4  C11 UNL     1      27.148   0.159  53.617  1.00  0.00     0.031 A 
HETATM    5  C13 UNL     1      26.670   1.240  54.306  1.00  0.00     0.031 A 
HETATM    6  C14 UNL     1      25.718   2.018  53.698  1.00  0.00     0.031 A 
ENDROOT
BRANCH   1   7
HETATM    7  N3  UNL     1      24.204   2.627  51.828  1.00  0.00    -0.340 N 
HETATM    8  H6  UNL     1      24.554   3.246  51.060  1.00  0.00     0.167 HD
BRANCH   7   9
HETATM    9  C7  UNL     1      22.816   2.712  52.113  1.00  0.00     0.141 A 
HETATM   10  C4  UNL     1      22.168   1.671  52.744  1.00  0.00     0.035 A 
HETATM   11  C3  UNL     1      22.644   0.380  53.227  1.00  0.00     0.020 A 
HETATM   12  C5  UNL     1      20.825   1.723  53.034  1.00  0.00     0.053 A 
HETATM   13  C2  UNL     1      21.672  -0.321  53.778  1.00  0.00    -0.077 A 
HETATM   14  C1  UNL     1      21.847  -1.670  54.358  1.00  0.00     0.044 C 
HETATM   15  C15 UNL     1      20.440   0.478  53.698  1.00  0.00     0.094 A 
HETATM   16  N1  UNL     1      20.104   2.804  52.705  1.00  0.00    -0.245 NA
HETATM   17  C6  UNL     1      20.710   3.832  52.090  1.00  0.00     0.235 A 
HETATM   18  N2  UNL     1      22.005   3.742  51.828  1.00  0.00    -0.224 NA
ENDBRANCH   7   9
ENDBRANCH   1   7
BRANCH   4  19
HETATM   19  N4  UNL     1      28.135  -0.682  54.200  1.00  0.00    -0.341 N 
HETATM   20  H9  UNL     1      28.090  -0.923  55.227  1.00  0.00     0.164 HD
BRANCH  19  21
HETATM   21  C12 UNL     1      29.206  -1.209  53.380  1.00  0.00     0.425 C 
HETATM   22  F1  UNL     1      30.429  -0.886  53.959  1.00  0.00    -0.199 F 
BRANCH  21  23
HETATM   23  N5  UNL     1      29.115  -2.644  53.393  1.00  0.00    -0.081 NA
HETATM   24  O1  UNL     1      28.164  -3.126  52.856  1.00  0.00    -0.062 OA
ENDBRANCH  21  23
ENDBRANCH  19  21
ENDBRANCH   4  19
TORSDOF 5
ENDMDL
MODEL 2
REMARK VINA RESULT:      -8.3      1.995      2.851
REMARK  5 active torsions:
REMARK  status: ('A' for Active; 'I' for Inactive)
REMARK    1  A    between atoms: C7_9  and  N3_10 
REMARK    2  A    between atoms: N3_10  and  C8_11 
REMARK    3  A    between atoms: C11_14  and  N4_15 
REMARK    4  A    between atoms: N4_15  and  C12_16 
REMARK    5  A    between atoms: C12_16  and  N5_18 
ROOT
HETATM    1  C8  UNL     1      24.679   1.402  53.359  1.00  0.00     0.033 A 
HETATM    2  C9  UNL     1      24.772   0.032  53.523  1.00  0.00     0.031 A 
HETATM    3  C10 UNL     1      25.944  -0.599  53.856  1.00  0.00     0.031 A 
HETATM    4  C11 UNL     1      27.090   0.110  54.043  1.00  0.00     0.031 A 
HETATM    5  C13 UNL     1      27.066   1.469  53.896  1.00  0.00     0.031 A 
HETATM    6  C14 UNL     1      25.872   2.058  53.563  1.00  0.00     0.031 A 
ENDROOT
BRANCH   1   7
HETATM    7  N3  UNL     1      23.452   2.025  53.015  1.00  0.00    -0.340 N 
HETATM    8  H6  UNL     1      23.430   3.064  53.139  1.00  0.00     0.167 HD
BRANCH   7   9
HETATM    9  C7  UNL     1      22.258   1.429  52.530  1.00  0.00     0.141 A 
HETATM   10  C4  UNL     1      21.976   1.432  51.181  1.00  0.00     0.035 A 
HETATM   11  C3  UNL     1      22.707   1.964  50.036  1.00  0.00     0.020 A 
HETATM   12  C5  UNL     1      20.829   0.864  50.679  1.00  0.00     0.053 A 
HETATM   13  C2  UNL     1      22.064   1.744  48.905  1.00  0.00    -0.077 A 
HETATM   14  C1  UNL     1      22.555   2.167  47.575  1.00  0.00     0.044 C 
HETATM   15  C15 UNL     1      20.821   1.028  49.225  1.00  0.00     0.094 A 
HETATM   16  N1  UNL     1      19.945   0.285  51.504  1.00  0.00    -0.245 NA
HETATM   17  C6  UNL     1      20.195   0.269  52.823  1.00  0.00     0.235 A 
HETATM   18  N2  UNL     1      21.311   0.827  53.265  1.00  0.00    -0.224 NA
ENDBRANCH   7   9
ENDBRANCH   1   7
BRANCH   4  19
HETATM   19  N4  UNL     1      28.300  -0.552  54.388  1.00  0.00    -0.341 N 
HETATM   20  H9  UNL     1      28.574  -0.665  55.402  1.00  0.00     0.164 HD
BRANCH  19  21
HETATM   21  C12 UNL     1      29.159  -1.071  53.344  1.00  0.00     0.425 C 
HETATM   22  F1  UNL     1      30.372  -0.392  53.368  1.00  0.00    -0.199 F 
BRANCH  21  23
HETATM   23  N5  UNL     1      29.455  -2.445  53.652  1.00  0.00    -0.081 NA
HETATM   24  O1  UNL     1      28.597  -3.243  53.423  1.00  0.00    -0.062 OA
ENDBRANCH  21  23
ENDBRANCH  19  21
ENDBRANCH   4  19
TORSDOF 5
ENDMDL
MODEL 3
REMARK VINA RESULT:      -8.2      4.378      6.161
REMARK  5 active torsions:
REMARK  status: ('A' for Active; 'I' for Inactive)
REMARK    1  A    between atoms: C7_9  and  N3_10 
REMARK    2  A    between atoms: N3_10  and  C8_11 
REMARK    3  A    between atoms: C11_14  and  N4_15 
REMARK    4  A    between atoms: N4_15  and  C12_16 
REMARK    5  A    between atoms: C12_16  and  N5_18 
ROOT
HETATM    1  C8  UNL     1      25.507   3.073  50.901  1.00  0.00     0.033 A 
HETATM    2  C9  UNL     1      24.627   3.011  51.965  1.00  0.00     0.031 A 
HETATM    3  C10 UNL     1      24.978   2.506  53.192  1.00  0.00     0.031 A 
HETATM    4  C11 UNL     1      26.234   2.037  53.420  1.00  0.00     0.031 A 
HETATM    5  C13 UNL     1      27.154   2.071  52.408  1.00  0.00     0.031 A 
HETATM    6  C14 UNL     1      26.759   2.583  51.199  1.00  0.00     0.031 A 
ENDROOT
BRANCH   1   7
HETATM    7  N3  UNL     1      25.113   3.600  49.644  1.00  0.00    -0.340 N 
HETATM    8  H6  UNL     1      24.738   2.898  48.965  1.00  0.00     0.167 HD
BRANCH   7   9
HETATM    9  C7  UNL     1      25.159   4.944  49.190  1.00  0.00     0.141 A 
HETATM   10  C4  UNL     1      26.349   5.495  48.762  1.00  0.00     0.035 A 
HETATM   11  C3  UNL     1      27.696   4.945  48.667  1.00  0.00     0.020 A 
HETATM   12  C5  UNL     1      26.427   6.793  48.316  1.00  0.00     0.053 A 
HETATM   13  C2  UNL     1      28.551   5.832  48.196  1.00  0.00    -0.077 A 
HETATM   14  C1  UNL     1      29.991   5.568  47.986  1.00  0.00     0.044 C 
HETATM   15  C15 UNL     1      27.811   7.076  47.937  1.00  0.00     0.094 A 
HETATM   16  N1  UNL     1      25.331   7.565  48.286  1.00  0.00    -0.245 NA
HETATM   17  C6  UNL     1      24.160   7.053  48.697  1.00  0.00     0.235 A 
HETATM   18  N2  UNL     1      24.127   5.799  49.119  1.00  0.00    -0.224 NA
ENDBRANCH   7   9
ENDBRANCH   1   7
BRANCH   4  19
HETATM   19  N4  UNL     1      26.590   1.517  54.695  1.00  0.00    -0.341 N 
HETATM   20  H9  UNL     1      26.808   2.173  55.494  1.00  0.00     0.164 HD
BRANCH  19  21
HETATM   21  C12 UNL     1      26.655   0.084  54.895  1.00  0.00     0.425 C 
HETATM   22  F1  UNL     1      26.025  -0.557  53.834  1.00  0.00    -0.199 F 
BRANCH  21  23
HETATM   23  N5  UNL     1      28.036  -0.311  54.848  1.00  0.00    -0.081 NA
HETATM   24  O1  UNL     1      28.328  -1.152  54.050  1.00  0.00    -0.062 OA
ENDBRANCH  21  23
ENDBRANCH  19  21
ENDBRANCH   4  19
TORSDOF 5
ENDMDL
MODEL 4
REMARK VINA RESULT:      -8.2      1.577      1.808
REMARK  5 active torsions:
REMARK  status: ('A' for Active; 'I' for Inactive)
REMARK    1  A    between atoms: C7_9  and  N3_10 
REMARK    2  A    between atoms: N3_10  and  C8_11 
REMARK    3  A    between atoms: C11_14  and  N4_15 
REMARK    4  A    between atoms: N4_15  and  C12_16 
REMARK    5  A    between atoms: C12_16  and  N5_18 
ROOT
HETATM    1  C8  UNL     1      25.554   1.862  52.322  1.00  0.00     0.033 A 
HETATM    2  C9  UNL     1      26.315   0.929  51.640  1.00  0.00     0.031 A 
HETATM    3  C10 UNL     1      27.213   0.101  52.266  1.00  0.00     0.031 A 
HETATM    4  C11 UNL     1      27.397   0.162  53.613  1.00  0.00     0.031 A 
HETATM    5  C13 UNL     1      26.674   1.062  54.345  1.00  0.00     0.031 A 
HETATM    6  C14 UNL     1      25.789   1.870  53.678  1.00  0.00     0.031 A 
ENDROOT
BRANCH   1   7
HETATM    7  N3  UNL     1      24.635   2.704  51.645  1.00  0.00    -0.340 N 
HETATM    8  H6  UNL     1      24.742   3.727  51.839  1.00  0.00     0.167 HD
BRANCH   7   9
HETATM    9  C7  UNL     1      23.597   2.345  50.746  1.00  0.00     0.141 A 
HETATM   10  C4  UNL     1      22.574   1.516  51.156  1.00  0.00     0.035 A 
HETATM   11  C3  UNL     1      22.302   0.867  52.434  1.00  0.00     0.020 A 
HETATM   12  C5  UNL     1      21.554   1.151  50.310  1.00  0.00     0.053 A 
HETATM   13  C2  UNL     1      21.196   0.151  52.389  1.00  0.00    -0.077 A 
HETATM   14  C1  UNL     1      20.660  -0.623  53.530  1.00  0.00     0.044 C 
HETATM   15  C15 UNL     1      20.634   0.275  51.035  1.00  0.00     0.094 A 
HETATM   16  N1  UNL     1      21.530   1.599  49.047  1.00  0.00    -0.245 NA
HETATM   17  C6  UNL     1      22.514   2.407  48.621  1.00  0.00     0.235 A 
HETATM   18  N2  UNL     1      23.478   2.735  49.467  1.00  0.00    -0.224 NA
ENDBRANCH   7   9
ENDBRANCH   1   7
BRANCH   4  19
HETATM   19  N4  UNL     1      28.327  -0.701  54.253  1.00  0.00    -0.341 N 
HETATM   20  H9  UNL     1      28.286  -0.845  55.299  1.00  0.00     0.164 HD
BRANCH  19  21
HETATM   21  C12 UNL     1      29.335  -1.383  53.468  1.00  0.00     0.425 C 
HETATM   22  F1  UNL     1      30.569  -1.259  54.097  1.00  0.00    -0.199 F 
BRANCH  21  23
HETATM   23  N5  UNL     1      29.021  -2.786  53.459  1.00  0.00    -0.081 NA
HETATM   24  O1  UNL     1      28.137  -3.134  52.735  1.00  0.00    -0.062 OA
ENDBRANCH  21  23
ENDBRANCH  19  21
ENDBRANCH   4  19
TORSDOF 5
ENDMDL
MODEL 5
REMARK VINA RESULT:      -8.2      2.867      4.511
REMARK  5 active torsions:
REMARK  status: ('A' for Active; 'I' for Inactive)
REMARK    1  A    between atoms: C7_9  and  N3_10 
REMARK    2  A    between atoms: N3_10  and  C8_11 
REMARK    3  A    between atoms: C11_14  and  N4_15 
REMARK    4  A    between atoms: N4_15  and  C12_16 
REMARK    5  A    between atoms: C12_16  and  N5_18 
ROOT
HETATM    1  C8  UNL     1      24.895   1.318  51.952  1.00  0.00     0.033 A 
HETATM    2  C9  UNL     1      26.154   1.002  51.475  1.00  0.00     0.031 A 
HETATM    3  C10 UNL     1      27.076   0.302  52.214  1.00  0.00     0.031 A 
HETATM    4  C11 UNL     1      26.784  -0.120  53.475  1.00  0.00     0.031 A 
HETATM    5  C13 UNL     1      25.554   0.160  54.005  1.00  0.00     0.031 A 
HETATM    6  C14 UNL     1      24.666   0.862  53.230  1.00  0.00     0.031 A 
ENDROOT
BRANCH   1   7
HETATM    7  N3  UNL     1      23.966   2.042  51.163  1.00  0.00    -0.340 N 
HETATM    8  H6  UNL     1      23.350   1.457  50.551  1.00  0.00     0.167 HD
BRANCH   7   9
HETATM    9  C7  UNL     1      23.763   3.446  51.091  1.00  0.00     0.141 A 
HETATM   10  C4  UNL     1      24.675   4.251  50.443  1.00  0.00     0.035 A 
HETATM   11  C3  UNL     1      25.921   3.944  49.748  1.00  0.00     0.020 A 
HETATM   12  C5  UNL     1      24.508   5.612  50.356  1.00  0.00     0.053 A 
HETATM   13  C2  UNL     1      26.487   5.032  49.264  1.00  0.00    -0.077 A 
HETATM   14  C1  UNL     1      27.760   5.041  48.511  1.00  0.00     0.044 C 
HETATM   15  C15 UNL     1      25.634   6.178  49.613  1.00  0.00     0.094 A 
HETATM   16  N1  UNL     1      23.436   6.198  50.909  1.00  0.00    -0.245 NA
HETATM   17  C6  UNL     1      22.532   5.437  51.547  1.00  0.00     0.235 A 
HETATM   18  N2  UNL     1      22.731   4.130  51.608  1.00  0.00    -0.224 NA
ENDBRANCH   7   9
ENDBRANCH   1   7
BRANCH   4  19
HETATM   19  N4  UNL     1      27.743  -0.845  54.233  1.00  0.00    -0.341 N 
HETATM   20  H9  UNL     1      27.564  -1.853  54.493  1.00  0.00     0.164 HD
BRANCH  19  21
HETATM   21  C12 UNL     1      28.968  -0.196  54.651  1.00  0.00     0.425 C 
HETATM   22  F1  UNL     1      29.818  -0.072  53.558  1.00  0.00    -0.199 F 
BRANCH  21  23
HETATM   23  N5  UNL     1      28.645   1.141  55.071  1.00  0.00    -0.081 NA
HETATM   24  O1  UNL     1      29.375   2.011  54.700  1.00  0.00    -0.062 OA
ENDBRANCH  21  23
ENDBRANCH  19  21
ENDBRANCH   4  19
TORSDOF 5
ENDMDL
MODEL 6
REMARK VINA RESULT:      -8.0      2.266      3.573
REMARK  5 active torsions:
REMARK  status: ('A' for Active; 'I' for Inactive)
REMARK    1  A    between atoms: C7_9  and  N3_10 
REMARK    2  A    between atoms: N3_10  and  C8_11 
REMARK    3  A    between atoms: C11_14  and  N4_15 
REMARK    4  A    between atoms: N4_15  and  C12_16 
REMARK    5  A    between atoms: C12_16  and  N5_18 
ROOT
HETATM    1  C8  UNL     1      24.560   1.074  53.141  1.00  0.00     0.033 A 
HETATM    2  C9  UNL     1      24.764  -0.282  53.326  1.00  0.00     0.031 A 
HETATM    3  C10 UNL     1      25.967  -0.804  53.730  1.00  0.00     0.031 A 
HETATM    4  C11 UNL     1      27.034   0.006  53.972  1.00  0.00     0.031 A 
HETATM    5  C13 UNL     1      26.897   1.357  53.809  1.00  0.00     0.031 A 
HETATM    6  C14 UNL     1      25.676   1.835  53.404  1.00  0.00     0.031 A 
ENDROOT
BRANCH   1   7
HETATM    7  N3  UNL     1      23.303   1.582  52.723  1.00  0.00    -0.340 N 
HETATM    8  H6  UNL     1      22.744   2.057  53.470  1.00  0.00     0.167 HD
BRANCH   7   9
HETATM    9  C7  UNL     1      22.707   1.532  51.436  1.00  0.00     0.141 A 
HETATM   10  C4  UNL     1      23.087   2.425  50.456  1.00  0.00     0.035 A 
HETATM   11  C3  UNL     1      24.060   3.511  50.456  1.00  0.00     0.020 A 
HETATM   12  C5  UNL     1      22.530   2.402  49.200  1.00  0.00     0.053 A 
HETATM   13  C2  UNL     1      24.107   4.121  49.287  1.00  0.00    -0.077 A 
HETATM   14  C1  UNL     1      24.997   5.262  48.980  1.00  0.00     0.044 C 
HETATM   15  C15 UNL     1      23.137   3.464  48.398  1.00  0.00     0.094 A 
HETATM   16  N1  UNL     1      21.589   1.498  48.894  1.00  0.00    -0.245 NA
HETATM   17  C6  UNL     1      21.200   0.617  49.829  1.00  0.00     0.235 A 
HETATM   18  N2  UNL     1      21.762   0.672  51.027  1.00  0.00    -0.224 NA
ENDBRANCH   7   9
ENDBRANCH   1   7
BRANCH   4  19
HETATM   19  N4  UNL     1      28.276  -0.543  54.391  1.00  0.00    -0.341 N 
HETATM   20  H9  UNL     1      28.517  -0.590  55.418  1.00  0.00     0.164 HD
BRANCH  19  21
HETATM   21  C12 UNL     1      29.213  -1.038  53.404  1.00  0.00     0.425 C 
HETATM   22  F1  UNL     1      30.396  -0.312  53.490  1.00  0.00    -0.199 F 
BRANCH  21  23
HETATM   23  N5  UNL     1      29.542  -2.396  53.742  1.00  0.00    -0.081 NA
HETATM   24  O1  UNL     1      28.742  -3.232  53.445  1.00  0.00    -0.062 OA
ENDBRANCH  21  23
ENDBRANCH  19  21
ENDBRANCH   4  19
TORSDOF 5
ENDMDL
MODEL 7
REMARK VINA RESULT:      -7.9      1.619      2.033
REMARK  5 active torsions:
REMARK  status: ('A' for Active; 'I' for Inactive)
REMARK    1  A    between atoms: C7_9  and  N3_10 
REMARK    2  A    between atoms: N3_10  and  C8_11 
REMARK    3  A    between atoms: C11_14  and  N4_15 
REMARK    4  A    between atoms: N4_15  and  C12_16 
REMARK    5  A    between atoms: C12_16  and  N5_18 
ROOT
HETATM    1  C8  UNL     1      24.972   1.468  52.215  1.00  0.00     0.033 A 
HETATM    2  C9  UNL     1      25.291   1.968  53.465  1.00  0.00     0.031 A 
HETATM    3  C10 UNL     1      26.290   1.441  54.244  1.00  0.00     0.031 A 
HETATM    4  C11 UNL     1      27.027   0.382  53.812  1.00  0.00     0.031 A 
HETATM    5  C13 UNL     1      26.762  -0.159  52.584  1.00  0.00     0.031 A 
HETATM    6  C14 UNL     1      25.754   0.399  51.840  1.00  0.00     0.031 A 
ENDROOT
BRANCH   1   7
HETATM    7  N3  UNL     1      23.932   2.036  51.435  1.00  0.00    -0.340 N 
HETATM    8  H6  UNL     1      24.190   2.257  50.445  1.00  0.00     0.167 HD
BRANCH   7   9
HETATM    9  C7  UNL     1      22.599   2.342  51.816  1.00  0.00     0.141 A 
HETATM   10  C4  UNL     1      21.856   1.437  52.543  1.00  0.00     0.035 A 
HETATM   11  C3  UNL     1      22.172   0.107  53.054  1.00  0.00     0.020 A 
HETATM   12  C5  UNL     1      20.564   1.703  52.928  1.00  0.00     0.053 A 
HETATM   13  C2  UNL     1      21.154  -0.416  53.709  1.00  0.00    -0.077 A 
HETATM   14  C1  UNL     1      21.172  -1.753  54.341  1.00  0.00     0.044 C 
HETATM   15  C15 UNL     1      20.052   0.557  53.679  1.00  0.00     0.094 A 
HETATM   16  N1  UNL     1      19.987   2.868  52.599  1.00  0.00    -0.245 NA
HETATM   17  C6  UNL     1      20.689   3.767  51.891  1.00  0.00     0.235 A 
HETATM   18  N2  UNL     1      21.930   3.472  51.540  1.00  0.00    -0.224 NA
ENDBRANCH   7   9
ENDBRANCH   1   7
BRANCH   4  19
HETATM   19  N4  UNL     1      28.061  -0.157  54.624  1.00  0.00    -0.341 N 
HETATM   20  H9  UNL     1      27.851  -0.940  55.302  1.00  0.00     0.164 HD
BRANCH  19  21
HETATM   21  C12 UNL     1      29.405   0.371  54.522  1.00  0.00     0.425 C 
HETATM   22  F1  UNL     1      29.956  -0.007  53.303  1.00  0.00    -0.199 F 
BRANCH  21  23
HETATM   23  N5  UNL     1      29.320   1.807  54.504  1.00  0.00    -0.081 NA
HETATM   24  O1  UNL     1      29.757   2.383  55.455  1.00  0.00    -0.062 OA
ENDBRANCH  21  23
ENDBRANCH  19  21
ENDBRANCH   4  19
TORSDOF 5
ENDMDL
MODEL 8
REMARK VINA RESULT:      -7.9      2.292      2.713
REMARK  5 active torsions:
REMARK  status: ('A' for Active; 'I' for Inactive)
REMARK    1  A    between atoms: C7_9  and  N3_10 
REMARK    2  A    between atoms: N3_10  and  C8_11 
REMARK    3  A    between atoms: C11_14  and  N4_15 
REMARK    4  A    between atoms: N4_15  and  C12_16 
REMARK    5  A    between atoms: C12_16  and  N5_18 
ROOT
HETATM    1  C8  UNL     1      24.411   0.705  52.841  1.00  0.00     0.033 A 
HETATM    2  C9  UNL     1      24.612  -0.205  53.863  1.00  0.00     0.031 A 
HETATM    3  C10 UNL     1      25.819  -0.822  54.082  1.00  0.00     0.031 A 
HETATM    4  C11 UNL     1      26.892  -0.558  53.287  1.00  0.00     0.031 A 
HETATM    5  C13 UNL     1      26.758   0.334  52.259  1.00  0.00     0.031 A 
HETATM    6  C14 UNL     1      25.534   0.926  52.078  1.00  0.00     0.031 A 
ENDROOT
BRANCH   1   7
HETATM    7  N3  UNL     1      23.151   1.325  52.642  1.00  0.00    -0.340 N 
HETATM    8  H6  UNL     1      22.769   1.836  53.473  1.00  0.00     0.167 HD
BRANCH   7   9
HETATM    9  C7  UNL     1      22.344   1.345  51.474  1.00  0.00     0.141 A 
HETATM   10  C4  UNL     1      21.070   0.818  51.497  1.00  0.00     0.035 A 
HETATM   11  C3  UNL     1      20.300   0.185  52.561  1.00  0.00     0.020 A 
HETATM   12  C5  UNL     1      20.264   0.822  50.384  1.00  0.00     0.053 A 
HETATM   13  C2  UNL     1      19.103  -0.178  52.144  1.00  0.00    -0.077 A 
HETATM   14  C1  UNL     1      18.093  -0.845  52.995  1.00  0.00     0.044 C 
HETATM   15  C15 UNL     1      18.986   0.198  50.727  1.00  0.00     0.094 A 
HETATM   16  N1  UNL     1      20.705   1.347  49.231  1.00  0.00    -0.245 NA
HETATM   17  C6  UNL     1      21.942   1.866  49.182  1.00  0.00     0.235 A 
HETATM   18  N2  UNL     1      22.686   1.843  50.276  1.00  0.00    -0.224 NA
ENDBRANCH   7   9
ENDBRANCH   1   7
BRANCH   4  19
HETATM   19  N4  UNL     1      28.138  -1.200  53.522  1.00  0.00    -0.341 N 
HETATM   20  H9  UNL     1      28.285  -2.202  53.219  1.00  0.00     0.164 HD
BRANCH  19  21
HETATM   21  C12 UNL     1      29.207  -0.478  54.179  1.00  0.00     0.425 C 
HETATM   22  F1  UNL     1      29.953   0.206  53.225  1.00  0.00    -0.199 F 
BRANCH  21  23
HETATM   23  N5  UNL     1      28.615   0.522  55.027  1.00  0.00    -0.081 NA
HETATM   24  O1  UNL     1      29.055   1.629  54.939  1.00  0.00    -0.062 OA
ENDBRANCH  21  23
ENDBRANCH  19  21
ENDBRANCH   4  19
TORSDOF 5
ENDMDL
MODEL 9
REMARK VINA RESULT:      -7.8      3.669      5.348
REMARK  5 active torsions:
REMARK  status: ('A' for Active; 'I' for Inactive)
REMARK    1  A    between atoms: C7_9  and  N3_10 
REMARK    2  A    between atoms: N3_10  and  C8_11 
REMARK    3  A    between atoms: C11_14  and  N4_15 
REMARK    4  A    between atoms: N4_15  and  C12_16 
REMARK    5  A    between atoms: C12_16  and  N5_18 
ROOT
HETATM    1  C8  UNL     1      24.911   2.218  51.049  1.00  0.00     0.033 A 
HETATM    2  C9  UNL     1      26.271   2.030  51.213  1.00  0.00     0.031 A 
HETATM    3  C10 UNL     1      26.794   1.099  52.076  1.00  0.00     0.031 A 
HETATM    4  C11 UNL     1      25.980   0.305  52.823  1.00  0.00     0.031 A 
HETATM    5  C13 UNL     1      24.624   0.441  52.706  1.00  0.00     0.031 A 
HETATM    6  C14 UNL     1      24.146   1.384  51.832  1.00  0.00     0.031 A 
ENDROOT
BRANCH   1   7
HETATM    7  N3  UNL     1      24.402   3.189  50.149  1.00  0.00    -0.340 N 
HETATM    8  H6  UNL     1      23.923   2.803  49.302  1.00  0.00     0.167 HD
BRANCH   7   9
HETATM    9  C7  UNL     1      24.457   4.605  50.242  1.00  0.00     0.141 A 
HETATM   10  C4  UNL     1      25.529   5.297  49.720  1.00  0.00     0.035 A 
HETATM   11  C3  UNL     1      26.731   4.849  49.025  1.00  0.00     0.020 A 
HETATM   12  C5  UNL     1      25.612   6.667  49.794  1.00  0.00     0.053 A 
HETATM   13  C2  UNL     1      27.505   5.862  48.691  1.00  0.00    -0.077 A 
HETATM   14  C1  UNL     1      28.793   5.724  47.977  1.00  0.00     0.044 C 
HETATM   15  C15 UNL     1      26.855   7.098  49.154  1.00  0.00     0.094 A 
HETATM   16  N1  UNL     1      24.638   7.372  50.386  1.00  0.00    -0.245 NA
HETATM   17  C6  UNL     1      23.583   6.723  50.904  1.00  0.00     0.235 A 
HETATM   18  N2  UNL     1      23.541   5.403  50.812  1.00  0.00    -0.224 NA
ENDBRANCH   7   9
ENDBRANCH   1   7
BRANCH   4  19
HETATM   19  N4  UNL     1      26.529  -0.657  53.713  1.00  0.00    -0.341 N 
HETATM   20  H9  UNL     1      26.590  -0.451  54.747  1.00  0.00     0.164 HD
BRANCH  19  21
HETATM   21  C12 UNL     1      27.009  -1.923  53.198  1.00  0.00     0.425 C 
HETATM   22  F1  UNL     1      26.663  -2.033  51.856  1.00  0.00    -0.199 F 
BRANCH  21  23
HETATM   23  N5  UNL     1      28.446  -1.911  53.248  1.00  0.00    -0.081 NA
HETATM   24  O1  UNL     1      28.984  -2.951  53.482  1.00  0.00    -0.062 OA
ENDBRANCH  21  23
ENDBRANCH  19  21
ENDBRANCH   4  19
TORSDOF 5
ENDMDL
