MODEL 1
REMARK VINA RESULT:      -9.3      0.000      0.000
REMARK  5 active torsions:
REMARK  status: ('A' for Active; 'I' for Inactive)
REMARK    1  A    between atoms: O1_2  and  C2_3 
REMARK    2  A    between atoms: C5_6  and  N1_7 
REMARK    3  A    between atoms: N1_7  and  C6_8 
REMARK    4  A    between atoms: C9_11  and  C10_12 
REMARK    5  A    between atoms: C22_28  and  O2_29 
ROOT
HETATM    1  C2  UNL     1      16.336  -4.034  53.322  1.00  0.00     0.102 A 
HETATM    2  C3  UNL     1      17.428  -3.390  53.672  1.00  0.00     0.054 A 
HETATM    3  C4  UNL     1      17.577  -2.044  53.150  1.00  0.00     0.012 A 
HETATM    4  C5  UNL     1      18.623  -1.293  53.409  1.00  0.00     0.102 C 
HETATM    5  C19 UNL     1      16.638  -1.356  52.288  1.00  0.00     0.083 A 
HETATM    6  N3  UNL     1      16.425  -0.291  51.707  1.00  0.00    -0.173 NA
HETATM    7  C20 UNL     1      17.126   0.861  51.641  1.00  0.00     0.206 C 
HETATM    8  N4  UNL     1      17.710   1.859  51.582  1.00  0.00    -0.170 NA
HETATM    9  C21 UNL     1      15.456  -2.209  51.980  1.00  0.00     0.073 A 
HETATM   10  C22 UNL     1      15.316  -3.461  52.464  1.00  0.00     0.103 A 
ENDROOT
BRANCH   4  11
HETATM   11  N1  UNL     1      19.375  -0.108  53.303  1.00  0.00    -0.365 N 
HETATM   12  H6  UNL     1      18.951   0.861  53.290  1.00  0.00     0.165 HD
BRANCH  11  13
HETATM   13  C6  UNL     1      20.818  -0.074  53.199  1.00  0.00     0.031 A 
HETATM   14  C7  UNL     1      21.513   0.669  52.235  1.00  0.00     0.030 A 
HETATM   15  C8  UNL     1      22.882   0.612  52.269  1.00  0.00     0.016 A 
HETATM   16  C9  UNL     1      23.551  -0.137  53.202  1.00  0.00    -0.000 A 
HETATM   17  C17 UNL     1      22.887  -0.857  54.136  1.00  0.00     0.016 A 
HETATM   18  C18 UNL     1      21.496  -0.841  54.155  1.00  0.00     0.030 A 
BRANCH  16  19
HETATM   19  C10 UNL     1      25.011  -0.259  53.294  1.00  0.00     0.109 A 
HETATM   20  N2  UNL     1      25.846  -1.076  53.121  1.00  0.00    -0.240 NA
HETATM   21  C11 UNL     1      27.145  -0.919  53.285  1.00  0.00     0.075 A 
HETATM   22  C12 UNL     1      28.146  -1.877  53.082  1.00  0.00     0.033 A 
HETATM   23  C16 UNL     1      27.608   0.362  53.716  1.00  0.00     0.035 A 
HETATM   24  C13 UNL     1      29.445  -1.531  53.301  1.00  0.00     0.002 A 
HETATM   25  C14 UNL     1      29.890  -0.291  53.718  1.00  0.00     0.002 A 
HETATM   26  C15 UNL     1      28.933   0.676  53.929  1.00  0.00     0.021 A 
HETATM   27  S1  UNL     1      26.007   1.256  53.844  1.00  0.00    -0.068 SA
ENDBRANCH  16  19
ENDBRANCH  11  13
ENDBRANCH   4  11
BRANCH  10  28
HETATM   28  O2  UNL     1      14.202  -4.270  52.172  1.00  0.00    -0.353 OA
HETATM   29  C23 UNL     1      14.190  -5.287  51.214  1.00  0.00     0.210 C 
ENDBRANCH  10  28
BRANCH   1  30
HETATM   30  O1  UNL     1      16.308  -5.307  53.881  1.00  0.00    -0.353 OA
HETATM   31  C1  UNL     1      15.378  -5.503  54.957  1.00  0.00     0.210 C 
ENDBRANCH   1  30
TORSDOF 5
ENDMDL
MODEL 2
REMARK VINA RESULT:      -9.2      8.181     10.895
REMARK  5 active torsions:
REMARK  status: ('A' for Active; 'I' for Inactive)
REMARK    1  A    between atoms: O1_2  and  C2_3 
REMARK    2  A    between atoms: C5_6  and  N1_7 
REMARK    3  A    between atoms: N1_7  and  C6_8 
REMARK    4  A    between atoms: C9_11  and  C10_12 
REMARK    5  A    between atoms: C22_28  and  O2_29 
ROOT
HETATM    1  C2  UNL     1      27.154   0.440  53.604  1.00  0.00     0.102 A 
HETATM    2  C3  UNL     1      27.481   1.213  52.591  1.00  0.00     0.054 A 
HETATM    3  C4  UNL     1      26.388   1.670  51.753  1.00  0.00     0.012 A 
HETATM    4  C5  UNL     1      26.572   2.437  50.702  1.00  0.00     0.102 C 
HETATM    5  C19 UNL     1      24.985   1.355  51.934  1.00  0.00     0.083 A 
HETATM    6  N3  UNL     1      23.859   1.557  51.480  1.00  0.00    -0.173 NA
HETATM    7  C20 UNL     1      23.422   2.295  50.436  1.00  0.00     0.206 C 
HETATM    8  N4  UNL     1      23.030   2.930  49.550  1.00  0.00    -0.170 NA
HETATM    9  C21 UNL     1      24.774   0.474  53.117  1.00  0.00     0.073 A 
HETATM   10  C22 UNL     1      25.789   0.047  53.897  1.00  0.00     0.103 A 
ENDROOT
BRANCH   4  11
HETATM   11  N1  UNL     1      26.120   3.168  49.587  1.00  0.00    -0.365 N 
HETATM   12  H6  UNL     1      25.482   2.774  48.842  1.00  0.00     0.165 HD
BRANCH  11  13
HETATM   13  C6  UNL     1      26.475   4.547  49.329  1.00  0.00     0.031 A 
HETATM   14  C7  UNL     1      27.605   4.936  48.597  1.00  0.00     0.030 A 
HETATM   15  C8  UNL     1      27.806   6.281  48.424  1.00  0.00     0.016 A 
HETATM   16  C9  UNL     1      26.943   7.213  48.941  1.00  0.00    -0.000 A 
HETATM   17  C17 UNL     1      25.850   6.844  49.649  1.00  0.00     0.016 A 
HETATM   18  C18 UNL     1      25.590   5.493  49.860  1.00  0.00     0.030 A 
BRANCH  16  19
HETATM   19  C10 UNL     1      27.096   8.666  48.811  1.00  0.00     0.109 A 
HETATM   20  N2  UNL     1      26.462   9.598  48.458  1.00  0.00    -0.240 NA
HETATM   21  C11 UNL     1      26.855  10.856  48.441  1.00  0.00     0.075 A 
HETATM   22  C12 UNL     1      26.114  11.970  48.026  1.00  0.00     0.033 A 
HETATM   23  C16 UNL     1      28.181  11.142  48.892  1.00  0.00     0.035 A 
HETATM   24  C13 UNL     1      26.689  13.204  48.081  1.00  0.00     0.002 A 
HETATM   25  C14 UNL     1      27.971  13.476  48.518  1.00  0.00     0.002 A 
HETATM   26  C15 UNL     1      28.730  12.404  48.932  1.00  0.00     0.021 A 
HETATM   27  S1  UNL     1      28.747   9.445  49.318  1.00  0.00    -0.068 SA
ENDBRANCH  16  19
ENDBRANCH  11  13
ENDBRANCH   4  11
BRANCH  10  28
HETATM   28  O2  UNL     1      25.593  -0.787  55.013  1.00  0.00    -0.353 OA
HETATM   29  C23 UNL     1      24.354  -1.292  55.418  1.00  0.00     0.210 C 
ENDBRANCH  10  28
BRANCH   1  30
HETATM   30  O1  UNL     1      28.282   0.068  54.329  1.00  0.00    -0.353 OA
HETATM   31  C1  UNL     1      29.155  -0.879  53.694  1.00  0.00     0.210 C 
ENDBRANCH   1  30
TORSDOF 5
ENDMDL
MODEL 3
REMARK VINA RESULT:      -9.1      8.986     13.902
REMARK  5 active torsions:
REMARK  status: ('A' for Active; 'I' for Inactive)
REMARK    1  A    between atoms: O1_2  and  C2_3 
REMARK    2  A    between atoms: C5_6  and  N1_7 
REMARK    3  A    between atoms: N1_7  and  C6_8 
REMARK    4  A    between atoms: C9_11  and  C10_12 
REMARK    5  A    between atoms: C22_28  and  O2_29 
ROOT
HETATM    1  C2  UNL     1      32.609   6.230  47.795  1.00  0.00     0.102 A 
HETATM    2  C3  UNL     1      31.385   5.793  47.593  1.00  0.00     0.054 A 
HETATM    3  C4  UNL     1      30.311   6.639  48.077  1.00  0.00     0.012 A 
HETATM    4  C5  UNL     1      29.043   6.319  47.953  1.00  0.00     0.102 C 
HETATM    5  C19 UNL     1      30.467   7.910  48.756  1.00  0.00     0.083 A 
HETATM    6  N3  UNL     1      29.845   8.849  49.254  1.00  0.00    -0.173 NA
HETATM    7  C20 UNL     1      28.523   9.094  49.381  1.00  0.00     0.206 C 
HETATM    8  N4  UNL     1      27.393   9.324  49.489  1.00  0.00    -0.170 NA
HETATM    9  C21 UNL     1      31.905   8.271  48.912  1.00  0.00     0.073 A 
HETATM   10  C22 UNL     1      32.905   7.484  48.462  1.00  0.00     0.103 A 
ENDROOT
BRANCH   4  11
HETATM   11  N1  UNL     1      27.666   6.554  48.126  1.00  0.00    -0.365 N 
HETATM   12  H6  UNL     1      27.155   7.389  47.725  1.00  0.00     0.165 HD
BRANCH  11  13
HETATM   13  C6  UNL     1      26.786   5.683  48.875  1.00  0.00     0.031 A 
HETATM   14  C7  UNL     1      25.591   6.107  49.472  1.00  0.00     0.030 A 
HETATM   15  C8  UNL     1      24.856   5.163  50.140  1.00  0.00     0.016 A 
HETATM   16  C9  UNL     1      25.263   3.857  50.224  1.00  0.00    -0.000 A 
HETATM   17  C17 UNL     1      26.416   3.440  49.650  1.00  0.00     0.016 A 
HETATM   18  C18 UNL     1      27.208   4.350  48.957  1.00  0.00     0.030 A 
BRANCH  16  19
HETATM   19  C10 UNL     1      24.540   2.793  50.930  1.00  0.00     0.109 A 
HETATM   20  N2  UNL     1      23.469   2.295  50.929  1.00  0.00    -0.240 NA
HETATM   21  C11 UNL     1      23.060   1.309  51.702  1.00  0.00     0.075 A 
HETATM   22  C12 UNL     1      21.795   0.708  51.711  1.00  0.00     0.033 A 
HETATM   23  C16 UNL     1      23.993   0.775  52.645  1.00  0.00     0.035 A 
HETATM   24  C13 UNL     1      21.552  -0.308  52.586  1.00  0.00     0.002 A 
HETATM   25  C14 UNL     1      22.456  -0.822  53.495  1.00  0.00     0.002 A 
HETATM   26  C15 UNL     1      23.710  -0.254  53.516  1.00  0.00     0.021 A 
HETATM   27  S1  UNL     1      25.454   1.829  52.282  1.00  0.00    -0.068 SA
ENDBRANCH  16  19
ENDBRANCH  11  13
ENDBRANCH   4  11
BRANCH  10  28
HETATM   28  O2  UNL     1      34.263   7.821  48.610  1.00  0.00    -0.353 OA
HETATM   29  C23 UNL     1      35.020   8.503  47.655  1.00  0.00     0.210 C 
ENDBRANCH  10  28
BRANCH   1  30
HETATM   30  O1  UNL     1      33.547   5.336  47.290  1.00  0.00    -0.353 OA
HETATM   31  C1  UNL     1      33.421   3.975  47.731  1.00  0.00     0.210 C 
ENDBRANCH   1  30
TORSDOF 5
ENDMDL
MODEL 4
REMARK VINA RESULT:      -8.8      7.973     10.588
REMARK  5 active torsions:
REMARK  status: ('A' for Active; 'I' for Inactive)
REMARK    1  A    between atoms: O1_2  and  C2_3 
REMARK    2  A    between atoms: C5_6  and  N1_7 
REMARK    3  A    between atoms: N1_7  and  C6_8 
REMARK    4  A    between atoms: C9_11  and  C10_12 
REMARK    5  A    between atoms: C22_28  and  O2_29 
ROOT
HETATM    1  C2  UNL     1      26.856   0.324  53.650  1.00  0.00     0.102 A 
HETATM    2  C3  UNL     1      27.147   1.191  52.704  1.00  0.00     0.054 A 
HETATM    3  C4  UNL     1      26.044   1.625  51.867  1.00  0.00     0.012 A 
HETATM    4  C5  UNL     1      26.195   2.477  50.879  1.00  0.00     0.102 C 
HETATM    5  C19 UNL     1      24.666   1.192  51.981  1.00  0.00     0.083 A 
HETATM    6  N3  UNL     1      23.540   1.341  51.507  1.00  0.00    -0.173 NA
HETATM    7  C20 UNL     1      23.074   2.117  50.505  1.00  0.00     0.206 C 
HETATM    8  N4  UNL     1      22.657   2.783  49.655  1.00  0.00    -0.170 NA
HETATM    9  C21 UNL     1      24.494   0.214  53.092  1.00  0.00     0.073 A 
HETATM   10  C22 UNL     1      25.518  -0.191  53.871  1.00  0.00     0.103 A 
ENDROOT
BRANCH   4  11
HETATM   11  N1  UNL     1      25.717   3.251  49.805  1.00  0.00    -0.365 N 
HETATM   12  H6  UNL     1      24.880   2.988  49.214  1.00  0.00     0.165 HD
BRANCH  11  13
HETATM   13  C6  UNL     1      26.313   4.500  49.382  1.00  0.00     0.031 A 
HETATM   14  C7  UNL     1      25.697   5.750  49.536  1.00  0.00     0.030 A 
HETATM   15  C8  UNL     1      26.391   6.847  49.098  1.00  0.00     0.016 A 
HETATM   16  C9  UNL     1      27.634   6.737  48.532  1.00  0.00    -0.000 A 
HETATM   17  C17 UNL     1      28.236   5.534  48.381  1.00  0.00     0.016 A 
HETATM   18  C18 UNL     1      27.583   4.381  48.805  1.00  0.00     0.030 A 
BRANCH  16  19
HETATM   19  C10 UNL     1      28.433   7.860  48.028  1.00  0.00     0.109 A 
HETATM   20  N2  UNL     1      28.937   8.210  47.018  1.00  0.00    -0.240 NA
HETATM   21  C11 UNL     1      29.631   9.313  46.826  1.00  0.00     0.075 A 
HETATM   22  C12 UNL     1      30.232   9.740  45.635  1.00  0.00     0.033 A 
HETATM   23  C16 UNL     1      29.804  10.190  47.942  1.00  0.00     0.035 A 
HETATM   24  C13 UNL     1      30.914  10.920  45.625  1.00  0.00     0.002 A 
HETATM   25  C14 UNL     1      31.079  11.764  46.706  1.00  0.00     0.002 A 
HETATM   26  C15 UNL     1      30.503  11.376  47.894  1.00  0.00     0.021 A 
HETATM   27  S1  UNL     1      28.881   9.256  49.229  1.00  0.00    -0.068 SA
ENDBRANCH  16  19
ENDBRANCH  11  13
ENDBRANCH   4  11
BRANCH  10  28
HETATM   28  O2  UNL     1      25.358  -1.116  54.919  1.00  0.00    -0.353 OA
HETATM   29  C23 UNL     1      24.163  -1.336  55.608  1.00  0.00     0.210 C 
ENDBRANCH  10  28
BRANCH   1  30
HETATM   30  O1  UNL     1      27.990  -0.014  54.381  1.00  0.00    -0.353 OA
HETATM   31  C1  UNL     1      29.044  -0.656  53.648  1.00  0.00     0.210 C 
ENDBRANCH   1  30
TORSDOF 5
ENDMDL
MODEL 5
REMARK VINA RESULT:      -8.6      2.512      4.073
REMARK  5 active torsions:
REMARK  status: ('A' for Active; 'I' for Inactive)
REMARK    1  A    between atoms: O1_2  and  C2_3 
REMARK    2  A    between atoms: C5_6  and  N1_7 
REMARK    3  A    between atoms: N1_7  and  C6_8 
REMARK    4  A    between atoms: C9_11  and  C10_12 
REMARK    5  A    between atoms: C22_28  and  O2_29 
ROOT
HETATM    1  C2  UNL     1      17.022   1.728  49.640  1.00  0.00     0.102 A 
HETATM    2  C3  UNL     1      18.064   1.641  50.438  1.00  0.00     0.054 A 
HETATM    3  C4  UNL     1      18.057   0.544  51.387  1.00  0.00     0.012 A 
HETATM    4  C5  UNL     1      19.028   0.345  52.251  1.00  0.00     0.102 C 
HETATM    5  C19 UNL     1      17.015  -0.453  51.531  1.00  0.00     0.083 A 
HETATM    6  N3  UNL     1      16.692  -1.463  52.156  1.00  0.00    -0.173 NA
HETATM    7  C20 UNL     1      17.309  -2.159  53.135  1.00  0.00     0.206 C 
HETATM    8  N4  UNL     1      17.828  -2.773  53.969  1.00  0.00    -0.170 NA
HETATM    9  C21 UNL     1      15.905  -0.223  50.563  1.00  0.00     0.073 A 
HETATM   10  C22 UNL     1      15.910   0.797  49.680  1.00  0.00     0.103 A 
ENDROOT
BRANCH   4  11
HETATM   11  N1  UNL     1      19.648  -0.355  53.303  1.00  0.00    -0.365 N 
HETATM   12  H6  UNL     1      19.121  -0.887  54.050  1.00  0.00     0.165 HD
BRANCH  11  13
HETATM   13  C6  UNL     1      21.081  -0.430  53.487  1.00  0.00     0.031 A 
HETATM   14  C7  UNL     1      21.698  -1.122  54.538  1.00  0.00     0.030 A 
HETATM   15  C8  UNL     1      23.067  -1.114  54.575  1.00  0.00     0.016 A 
HETATM   16  C9  UNL     1      23.812  -0.460  53.628  1.00  0.00    -0.000 A 
HETATM   17  C17 UNL     1      23.224   0.211  52.609  1.00  0.00     0.016 A 
HETATM   18  C18 UNL     1      21.836   0.241  52.516  1.00  0.00     0.030 A 
BRANCH  16  19
HETATM   19  C10 UNL     1      25.278  -0.393  53.606  1.00  0.00     0.109 A 
HETATM   20  N2  UNL     1      26.198  -1.122  53.474  1.00  0.00    -0.240 NA
HETATM   21  C11 UNL     1      27.473  -0.790  53.498  1.00  0.00     0.075 A 
HETATM   22  C12 UNL     1      28.574  -1.642  53.342  1.00  0.00     0.033 A 
HETATM   23  C16 UNL     1      27.796   0.587  53.703  1.00  0.00     0.035 A 
HETATM   24  C13 UNL     1      29.829  -1.116  53.394  1.00  0.00     0.002 A 
HETATM   25  C14 UNL     1      30.137   0.216  53.592  1.00  0.00     0.002 A 
HETATM   26  C15 UNL     1      29.080   1.083  53.752  1.00  0.00     0.021 A 
HETATM   27  S1  UNL     1      26.105   1.294  53.849  1.00  0.00    -0.068 SA
ENDBRANCH  16  19
ENDBRANCH  11  13
ENDBRANCH   4  11
BRANCH  10  28
HETATM   28  O2  UNL     1      14.863   1.018  48.767  1.00  0.00    -0.353 OA
HETATM   29  C23 UNL     1      13.624   0.374  48.810  1.00  0.00     0.210 C 
ENDBRANCH  10  28
BRANCH   1  30
HETATM   30  O1  UNL     1      17.144   2.815  48.780  1.00  0.00    -0.353 OA
HETATM   31  C1  UNL     1      18.404   3.502  48.808  1.00  0.00     0.210 C 
ENDBRANCH   1  30
TORSDOF 5
ENDMDL
MODEL 6
REMARK VINA RESULT:      -8.5      7.196      9.271
REMARK  5 active torsions:
REMARK  status: ('A' for Active; 'I' for Inactive)
REMARK    1  A    between atoms: O1_2  and  C2_3 
REMARK    2  A    between atoms: C5_6  and  N1_7 
REMARK    3  A    between atoms: N1_7  and  C6_8 
REMARK    4  A    between atoms: C9_11  and  C10_12 
REMARK    5  A    between atoms: C22_28  and  O2_29 
ROOT
HETATM    1  C2  UNL     1      24.671   0.046  53.210  1.00  0.00     0.102 A 
HETATM    2  C3  UNL     1      25.169   0.893  52.336  1.00  0.00     0.054 A 
HETATM    3  C4  UNL     1      24.245   1.864  51.781  1.00  0.00     0.012 A 
HETATM    4  C5  UNL     1      24.605   2.760  50.890  1.00  0.00     0.102 C 
HETATM    5  C19 UNL     1      22.837   1.982  52.104  1.00  0.00     0.083 A 
HETATM    6  N3  UNL     1      21.820   2.638  51.874  1.00  0.00    -0.173 NA
HETATM    7  C20 UNL     1      21.591   3.704  51.078  1.00  0.00     0.206 C 
HETATM    8  N4  UNL     1      21.380   4.625  50.408  1.00  0.00    -0.170 NA
HETATM    9  C21 UNL     1      22.421   0.958  53.103  1.00  0.00     0.073 A 
HETATM   10  C22 UNL     1      23.279   0.054  53.620  1.00  0.00     0.103 A 
ENDROOT
BRANCH   4  11
HETATM   11  N1  UNL     1      24.354   3.843  50.027  1.00  0.00    -0.365 N 
HETATM   12  H6  UNL     1      23.386   4.157  49.740  1.00  0.00     0.165 HD
BRANCH  11  13
HETATM   13  C6  UNL     1      25.392   4.654  49.428  1.00  0.00     0.031 A 
HETATM   14  C7  UNL     1      25.210   5.988  49.035  1.00  0.00     0.030 A 
HETATM   15  C8  UNL     1      26.290   6.633  48.493  1.00  0.00     0.016 A 
HETATM   16  C9  UNL     1      27.501   6.010  48.338  1.00  0.00    -0.000 A 
HETATM   17  C17 UNL     1      27.685   4.723  48.716  1.00  0.00     0.016 A 
HETATM   18  C18 UNL     1      26.626   4.012  49.273  1.00  0.00     0.030 A 
BRANCH  16  19
HETATM   19  C10 UNL     1      28.698   6.627  47.756  1.00  0.00     0.109 A 
HETATM   20  N2  UNL     1      28.983   7.565  47.096  1.00  0.00    -0.240 NA
HETATM   21  C11 UNL     1      30.191   7.906  46.693  1.00  0.00     0.075 A 
HETATM   22  C12 UNL     1      30.543   9.014  45.913  1.00  0.00     0.033 A 
HETATM   23  C16 UNL     1      31.281   7.067  47.084  1.00  0.00     0.035 A 
HETATM   24  C13 UNL     1      31.853   9.208  45.593  1.00  0.00     0.002 A 
HETATM   25  C14 UNL     1      32.904   8.396  45.974  1.00  0.00     0.002 A 
HETATM   26  C15 UNL     1      32.595   7.295  46.741  1.00  0.00     0.021 A 
HETATM   27  S1  UNL     1      30.375   5.796  48.056  1.00  0.00    -0.068 SA
ENDBRANCH  16  19
ENDBRANCH  11  13
ENDBRANCH   4  11
BRANCH  10  28
HETATM   28  O2  UNL     1      22.888  -0.915  54.562  1.00  0.00    -0.353 OA
HETATM   29  C23 UNL     1      21.782  -1.758  54.422  1.00  0.00     0.210 C 
ENDBRANCH  10  28
BRANCH   1  30
HETATM   30  O1  UNL     1      25.649  -0.831  53.667  1.00  0.00    -0.353 OA
HETATM   31  C1  UNL     1      26.667  -1.188  52.719  1.00  0.00     0.210 C 
ENDBRANCH   1  30
TORSDOF 5
ENDMDL
MODEL 7
REMARK VINA RESULT:      -8.5      9.264     13.462
REMARK  5 active torsions:
REMARK  status: ('A' for Active; 'I' for Inactive)
REMARK    1  A    between atoms: O1_2  and  C2_3 
REMARK    2  A    between atoms: C5_6  and  N1_7 
REMARK    3  A    between atoms: N1_7  and  C6_8 
REMARK    4  A    between atoms: C9_11  and  C10_12 
REMARK    5  A    between atoms: C22_28  and  O2_29 
ROOT
HETATM    1  C2  UNL     1      27.687  10.933  48.541  1.00  0.00     0.102 A 
HETATM    2  C3  UNL     1      26.948   9.846  48.583  1.00  0.00     0.054 A 
HETATM    3  C4  UNL     1      27.655   8.583  48.484  1.00  0.00     0.012 A 
HETATM    4  C5  UNL     1      27.042   7.421  48.500  1.00  0.00     0.102 C 
HETATM    5  C19 UNL     1      29.088   8.417  48.344  1.00  0.00     0.083 A 
HETATM    6  N3  UNL     1      29.983   7.576  48.258  1.00  0.00    -0.173 NA
HETATM    7  C20 UNL     1      29.961   6.226  48.261  1.00  0.00     0.206 C 
HETATM    8  N4  UNL     1      29.961   5.068  48.272  1.00  0.00    -0.170 NA
HETATM    9  C21 UNL     1      29.787   9.733  48.310  1.00  0.00     0.073 A 
HETATM   10  C22 UNL     1      29.130  10.908  48.402  1.00  0.00     0.103 A 
ENDROOT
BRANCH   4  11
HETATM   11  N1  UNL     1      27.016   6.014  48.458  1.00  0.00    -0.365 N 
HETATM   12  H6  UNL     1      27.578   5.434  47.776  1.00  0.00     0.165 HD
BRANCH  11  13
HETATM   13  C6  UNL     1      26.216   5.195  49.342  1.00  0.00     0.031 A 
HETATM   14  C7  UNL     1      25.103   5.670  50.050  1.00  0.00     0.030 A 
HETATM   15  C8  UNL     1      24.435   4.772  50.841  1.00  0.00     0.016 A 
HETATM   16  C9  UNL     1      24.831   3.464  50.942  1.00  0.00    -0.000 A 
HETATM   17  C17 UNL     1      25.905   2.998  50.261  1.00  0.00     0.016 A 
HETATM   18  C18 UNL     1      26.625   3.860  49.441  1.00  0.00     0.030 A 
BRANCH  16  19
HETATM   19  C10 UNL     1      24.179   2.448  51.776  1.00  0.00     0.109 A 
HETATM   20  N2  UNL     1      24.474   1.499  52.415  1.00  0.00    -0.240 NA
HETATM   21  C11 UNL     1      23.655   0.725  53.099  1.00  0.00     0.075 A 
HETATM   22  C12 UNL     1      23.991  -0.401  53.861  1.00  0.00     0.033 A 
HETATM   23  C16 UNL     1      22.263   1.050  53.077  1.00  0.00     0.035 A 
HETATM   24  C13 UNL     1      23.003  -1.082  54.505  1.00  0.00     0.002 A 
HETATM   25  C14 UNL     1      21.659  -0.764  54.482  1.00  0.00     0.002 A 
HETATM   26  C15 UNL     1      21.290   0.337  53.741  1.00  0.00     0.021 A 
HETATM   27  S1  UNL     1      22.299   2.539  51.998  1.00  0.00    -0.068 SA
ENDBRANCH  16  19
ENDBRANCH  11  13
ENDBRANCH   4  11
BRANCH  10  28
HETATM   28  O2  UNL     1      29.787  12.152  48.368  1.00  0.00    -0.353 OA
HETATM   29  C23 UNL     1      30.738  12.573  49.301  1.00  0.00     0.210 C 
ENDBRANCH  10  28
BRANCH   1  30
HETATM   30  O1  UNL     1      26.898  12.074  48.644  1.00  0.00    -0.353 OA
HETATM   31  C1  UNL     1      25.670  12.061  47.901  1.00  0.00     0.210 C 
ENDBRANCH   1  30
TORSDOF 5
ENDMDL
MODEL 8
REMARK VINA RESULT:      -8.5      7.720      9.945
REMARK  5 active torsions:
REMARK  status: ('A' for Active; 'I' for Inactive)
REMARK    1  A    between atoms: O1_2  and  C2_3 
REMARK    2  A    between atoms: C5_6  and  N1_7 
REMARK    3  A    between atoms: N1_7  and  C6_8 
REMARK    4  A    between atoms: C9_11  and  C10_12 
REMARK    5  A    between atoms: C22_28  and  O2_29 
ROOT
HETATM    1  C2  UNL     1      25.147   0.108  53.182  1.00  0.00     0.102 A 
HETATM    2  C3  UNL     1      25.683   0.946  52.322  1.00  0.00     0.054 A 
HETATM    3  C4  UNL     1      24.763   1.805  51.601  1.00  0.00     0.012 A 
HETATM    4  C5  UNL     1      25.161   2.679  50.705  1.00  0.00     0.102 C 
HETATM    5  C19 UNL     1      23.321   1.820  51.744  1.00  0.00     0.083 A 
HETATM    6  N3  UNL     1      22.293   2.374  51.353  1.00  0.00    -0.173 NA
HETATM    7  C20 UNL     1      22.083   3.374  50.469  1.00  0.00     0.206 C 
HETATM    8  N4  UNL     1      21.886   4.236  49.722  1.00  0.00    -0.170 NA
HETATM    9  C21 UNL     1      22.864   0.819  52.749  1.00  0.00     0.073 A 
HETATM   10  C22 UNL     1      23.719   0.020  53.420  1.00  0.00     0.103 A 
ENDROOT
BRANCH   4  11
HETATM   11  N1  UNL     1      24.937   3.690  49.751  1.00  0.00    -0.365 N 
HETATM   12  H6  UNL     1      24.009   3.851  49.268  1.00  0.00     0.165 HD
BRANCH  11  13
HETATM   13  C6  UNL     1      25.948   4.629  49.317  1.00  0.00     0.031 A 
HETATM   14  C7  UNL     1      27.242   4.256  48.927  1.00  0.00     0.030 A 
HETATM   15  C8  UNL     1      28.088   5.257  48.528  1.00  0.00     0.016 A 
HETATM   16  C9  UNL     1      27.696   6.570  48.508  1.00  0.00    -0.000 A 
HETATM   17  C17 UNL     1      26.448   6.938  48.883  1.00  0.00     0.016 A 
HETATM   18  C18 UNL     1      25.541   5.968  49.299  1.00  0.00     0.030 A 
BRANCH  16  19
HETATM   19  C10 UNL     1      28.545   7.698  48.109  1.00  0.00     0.109 A 
HETATM   20  N2  UNL     1      29.386   8.386  48.573  1.00  0.00    -0.240 NA
HETATM   21  C11 UNL     1      30.015   9.375  47.971  1.00  0.00     0.075 A 
HETATM   22  C12 UNL     1      31.014  10.196  48.508  1.00  0.00     0.033 A 
HETATM   23  C16 UNL     1      29.657   9.661  46.616  1.00  0.00     0.035 A 
HETATM   24  C13 UNL     1      31.554  11.175  47.729  1.00  0.00     0.002 A 
HETATM   25  C14 UNL     1      31.206  11.447  46.421  1.00  0.00     0.002 A 
HETATM   26  C15 UNL     1      30.225  10.660  45.859  1.00  0.00     0.021 A 
HETATM   27  S1  UNL     1      28.364   8.380  46.350  1.00  0.00    -0.068 SA
ENDBRANCH  16  19
ENDBRANCH  11  13
ENDBRANCH   4  11
BRANCH  10  28
HETATM   28  O2  UNL     1      23.290  -0.928  54.368  1.00  0.00    -0.353 OA
HETATM   29  C23 UNL     1      21.955  -1.160  54.710  1.00  0.00     0.210 C 
ENDBRANCH  10  28
BRANCH   1  30
HETATM   30  O1  UNL     1      26.126  -0.657  53.808  1.00  0.00    -0.353 OA
HETATM   31  C1  UNL     1      27.335   0.032  54.159  1.00  0.00     0.210 C 
ENDBRANCH   1  30
TORSDOF 5
ENDMDL
MODEL 9
REMARK VINA RESULT:      -8.5      8.671     13.120
REMARK  5 active torsions:
REMARK  status: ('A' for Active; 'I' for Inactive)
REMARK    1  A    between atoms: O1_2  and  C2_3 
REMARK    2  A    between atoms: C5_6  and  N1_7 
REMARK    3  A    between atoms: N1_7  and  C6_8 
REMARK    4  A    between atoms: C9_11  and  C10_12 
REMARK    5  A    between atoms: C22_28  and  O2_29 
ROOT
HETATM    1  C2  UNL     1      31.473   6.014  47.208  1.00  0.00     0.102 A 
HETATM    2  C3  UNL     1      30.509   5.427  47.884  1.00  0.00     0.054 A 
HETATM    3  C4  UNL     1      29.210   6.073  47.845  1.00  0.00     0.012 A 
HETATM    4  C5  UNL     1      28.163   5.603  48.484  1.00  0.00     0.102 C 
HETATM    5  C19 UNL     1      28.886   7.294  47.136  1.00  0.00     0.083 A 
HETATM    6  N3  UNL     1      27.969   8.072  46.871  1.00  0.00    -0.173 NA
HETATM    7  C20 UNL     1      26.662   8.080  47.212  1.00  0.00     0.206 C 
HETATM    8  N4  UNL     1      25.537   8.097  47.487  1.00  0.00    -0.170 NA
HETATM    9  C21 UNL     1      30.075   7.840  46.421  1.00  0.00     0.073 A 
HETATM   10  C22 UNL     1      31.283   7.240  46.456  1.00  0.00     0.103 A 
ENDROOT
BRANCH   4  11
HETATM   11  N1  UNL     1      26.811   5.637  48.876  1.00  0.00    -0.365 N 
HETATM   12  H6  UNL     1      26.158   6.444  48.673  1.00  0.00     0.165 HD
BRANCH  11  13
HETATM   13  C6  UNL     1      26.155   4.573  49.604  1.00  0.00     0.031 A 
HETATM   14  C7  UNL     1      26.715   3.303  49.801  1.00  0.00     0.030 A 
HETATM   15  C8  UNL     1      25.978   2.400  50.522  1.00  0.00     0.016 A 
HETATM   16  C9  UNL     1      24.746   2.716  51.034  1.00  0.00    -0.000 A 
HETATM   17  C17 UNL     1      24.200   3.941  50.847  1.00  0.00     0.016 A 
HETATM   18  C18 UNL     1      24.897   4.902  50.123  1.00  0.00     0.030 A 
BRANCH  16  19
HETATM   19  C10 UNL     1      23.893   1.803  51.803  1.00  0.00     0.109 A 
HETATM   20  N2  UNL     1      22.755   1.495  51.870  1.00  0.00    -0.240 NA
HETATM   21  C11 UNL     1      22.227   0.606  52.688  1.00  0.00     0.075 A 
HETATM   22  C12 UNL     1      20.881   0.231  52.777  1.00  0.00     0.033 A 
HETATM   23  C16 UNL     1      23.106  -0.064  53.595  1.00  0.00     0.035 A 
HETATM   24  C13 UNL     1      20.518  -0.714  53.689  1.00  0.00     0.002 A 
HETATM   25  C14 UNL     1      21.370  -1.360  54.564  1.00  0.00     0.002 A 
HETATM   26  C15 UNL     1      22.702  -1.015  54.505  1.00  0.00     0.021 A 
HETATM   27  S1  UNL     1      24.704   0.720  53.130  1.00  0.00    -0.068 SA
ENDBRANCH  16  19
ENDBRANCH  11  13
ENDBRANCH   4  11
BRANCH  10  28
HETATM   28  O2  UNL     1      32.408   7.754  45.785  1.00  0.00    -0.353 OA
HETATM   29  C23 UNL     1      32.393   8.884  44.963  1.00  0.00     0.210 C 
ENDBRANCH  10  28
BRANCH   1  30
HETATM   30  O1  UNL     1      32.663   5.304  47.322  1.00  0.00    -0.353 OA
HETATM   31  C1  UNL     1      32.554   3.970  47.842  1.00  0.00     0.210 C 
ENDBRANCH   1  30
TORSDOF 5
ENDMDL
