MODEL 1
REMARK VINA RESULT:      -8.5      0.000      0.000
REMARK  7 active torsions:
REMARK  status: ('A' for Active; 'I' for Inactive)
REMARK    1  A    between atoms: C6_6  and  C7_7 
REMARK    2  A    between atoms: C7_7  and  N1_8 
REMARK    3  A    between atoms: N1_8  and  C8_9 
REMARK    4  A    between atoms: N1_8  and  C15_17 
REMARK    5  A    between atoms: C8_9  and  C9_10 
REMARK    6  A    between atoms: C15_17  and  N2_19 
REMARK    7  A    between atoms: C21_25  and  O1_26 
ROOT
HETATM    1  N1  UNL     1      24.579   2.727  51.969  1.00  0.00    -0.349 N 
ENDROOT
BRANCH   1   2
HETATM    2  C7  UNL     1      24.041   1.457  51.665  1.00  0.00     0.167 C 
BRANCH   2   3
HETATM    3  C6  UNL     1      22.777   1.062  52.376  1.00  0.00    -0.007 A 
HETATM    4  C5  UNL     1      21.633   1.871  52.313  1.00  0.00     0.011 A 
HETATM    5  C4  UNL     1      20.479   1.523  52.981  1.00  0.00     0.001 A 
HETATM    6  C3  UNL     1      20.452   0.356  53.723  1.00  0.00     0.009 A 
HETATM    7  C2  UNL     1      21.573  -0.461  53.800  1.00  0.00    -0.028 A 
HETATM    8  C1  UNL     1      21.674  -1.733  54.561  1.00  0.00     0.051 C 
HETATM    9  C21 UNL     1      22.750  -0.122  53.130  1.00  0.00     0.079 A 
BRANCH   9  10
HETATM   10  O1  UNL     1      23.912  -0.886  53.157  1.00  0.00    -0.360 OA
HETATM   11  H21 UNL     1      24.744  -0.568  53.609  1.00  0.00     0.217 HD
ENDBRANCH   9  10
ENDBRANCH   2   3
ENDBRANCH   1   2
BRANCH   1  12
HETATM   12  C8  UNL     1      24.924   2.541  53.391  1.00  0.00     0.164 C 
BRANCH  12  13
HETATM   13  C9  UNL     1      26.252   1.900  53.574  1.00  0.00    -0.040 A 
HETATM   14  C10 UNL     1      27.460   2.161  52.950  1.00  0.00     0.012 A 
HETATM   15  C11 UNL     1      28.598   1.461  53.240  1.00  0.00     0.043 A 
HETATM   16  C12 UNL     1      28.614   0.450  54.174  1.00  0.00     0.116 A 
HETATM   17  F1  UNL     1      29.787  -0.188  54.396  1.00  0.00    -0.206 F 
HETATM   18  C13 UNL     1      27.443   0.152  54.821  1.00  0.00     0.043 A 
HETATM   19  C14 UNL     1      26.326   0.862  54.515  1.00  0.00     0.012 A 
ENDBRANCH  12  13
ENDBRANCH   1  12
BRANCH   1  20
HETATM   20  C15 UNL     1      24.758   3.922  51.223  1.00  0.00     0.176 C 
HETATM   21  S1  UNL     1      23.460   4.865  51.660  1.00  0.00    -0.040 SA
BRANCH  20  22
HETATM   22  N2  UNL     1      25.586   4.603  50.311  1.00  0.00    -0.331 N 
HETATM   23  C16 UNL     1      25.527   5.951  49.897  1.00  0.00     0.093 A 
HETATM   24  C17 UNL     1      26.281   6.607  49.045  1.00  0.00     0.017 A 
HETATM   25  C18 UNL     1      27.352   5.854  48.417  1.00  0.00    -0.001 A 
HETATM   26  C19 UNL     1      27.456   4.592  48.769  1.00  0.00    -0.007 A 
HETATM   27  C20 UNL     1      26.653   3.838  49.697  1.00  0.00     0.158 A 
ENDBRANCH  20  22
ENDBRANCH   1  20
TORSDOF 7
ENDMDL
MODEL 2
REMARK VINA RESULT:      -8.4      3.121      6.291
REMARK  7 active torsions:
REMARK  status: ('A' for Active; 'I' for Inactive)
REMARK    1  A    between atoms: C6_6  and  C7_7 
REMARK    2  A    between atoms: C7_7  and  N1_8 
REMARK    3  A    between atoms: N1_8  and  C8_9 
REMARK    4  A    between atoms: N1_8  and  C15_17 
REMARK    5  A    between atoms: C8_9  and  C9_10 
REMARK    6  A    between atoms: C15_17  and  N2_19 
REMARK    7  A    between atoms: C21_25  and  O1_26 
ROOT
HETATM    1  N1  UNL     1      25.717   2.539  51.012  1.00  0.00    -0.349 N 
ENDROOT
BRANCH   1   2
HETATM    2  C7  UNL     1      26.715   2.402  52.001  1.00  0.00     0.167 C 
BRANCH   2   3
HETATM    3  C6  UNL     1      27.123   1.004  52.372  1.00  0.00    -0.007 A 
HETATM    4  C5  UNL     1      26.243  -0.074  52.192  1.00  0.00     0.011 A 
HETATM    5  C4  UNL     1      26.605  -1.354  52.551  1.00  0.00     0.001 A 
HETATM    6  C3  UNL     1      27.856  -1.576  53.098  1.00  0.00     0.009 A 
HETATM    7  C2  UNL     1      28.744  -0.524  53.285  1.00  0.00    -0.028 A 
HETATM    8  C1  UNL     1      30.110  -0.629  53.861  1.00  0.00     0.051 C 
HETATM    9  C21 UNL     1      28.393   0.778  52.927  1.00  0.00     0.079 A 
BRANCH   9  10
HETATM   10  O1  UNL     1      29.224   1.883  53.083  1.00  0.00    -0.360 OA
HETATM   11  H21 UNL     1      29.000   2.773  52.690  1.00  0.00     0.217 HD
ENDBRANCH   9  10
ENDBRANCH   2   3
ENDBRANCH   1   2
BRANCH   1  12
HETATM   12  C8  UNL     1      26.551   2.751  49.813  1.00  0.00     0.164 C 
BRANCH  12  13
HETATM   13  C9  UNL     1      26.484   4.149  49.314  1.00  0.00    -0.040 A 
HETATM   14  C10 UNL     1      25.412   5.025  49.262  1.00  0.00     0.012 A 
HETATM   15  C11 UNL     1      25.529   6.291  48.759  1.00  0.00     0.043 A 
HETATM   16  C12 UNL     1      26.722   6.777  48.275  1.00  0.00     0.116 A 
HETATM   17  F1  UNL     1      26.742   8.043  47.797  1.00  0.00    -0.206 F 
HETATM   18  C13 UNL     1      27.814   5.949  48.305  1.00  0.00     0.043 A 
HETATM   19  C14 UNL     1      27.673   4.695  48.808  1.00  0.00     0.012 A 
ENDBRANCH  12  13
ENDBRANCH   1  12
BRANCH   1  20
HETATM   20  C15 UNL     1      24.298   2.531  51.041  1.00  0.00     0.176 C 
HETATM   21  S1  UNL     1      23.919   3.427  52.390  1.00  0.00    -0.040 SA
BRANCH  20  22
HETATM   22  N2  UNL     1      23.131   2.097  50.385  1.00  0.00    -0.331 N 
HETATM   23  C16 UNL     1      22.668   2.423  49.092  1.00  0.00     0.093 A 
HETATM   24  C17 UNL     1      21.582   2.037  48.460  1.00  0.00     0.017 A 
HETATM   25  C18 UNL     1      20.703   1.134  49.180  1.00  0.00    -0.001 A 
HETATM   26  C19 UNL     1      21.086   0.794  50.390  1.00  0.00    -0.007 A 
HETATM   27  C20 UNL     1      22.266   1.192  51.115  1.00  0.00     0.158 A 
ENDBRANCH  20  22
ENDBRANCH   1  20
TORSDOF 7
ENDMDL
MODEL 3
REMARK VINA RESULT:      -8.3      2.180      5.958
REMARK  7 active torsions:
REMARK  status: ('A' for Active; 'I' for Inactive)
REMARK    1  A    between atoms: C6_6  and  C7_7 
REMARK    2  A    between atoms: C7_7  and  N1_8 
REMARK    3  A    between atoms: N1_8  and  C8_9 
REMARK    4  A    between atoms: N1_8  and  C15_17 
REMARK    5  A    between atoms: C8_9  and  C9_10 
REMARK    6  A    between atoms: C15_17  and  N2_19 
REMARK    7  A    between atoms: C21_25  and  O1_26 
ROOT
HETATM    1  N1  UNL     1      25.904   2.196  51.862  1.00  0.00    -0.349 N 
ENDROOT
BRANCH   1   2
HETATM    2  C7  UNL     1      26.287   2.416  50.521  1.00  0.00     0.167 C 
BRANCH   2   3
HETATM    3  C6  UNL     1      25.674   3.594  49.818  1.00  0.00    -0.007 A 
HETATM    4  C5  UNL     1      24.293   3.652  49.582  1.00  0.00     0.011 A 
HETATM    5  C4  UNL     1      23.730   4.721  48.919  1.00  0.00     0.001 A 
HETATM    6  C3  UNL     1      24.543   5.751  48.481  1.00  0.00     0.009 A 
HETATM    7  C2  UNL     1      25.913   5.715  48.704  1.00  0.00    -0.028 A 
HETATM    8  C1  UNL     1      26.891   6.752  48.286  1.00  0.00     0.051 C 
HETATM    9  C21 UNL     1      26.499   4.640  49.374  1.00  0.00     0.079 A 
BRANCH   9  10
HETATM   10  O1  UNL     1      27.861   4.531  49.636  1.00  0.00    -0.360 OA
HETATM   11  H21 UNL     1      28.454   5.333  49.700  1.00  0.00     0.217 HD
ENDBRANCH   9  10
ENDBRANCH   2   3
ENDBRANCH   1   2
BRANCH   1  12
HETATM   12  C8  UNL     1      27.223   2.194  52.524  1.00  0.00     0.164 C 
BRANCH  12  13
HETATM   13  C9  UNL     1      27.733   0.820  52.770  1.00  0.00    -0.040 A 
HETATM   14  C10 UNL     1      27.137  -0.407  52.529  1.00  0.00     0.012 A 
HETATM   15  C11 UNL     1      27.756  -1.589  52.826  1.00  0.00     0.043 A 
HETATM   16  C12 UNL     1      29.014  -1.634  53.383  1.00  0.00     0.116 A 
HETATM   17  F1  UNL     1      29.547  -2.850  53.643  1.00  0.00    -0.206 F 
HETATM   18  C13 UNL     1      29.647  -0.446  53.641  1.00  0.00     0.043 A 
HETATM   19  C14 UNL     1      29.012   0.715  53.337  1.00  0.00     0.012 A 
ENDBRANCH  12  13
ENDBRANCH   1  12
BRANCH   1  20
HETATM   20  C15 UNL     1      24.656   1.988  52.506  1.00  0.00     0.176 C 
HETATM   21  S1  UNL     1      24.327   3.449  53.227  1.00  0.00    -0.040 SA
BRANCH  20  22
HETATM   22  N2  UNL     1      23.617   1.068  52.742  1.00  0.00    -0.331 N 
HETATM   23  C16 UNL     1      23.626  -0.091  53.549  1.00  0.00     0.093 A 
HETATM   24  C17 UNL     1      22.675  -0.967  53.780  1.00  0.00     0.017 A 
HETATM   25  C18 UNL     1      21.404  -0.731  53.118  1.00  0.00    -0.001 A 
HETATM   26  C19 UNL     1      21.338   0.337  52.355  1.00  0.00    -0.007 A 
HETATM   27  C20 UNL     1      22.354   1.320  52.078  1.00  0.00     0.158 A 
ENDBRANCH  20  22
ENDBRANCH   1  20
TORSDOF 7
ENDMDL
MODEL 4
REMARK VINA RESULT:      -8.1      2.308      5.110
REMARK  7 active torsions:
REMARK  status: ('A' for Active; 'I' for Inactive)
REMARK    1  A    between atoms: C6_6  and  C7_7 
REMARK    2  A    between atoms: C7_7  and  N1_8 
REMARK    3  A    between atoms: N1_8  and  C8_9 
REMARK    4  A    between atoms: N1_8  and  C15_17 
REMARK    5  A    between atoms: C8_9  and  C9_10 
REMARK    6  A    between atoms: C15_17  and  N2_19 
REMARK    7  A    between atoms: C21_25  and  O1_26 
ROOT
HETATM    1  N1  UNL     1      24.826   2.051  51.752  1.00  0.00    -0.349 N 
ENDROOT
BRANCH   1   2
HETATM    2  C7  UNL     1      25.442   0.804  51.998  1.00  0.00     0.167 C 
BRANCH   2   3
HETATM    3  C6  UNL     1      26.808   0.827  52.626  1.00  0.00    -0.007 A 
HETATM    4  C5  UNL     1      27.398   2.037  53.019  1.00  0.00     0.011 A 
HETATM    5  C4  UNL     1      28.658   2.065  53.576  1.00  0.00     0.001 A 
HETATM    6  C3  UNL     1      29.348   0.878  53.749  1.00  0.00     0.009 A 
HETATM    7  C2  UNL     1      28.783  -0.332  53.367  1.00  0.00    -0.028 A 
HETATM    8  C1  UNL     1      29.418  -1.669  53.498  1.00  0.00     0.051 C 
HETATM    9  C21 UNL     1      27.508  -0.377  52.802  1.00  0.00     0.079 A 
BRANCH   9  10
HETATM   10  O1  UNL     1      26.875  -1.547  52.395  1.00  0.00    -0.360 OA
HETATM   11  H21 UNL     1      26.852  -1.830  51.437  1.00  0.00     0.217 HD
ENDBRANCH   9  10
ENDBRANCH   2   3
ENDBRANCH   1   2
BRANCH   1  12
HETATM   12  C8  UNL     1      24.072   2.231  53.007  1.00  0.00     0.164 C 
BRANCH  12  13
HETATM   13  C9  UNL     1      23.154   1.095  53.285  1.00  0.00    -0.040 A 
HETATM   14  C10 UNL     1      23.414  -0.140  53.854  1.00  0.00     0.012 A 
HETATM   15  C11 UNL     1      22.438  -1.081  54.033  1.00  0.00     0.043 A 
HETATM   16  C12 UNL     1      21.132  -0.857  53.660  1.00  0.00     0.116 A 
HETATM   17  F1  UNL     1      20.234  -1.847  53.876  1.00  0.00    -0.206 F 
HETATM   18  C13 UNL     1      20.822   0.351  53.092  1.00  0.00     0.043 A 
HETATM   19  C14 UNL     1      21.810   1.269  52.924  1.00  0.00     0.012 A 
ENDBRANCH  12  13
ENDBRANCH   1  12
BRANCH   1  20
HETATM   20  C15 UNL     1      24.826   2.946  50.651  1.00  0.00     0.176 C 
HETATM   21  S1  UNL     1      23.345   2.704  49.937  1.00  0.00    -0.040 SA
BRANCH  20  22
HETATM   22  N2  UNL     1      25.555   3.938  49.967  1.00  0.00    -0.331 N 
HETATM   23  C16 UNL     1      26.821   3.839  49.350  1.00  0.00     0.093 A 
HETATM   24  C17 UNL     1      27.524   4.749  48.714  1.00  0.00     0.017 A 
HETATM   25  C18 UNL     1      26.930   6.070  48.612  1.00  0.00    -0.001 A 
HETATM   26  C19 UNL     1      25.749   6.218  49.168  1.00  0.00    -0.007 A 
HETATM   27  C20 UNL     1      24.947   5.249  49.870  1.00  0.00     0.158 A 
ENDBRANCH  20  22
ENDBRANCH   1  20
TORSDOF 7
ENDMDL
MODEL 5
REMARK VINA RESULT:      -8.1      2.966      6.622
REMARK  7 active torsions:
REMARK  status: ('A' for Active; 'I' for Inactive)
REMARK    1  A    between atoms: C6_6  and  C7_7 
REMARK    2  A    between atoms: C7_7  and  N1_8 
REMARK    3  A    between atoms: N1_8  and  C8_9 
REMARK    4  A    between atoms: N1_8  and  C15_17 
REMARK    5  A    between atoms: C8_9  and  C9_10 
REMARK    6  A    between atoms: C15_17  and  N2_19 
REMARK    7  A    between atoms: C21_25  and  O1_26 
ROOT
HETATM    1  N1  UNL     1      25.053   1.477  52.277  1.00  0.00    -0.349 N 
ENDROOT
BRANCH   1   2
HETATM    2  C7  UNL     1      24.591   1.699  50.961  1.00  0.00     0.167 C 
BRANCH   2   3
HETATM    3  C6  UNL     1      25.099   2.925  50.255  1.00  0.00    -0.007 A 
HETATM    4  C5  UNL     1      26.462   3.070  49.954  1.00  0.00     0.011 A 
HETATM    5  C4  UNL     1      26.934   4.202  49.327  1.00  0.00     0.001 A 
HETATM    6  C3  UNL     1      26.048   5.210  48.990  1.00  0.00     0.009 A 
HETATM    7  C2  UNL     1      24.695   5.088  49.279  1.00  0.00    -0.028 A 
HETATM    8  C1  UNL     1      23.646   6.094  48.972  1.00  0.00     0.051 C 
HETATM    9  C21 UNL     1      24.200   3.949  49.914  1.00  0.00     0.079 A 
BRANCH   9  10
HETATM   10  O1  UNL     1      22.861   3.752  50.236  1.00  0.00    -0.360 OA
HETATM   11  H21 UNL     1      22.232   3.282  49.618  1.00  0.00     0.217 HD
ENDBRANCH   9  10
ENDBRANCH   2   3
ENDBRANCH   1   2
BRANCH   1  12
HETATM   12  C8  UNL     1      23.890   1.946  53.054  1.00  0.00     0.164 C 
BRANCH  12  13
HETATM   13  C9  UNL     1      22.930   0.852  53.356  1.00  0.00    -0.040 A 
HETATM   14  C10 UNL     1      23.159  -0.420  53.855  1.00  0.00     0.012 A 
HETATM   15  C11 UNL     1      22.146  -1.312  54.070  1.00  0.00     0.043 A 
HETATM   16  C12 UNL     1      20.831  -1.001  53.807  1.00  0.00     0.116 A 
HETATM   17  F1  UNL     1      19.895  -1.947  54.051  1.00  0.00    -0.206 F 
HETATM   18  C13 UNL     1      20.551   0.247  53.312  1.00  0.00     0.043 A 
HETATM   19  C14 UNL     1      21.575   1.115  53.106  1.00  0.00     0.012 A 
ENDBRANCH  12  13
ENDBRANCH   1  12
BRANCH   1  20
HETATM   20  C15 UNL     1      26.268   0.986  52.821  1.00  0.00     0.176 C 
HETATM   21  S1  UNL     1      26.856   2.264  53.708  1.00  0.00    -0.040 SA
BRANCH  20  22
HETATM   22  N2  UNL     1      27.126  -0.126  52.918  1.00  0.00    -0.331 N 
HETATM   23  C16 UNL     1      28.463  -0.176  53.368  1.00  0.00     0.093 A 
HETATM   24  C17 UNL     1      29.285  -1.197  53.461  1.00  0.00     0.017 A 
HETATM   25  C18 UNL     1      28.763  -2.487  53.046  1.00  0.00    -0.001 A 
HETATM   26  C19 UNL     1      27.520  -2.499  52.620  1.00  0.00    -0.007 A 
HETATM   27  C20 UNL     1      26.589  -1.406  52.505  1.00  0.00     0.158 A 
ENDBRANCH  20  22
ENDBRANCH   1  20
TORSDOF 7
ENDMDL
MODEL 6
REMARK VINA RESULT:      -8.1      2.638      6.496
REMARK  7 active torsions:
REMARK  status: ('A' for Active; 'I' for Inactive)
REMARK    1  A    between atoms: C6_6  and  C7_7 
REMARK    2  A    between atoms: C7_7  and  N1_8 
REMARK    3  A    between atoms: N1_8  and  C8_9 
REMARK    4  A    between atoms: N1_8  and  C15_17 
REMARK    5  A    between atoms: C8_9  and  C9_10 
REMARK    6  A    between atoms: C15_17  and  N2_19 
REMARK    7  A    between atoms: C21_25  and  O1_26 
ROOT
HETATM    1  N1  UNL     1      24.945   2.960  51.066  1.00  0.00    -0.349 N 
ENDROOT
BRANCH   1   2
HETATM    2  C7  UNL     1      26.335   2.864  51.293  1.00  0.00     0.167 C 
BRANCH   2   3
HETATM    3  C6  UNL     1      26.834   1.614  51.963  1.00  0.00    -0.007 A 
HETATM    4  C5  UNL     1      26.231   0.373  51.710  1.00  0.00     0.011 A 
HETATM    5  C4  UNL     1      26.672  -0.772  52.338  1.00  0.00     0.001 A 
HETATM    6  C3  UNL     1      27.726  -0.692  53.230  1.00  0.00     0.009 A 
HETATM    7  C2  UNL     1      28.338   0.526  53.496  1.00  0.00    -0.028 A 
HETATM    8  C1  UNL     1      29.473   0.745  54.429  1.00  0.00     0.051 C 
HETATM    9  C21 UNL     1      27.904   1.695  52.869  1.00  0.00     0.079 A 
BRANCH   9  10
HETATM   10  O1  UNL     1      28.465   2.950  53.081  1.00  0.00    -0.360 OA
HETATM   11  H21 UNL     1      29.113   3.122  53.821  1.00  0.00     0.217 HD
ENDBRANCH   9  10
ENDBRANCH   2   3
ENDBRANCH   1   2
BRANCH   1  12
HETATM   12  C8  UNL     1      24.925   3.167  49.605  1.00  0.00     0.164 C 
BRANCH  12  13
HETATM   13  C9  UNL     1      25.834   4.262  49.174  1.00  0.00    -0.040 A 
HETATM   14  C10 UNL     1      27.196   4.243  48.930  1.00  0.00     0.012 A 
HETATM   15  C11 UNL     1      27.884   5.358  48.540  1.00  0.00     0.043 A 
HETATM   16  C12 UNL     1      27.262   6.573  48.363  1.00  0.00     0.116 A 
HETATM   17  F1  UNL     1      28.023   7.623  47.975  1.00  0.00    -0.206 F 
HETATM   18  C13 UNL     1      25.912   6.645  48.590  1.00  0.00     0.043 A 
HETATM   19  C14 UNL     1      25.251   5.523  48.978  1.00  0.00     0.012 A 
ENDBRANCH  12  13
ENDBRANCH   1  12
BRANCH   1  20
HETATM   20  C15 UNL     1      23.806   2.921  51.912  1.00  0.00     0.176 C 
HETATM   21  S1  UNL     1      23.557   4.512  52.324  1.00  0.00    -0.040 SA
BRANCH  20  22
HETATM   22  N2  UNL     1      22.829   2.094  52.497  1.00  0.00    -0.331 N 
HETATM   23  C16 UNL     1      23.005   0.919  53.259  1.00  0.00     0.093 A 
HETATM   24  C17 UNL     1      22.112   0.127  53.809  1.00  0.00     0.017 A 
HETATM   25  C18 UNL     1      20.719   0.494  53.621  1.00  0.00    -0.001 A 
HETATM   26  C19 UNL     1      20.497   1.583  52.920  1.00  0.00    -0.007 A 
HETATM   27  C20 UNL     1      21.445   2.476  52.304  1.00  0.00     0.158 A 
ENDBRANCH  20  22
ENDBRANCH   1  20
TORSDOF 7
ENDMDL
MODEL 7
REMARK VINA RESULT:      -8.0      2.496      5.183
REMARK  7 active torsions:
REMARK  status: ('A' for Active; 'I' for Inactive)
REMARK    1  A    between atoms: C6_6  and  C7_7 
REMARK    2  A    between atoms: C7_7  and  N1_8 
REMARK    3  A    between atoms: N1_8  and  C8_9 
REMARK    4  A    between atoms: N1_8  and  C15_17 
REMARK    5  A    between atoms: C8_9  and  C9_10 
REMARK    6  A    between atoms: C15_17  and  N2_19 
REMARK    7  A    between atoms: C21_25  and  O1_26 
ROOT
HETATM    1  N1  UNL     1      23.972   0.985  53.200  1.00  0.00    -0.349 N 
ENDROOT
BRANCH   1   2
HETATM    2  C7  UNL     1      24.779   2.142  53.255  1.00  0.00     0.167 C 
BRANCH   2   3
HETATM    3  C6  UNL     1      25.121   2.801  51.948  1.00  0.00    -0.007 A 
HETATM    4  C5  UNL     1      26.185   2.333  51.163  1.00  0.00     0.011 A 
HETATM    5  C4  UNL     1      26.515   2.948  49.975  1.00  0.00     0.001 A 
HETATM    6  C3  UNL     1      25.783   4.044  49.553  1.00  0.00     0.009 A 
HETATM    7  C2  UNL     1      24.726   4.525  50.314  1.00  0.00    -0.028 A 
HETATM    8  C1  UNL     1      23.867   5.688  49.975  1.00  0.00     0.051 C 
HETATM    9  C21 UNL     1      24.379   3.914  51.520  1.00  0.00     0.079 A 
BRANCH   9  10
HETATM   10  O1  UNL     1      23.335   4.335  52.337  1.00  0.00    -0.360 OA
HETATM   11  H21 UNL     1      22.493   4.721  51.964  1.00  0.00     0.217 HD
ENDBRANCH   9  10
ENDBRANCH   2   3
ENDBRANCH   1   2
BRANCH   1  12
HETATM   12  C8  UNL     1      24.602   0.165  54.253  1.00  0.00     0.164 C 
BRANCH  12  13
HETATM   13  C9  UNL     1      26.000  -0.213  53.917  1.00  0.00    -0.040 A 
HETATM   14  C10 UNL     1      26.487  -0.989  52.879  1.00  0.00     0.012 A 
HETATM   15  C11 UNL     1      27.821  -1.244  52.722  1.00  0.00     0.043 A 
HETATM   16  C12 UNL     1      28.766  -0.741  53.587  1.00  0.00     0.116 A 
HETATM   17  F1  UNL     1      30.064  -1.045  53.352  1.00  0.00    -0.206 F 
HETATM   18  C13 UNL     1      28.335   0.035  54.632  1.00  0.00     0.043 A 
HETATM   19  C14 UNL     1      27.004   0.272  54.767  1.00  0.00     0.012 A 
ENDBRANCH  12  13
ENDBRANCH   1  12
BRANCH   1  20
HETATM   20  C15 UNL     1      22.873   0.592  52.392  1.00  0.00     0.176 C 
HETATM   21  S1  UNL     1      22.317  -0.797  53.118  1.00  0.00    -0.040 SA
BRANCH  20  22
HETATM   22  N2  UNL     1      22.087   0.919  51.271  1.00  0.00    -0.331 N 
HETATM   23  C16 UNL     1      22.483   1.522  50.057  1.00  0.00     0.093 A 
HETATM   24  C17 UNL     1      21.770   1.844  49.002  1.00  0.00     0.017 A 
HETATM   25  C18 UNL     1      20.350   1.543  49.065  1.00  0.00    -0.001 A 
HETATM   26  C19 UNL     1      19.926   0.978  50.173  1.00  0.00    -0.007 A 
HETATM   27  C20 UNL     1      20.674   0.609  51.348  1.00  0.00     0.158 A 
ENDBRANCH  20  22
ENDBRANCH   1  20
TORSDOF 7
ENDMDL
MODEL 8
REMARK VINA RESULT:      -7.9      3.562      6.909
REMARK  7 active torsions:
REMARK  status: ('A' for Active; 'I' for Inactive)
REMARK    1  A    between atoms: C6_6  and  C7_7 
REMARK    2  A    between atoms: C7_7  and  N1_8 
REMARK    3  A    between atoms: N1_8  and  C8_9 
REMARK    4  A    between atoms: N1_8  and  C15_17 
REMARK    5  A    between atoms: C8_9  and  C9_10 
REMARK    6  A    between atoms: C15_17  and  N2_19 
REMARK    7  A    between atoms: C21_25  and  O1_26 
ROOT
HETATM    1  N1  UNL     1      24.056   0.401  53.156  1.00  0.00    -0.349 N 
ENDROOT
BRANCH   1   2
HETATM    2  C7  UNL     1      25.182   0.380  54.008  1.00  0.00     0.167 C 
BRANCH   2   3
HETATM    3  C6  UNL     1      26.366  -0.430  53.558  1.00  0.00    -0.007 A 
HETATM    4  C5  UNL     1      26.190  -1.654  52.895  1.00  0.00     0.011 A 
HETATM    5  C4  UNL     1      27.272  -2.409  52.500  1.00  0.00     0.001 A 
HETATM    6  C3  UNL     1      28.551  -1.951  52.764  1.00  0.00     0.009 A 
HETATM    7  C2  UNL     1      28.748  -0.743  53.420  1.00  0.00    -0.028 A 
HETATM    8  C1  UNL     1      30.064  -0.143  53.762  1.00  0.00     0.051 C 
HETATM    9  C21 UNL     1      27.663   0.035  53.826  1.00  0.00     0.079 A 
BRANCH   9  10
HETATM   10  O1  UNL     1      27.779   1.254  54.486  1.00  0.00    -0.360 OA
HETATM   11  H21 UNL     1      28.663   1.617  54.775  1.00  0.00     0.217 HD
ENDBRANCH   9  10
ENDBRANCH   2   3
ENDBRANCH   1   2
BRANCH   1  12
HETATM   12  C8  UNL     1      24.604   1.139  52.002  1.00  0.00     0.164 C 
BRANCH  12  13
HETATM   13  C9  UNL     1      24.060   2.518  51.900  1.00  0.00    -0.040 A 
HETATM   14  C10 UNL     1      23.933   3.499  52.870  1.00  0.00     0.012 A 
HETATM   15  C11 UNL     1      23.398   4.727  52.600  1.00  0.00     0.043 A 
HETATM   16  C12 UNL     1      22.953   5.069  51.343  1.00  0.00     0.116 A 
HETATM   17  F1  UNL     1      22.438   6.308  51.169  1.00  0.00    -0.206 F 
HETATM   18  C13 UNL     1      23.057   4.133  50.347  1.00  0.00     0.043 A 
HETATM   19  C14 UNL     1      23.592   2.919  50.640  1.00  0.00     0.012 A 
ENDBRANCH  12  13
ENDBRANCH   1  12
BRANCH   1  20
HETATM   20  C15 UNL     1      22.725  -0.080  53.275  1.00  0.00     0.176 C 
HETATM   21  S1  UNL     1      22.759  -1.022  54.644  1.00  0.00    -0.040 SA
BRANCH  20  22
HETATM   22  N2  UNL     1      21.433  -0.052  52.719  1.00  0.00    -0.331 N 
HETATM   23  C16 UNL     1      21.024   0.417  51.452  1.00  0.00     0.093 A 
HETATM   24  C17 UNL     1      19.826   0.461  50.913  1.00  0.00     0.017 A 
HETATM   25  C18 UNL     1      18.734  -0.047  51.724  1.00  0.00    -0.001 A 
HETATM   26  C19 UNL     1      19.058  -0.500  52.914  1.00  0.00    -0.007 A 
HETATM   27  C20 UNL     1      20.355  -0.567  53.539  1.00  0.00     0.158 A 
ENDBRANCH  20  22
ENDBRANCH   1  20
TORSDOF 7
ENDMDL
MODEL 9
REMARK VINA RESULT:      -7.8      1.853      6.104
REMARK  7 active torsions:
REMARK  status: ('A' for Active; 'I' for Inactive)
REMARK    1  A    between atoms: C6_6  and  C7_7 
REMARK    2  A    between atoms: C7_7  and  N1_8 
REMARK    3  A    between atoms: N1_8  and  C8_9 
REMARK    4  A    between atoms: N1_8  and  C15_17 
REMARK    5  A    between atoms: C8_9  and  C9_10 
REMARK    6  A    between atoms: C15_17  and  N2_19 
REMARK    7  A    between atoms: C21_25  and  O1_26 
ROOT
HETATM    1  N1  UNL     1      23.874   2.344  51.604  1.00  0.00    -0.349 N 
ENDROOT
BRANCH   1   2
HETATM    2  C7  UNL     1      24.275   2.465  50.256  1.00  0.00     0.167 C 
BRANCH   2   3
HETATM    3  C6  UNL     1      24.787   3.807  49.812  1.00  0.00    -0.007 A 
HETATM    4  C5  UNL     1      23.944   4.929  49.796  1.00  0.00     0.011 A 
HETATM    5  C4  UNL     1      24.404   6.156  49.369  1.00  0.00     0.001 A 
HETATM    6  C3  UNL     1      25.717   6.280  48.952  1.00  0.00     0.009 A 
HETATM    7  C2  UNL     1      26.569   5.183  48.960  1.00  0.00    -0.028 A 
HETATM    8  C1  UNL     1      27.993   5.184  48.537  1.00  0.00     0.051 C 
HETATM    9  C21 UNL     1      26.120   3.933  49.388  1.00  0.00     0.079 A 
BRANCH   9  10
HETATM   10  O1  UNL     1      26.910   2.789  49.426  1.00  0.00    -0.360 OA
HETATM   11  H21 UNL     1      27.686   2.702  50.050  1.00  0.00     0.217 HD
ENDBRANCH   9  10
ENDBRANCH   2   3
ENDBRANCH   1   2
BRANCH   1  12
HETATM   12  C8  UNL     1      25.095   2.804  52.292  1.00  0.00     0.164 C 
BRANCH  12  13
HETATM   13  C9  UNL     1      26.028   1.688  52.600  1.00  0.00    -0.040 A 
HETATM   14  C10 UNL     1      26.135   0.433  52.025  1.00  0.00     0.012 A 
HETATM   15  C11 UNL     1      27.059  -0.484  52.440  1.00  0.00     0.043 A 
HETATM   16  C12 UNL     1      27.946  -0.216  53.458  1.00  0.00     0.116 A 
HETATM   17  F1  UNL     1      28.826  -1.185  53.803  1.00  0.00    -0.206 F 
HETATM   18  C13 UNL     1      27.882   1.013  54.061  1.00  0.00     0.043 A 
HETATM   19  C14 UNL     1      26.954   1.907  53.631  1.00  0.00     0.012 A 
ENDBRANCH  12  13
ENDBRANCH   1  12
BRANCH   1  20
HETATM   20  C15 UNL     1      22.687   1.892  52.238  1.00  0.00     0.176 C 
HETATM   21  S1  UNL     1      21.634   3.169  52.076  1.00  0.00    -0.040 SA
BRANCH  20  22
HETATM   22  N2  UNL     1      22.070   0.817  52.905  1.00  0.00    -0.331 N 
HETATM   23  C16 UNL     1      20.697   0.502  52.996  1.00  0.00     0.093 A 
HETATM   24  C17 UNL     1      20.096  -0.488  53.616  1.00  0.00     0.017 A 
HETATM   25  C18 UNL     1      20.954  -1.421  54.325  1.00  0.00    -0.001 A 
HETATM   26  C19 UNL     1      22.244  -1.178  54.272  1.00  0.00    -0.007 A 
HETATM   27  C20 UNL     1      22.940  -0.107  53.604  1.00  0.00     0.158 A 
ENDBRANCH  20  22
ENDBRANCH   1  20
TORSDOF 7
ENDMDL
