MODEL 1
REMARK VINA RESULT:      -7.8      0.000      0.000
REMARK  7 active torsions:
REMARK  status: ('A' for Active; 'I' for Inactive)
REMARK    1  A    between atoms: C2_2  and  C3_3 
REMARK    2  A    between atoms: C4_5  and  C5_6 
REMARK    3  A    between atoms: C7_8  and  C8_9 
REMARK    4  A    between atoms: C11_12  and  O1_13 
REMARK    5  A    between atoms: N2_18  and  C15_19 
REMARK    6  A    between atoms: C15_19  and  S1_20 
REMARK    7  A    between atoms: S1_20  and  C16_21 
ROOT
HETATM    1  C5  UNL     1      25.308   0.254  53.751  1.00  0.00     0.136 C 
HETATM    2  C6  UNL     1      25.582   1.708  53.442  1.00  0.00     0.093 C 
HETATM    3  C7  UNL     1      25.860   1.617  51.966  1.00  0.00     0.067 C 
HETATM    4  N1  UNL     1      26.219   0.399  51.669  1.00  0.00    -0.180 NA
HETATM    5  N2  UNL     1      26.220  -0.388  52.824  1.00  0.00    -0.287 N 
ENDROOT
BRANCH   3   6
HETATM    6  C8  UNL     1      25.722   2.780  51.073  1.00  0.00    -0.010 A 
HETATM    7  C9  UNL     1      26.668   3.082  50.104  1.00  0.00     0.016 A 
HETATM    8  C10 UNL     1      26.556   4.156  49.266  1.00  0.00     0.037 A 
HETATM    9  C11 UNL     1      25.462   4.987  49.373  1.00  0.00     0.068 A 
HETATM   10  C13 UNL     1      24.535   4.668  50.341  1.00  0.00     0.037 A 
HETATM   11  C14 UNL     1      24.590   3.593  51.224  1.00  0.00     0.016 A 
BRANCH   9  12
HETATM   12  O1  UNL     1      25.309   6.084  48.547  1.00  0.00    -0.356 OA
HETATM   13  C12 UNL     1      26.230   7.151  48.635  1.00  0.00     0.210 C 
ENDBRANCH   9  12
ENDBRANCH   3   6
BRANCH   1  14
HETATM   14  C4  UNL     1      23.899  -0.144  53.491  1.00  0.00     0.038 C 
HETATM   15  C3  UNL     1      23.000  -0.790  54.225  1.00  0.00     0.091 C 
HETATM   16  F1  UNL     1      23.176  -1.275  55.483  1.00  0.00    -0.211 F 
BRANCH  15  17
HETATM   17  C2  UNL     1      21.582  -1.149  53.867  1.00  0.00     0.065 C 
HETATM   18  C1  UNL     1      20.849   0.129  53.580  1.00  0.00     0.012 C 
ENDBRANCH  15  17
ENDBRANCH   1  14
BRANCH   5  19
HETATM   19  C15 UNL     1      27.030  -1.586  52.912  1.00  0.00     0.223 C 
BRANCH  19  20
HETATM   20  S1  UNL     1      28.786  -1.177  53.226  1.00  0.00    -0.116 SA
BRANCH  20  21
HETATM   21  C16 UNL     1      28.960  -0.172  54.676  1.00  0.00     0.106 C 
HETATM   22  C17 UNL     1      29.072   1.119  54.324  1.00  0.00     0.196 A 
HETATM   23  N3  UNL     1      29.137   2.214  53.438  1.00  0.00    -0.235 N 
HETATM   24  O2  UNL     1      29.232   2.483  54.780  1.00  0.00    -0.215 OA
HETATM   25  H20 UNL     1      29.128   2.611  52.474  1.00  0.00     0.197 HD
ENDBRANCH  20  21
ENDBRANCH  19  20
ENDBRANCH   5  19
TORSDOF 7
ENDMDL
MODEL 2
REMARK VINA RESULT:      -7.6      1.773      1.966
REMARK  7 active torsions:
REMARK  status: ('A' for Active; 'I' for Inactive)
REMARK    1  A    between atoms: C2_2  and  C3_3 
REMARK    2  A    between atoms: C4_5  and  C5_6 
REMARK    3  A    between atoms: C7_8  and  C8_9 
REMARK    4  A    between atoms: C11_12  and  O1_13 
REMARK    5  A    between atoms: N2_18  and  C15_19 
REMARK    6  A    between atoms: C15_19  and  S1_20 
REMARK    7  A    between atoms: S1_20  and  C16_21 
ROOT
HETATM    1  C5  UNL     1      23.926   1.278  53.145  1.00  0.00     0.136 C 
HETATM    2  C6  UNL     1      24.298   2.712  52.849  1.00  0.00     0.093 C 
HETATM    3  C7  UNL     1      25.307   2.504  51.752  1.00  0.00     0.067 C 
HETATM    4  N1  UNL     1      25.788   1.294  51.833  1.00  0.00    -0.180 NA
HETATM    5  N2  UNL     1      25.198   0.623  52.908  1.00  0.00    -0.287 N 
ENDROOT
BRANCH   3   6
HETATM    6  C8  UNL     1      25.636   3.563  50.783  1.00  0.00    -0.010 A 
HETATM    7  C9  UNL     1      26.726   3.469  49.931  1.00  0.00     0.016 A 
HETATM    8  C10 UNL     1      27.046   4.442  49.025  1.00  0.00     0.037 A 
HETATM    9  C11 UNL     1      26.263   5.571  48.939  1.00  0.00     0.068 A 
HETATM   10  C13 UNL     1      25.185   5.643  49.794  1.00  0.00     0.037 A 
HETATM   11  C14 UNL     1      24.806   4.691  50.738  1.00  0.00     0.016 A 
BRANCH   9  12
HETATM   12  O1  UNL     1      26.550   6.579  48.038  1.00  0.00    -0.356 OA
HETATM   13  C12 UNL     1      27.882   7.032  47.906  1.00  0.00     0.210 C 
ENDBRANCH   9  12
ENDBRANCH   3   6
BRANCH   1  14
HETATM   14  C4  UNL     1      22.867   0.750  52.245  1.00  0.00     0.038 C 
HETATM   15  C3  UNL     1      21.600   1.099  52.050  1.00  0.00     0.091 C 
HETATM   16  F1  UNL     1      20.928   2.100  52.680  1.00  0.00    -0.211 F 
BRANCH  15  17
HETATM   17  C2  UNL     1      20.597   0.495  51.104  1.00  0.00     0.065 C 
HETATM   18  C1  UNL     1      21.099   0.717  49.707  1.00  0.00     0.012 C 
ENDBRANCH  15  17
ENDBRANCH   1  14
BRANCH   5  19
HETATM   19  C15 UNL     1      25.863  -0.496  53.545  1.00  0.00     0.223 C 
BRANCH  19  20
HETATM   20  S1  UNL     1      27.554  -0.726  52.886  1.00  0.00    -0.116 SA
BRANCH  20  21
HETATM   21  C16 UNL     1      28.774  -0.135  54.030  1.00  0.00     0.106 C 
HETATM   22  C17 UNL     1      28.690   1.202  54.133  1.00  0.00     0.196 A 
HETATM   23  N3  UNL     1      28.182   2.488  53.859  1.00  0.00    -0.235 N 
HETATM   24  O2  UNL     1      29.219   2.397  54.753  1.00  0.00    -0.215 OA
HETATM   25  H20 UNL     1      27.520   3.122  53.363  1.00  0.00     0.197 HD
ENDBRANCH  20  21
ENDBRANCH  19  20
ENDBRANCH   5  19
TORSDOF 7
ENDMDL
MODEL 3
REMARK VINA RESULT:      -7.4      2.864      5.680
REMARK  7 active torsions:
REMARK  status: ('A' for Active; 'I' for Inactive)
REMARK    1  A    between atoms: C2_2  and  C3_3 
REMARK    2  A    between atoms: C4_5  and  C5_6 
REMARK    3  A    between atoms: C7_8  and  C8_9 
REMARK    4  A    between atoms: C11_12  and  O1_13 
REMARK    5  A    between atoms: N2_18  and  C15_19 
REMARK    6  A    between atoms: C15_19  and  S1_20 
REMARK    7  A    between atoms: S1_20  and  C16_21 
ROOT
HETATM    1  C5  UNL     1      22.555   2.295  51.810  1.00  0.00     0.136 C 
HETATM    2  C6  UNL     1      23.821   1.594  51.374  1.00  0.00     0.093 C 
HETATM    3  C7  UNL     1      24.784   2.124  52.403  1.00  0.00     0.067 C 
HETATM    4  N1  UNL     1      24.322   3.242  52.890  1.00  0.00    -0.180 NA
HETATM    5  N2  UNL     1      23.101   3.552  52.286  1.00  0.00    -0.287 N 
ENDROOT
BRANCH   3   6
HETATM    6  C8  UNL     1      26.032   1.418  52.739  1.00  0.00    -0.010 A 
HETATM    7  C9  UNL     1      27.106   2.063  53.336  1.00  0.00     0.016 A 
HETATM    8  C10 UNL     1      28.271   1.424  53.656  1.00  0.00     0.037 A 
HETATM    9  C11 UNL     1      28.404   0.081  53.383  1.00  0.00     0.068 A 
HETATM   10  C13 UNL     1      27.326  -0.540  52.791  1.00  0.00     0.037 A 
HETATM   11  C14 UNL     1      26.115   0.052  52.440  1.00  0.00     0.016 A 
BRANCH   9  12
HETATM   12  O1  UNL     1      29.564  -0.604  53.690  1.00  0.00    -0.356 OA
HETATM   13  C12 UNL     1      29.650  -1.985  53.402  1.00  0.00     0.210 C 
ENDBRANCH   9  12
ENDBRANCH   3   6
BRANCH   1  14
HETATM   14  C4  UNL     1      21.828   1.575  52.889  1.00  0.00     0.038 C 
HETATM   15  C3  UNL     1      21.939   0.345  53.377  1.00  0.00     0.091 C 
HETATM   16  F1  UNL     1      22.813  -0.615  52.970  1.00  0.00    -0.211 F 
BRANCH  15  17
HETATM   17  C2  UNL     1      21.147  -0.297  54.484  1.00  0.00     0.065 C 
HETATM   18  C1  UNL     1      21.446  -1.767  54.464  1.00  0.00     0.012 C 
ENDBRANCH  15  17
ENDBRANCH   1  14
BRANCH   5  19
HETATM   19  C15 UNL     1      22.618   4.917  52.234  1.00  0.00     0.223 C 
BRANCH  19  20
HETATM   20  S1  UNL     1      23.712   5.970  51.213  1.00  0.00    -0.116 SA
BRANCH  20  21
HETATM   21  C16 UNL     1      24.129   5.170  49.687  1.00  0.00     0.106 C 
HETATM   22  C17 UNL     1      25.338   4.595  49.790  1.00  0.00     0.196 A 
HETATM   23  N3  UNL     1      26.542   4.226  50.425  1.00  0.00    -0.235 N 
HETATM   24  O2  UNL     1      26.364   3.818  49.128  1.00  0.00    -0.215 OA
HETATM   25  H20 UNL     1      27.174   4.223  51.255  1.00  0.00     0.197 HD
ENDBRANCH  20  21
ENDBRANCH  19  20
ENDBRANCH   5  19
TORSDOF 7
ENDMDL
MODEL 4
REMARK VINA RESULT:      -7.4      3.448      6.693
REMARK  7 active torsions:
REMARK  status: ('A' for Active; 'I' for Inactive)
REMARK    1  A    between atoms: C2_2  and  C3_3 
REMARK    2  A    between atoms: C4_5  and  C5_6 
REMARK    3  A    between atoms: C7_8  and  C8_9 
REMARK    4  A    between atoms: C11_12  and  O1_13 
REMARK    5  A    between atoms: N2_18  and  C15_19 
REMARK    6  A    between atoms: C15_19  and  S1_20 
REMARK    7  A    between atoms: S1_20  and  C16_21 
ROOT
HETATM    1  C5  UNL     1      26.515   2.087  52.634  1.00  0.00     0.136 C 
HETATM    2  C6  UNL     1      25.251   1.972  53.454  1.00  0.00     0.093 C 
HETATM    3  C7  UNL     1      24.311   1.420  52.416  1.00  0.00     0.067 C 
HETATM    4  N1  UNL     1      24.764   1.708  51.228  1.00  0.00    -0.180 NA
HETATM    5  N2  UNL     1      25.958   2.426  51.339  1.00  0.00    -0.287 N 
ENDROOT
BRANCH   3   6
HETATM    6  C8  UNL     1      23.090   0.682  52.782  1.00  0.00    -0.010 A 
HETATM    7  C9  UNL     1      23.072  -0.247  53.813  1.00  0.00     0.016 A 
HETATM    8  C10 UNL     1      21.948  -0.940  54.167  1.00  0.00     0.037 A 
HETATM    9  C11 UNL     1      20.773  -0.719  53.484  1.00  0.00     0.068 A 
HETATM   10  C13 UNL     1      20.814   0.207  52.465  1.00  0.00     0.037 A 
HETATM   11  C14 UNL     1      21.922   0.944  52.055  1.00  0.00     0.016 A 
BRANCH   9  12
HETATM   12  O1  UNL     1      19.614  -1.398  53.809  1.00  0.00    -0.356 OA
HETATM   13  C12 UNL     1      18.404  -1.050  53.168  1.00  0.00     0.210 C 
ENDBRANCH   9  12
ENDBRANCH   3   6
BRANCH   1  14
HETATM   14  C4  UNL     1      27.292   0.820  52.576  1.00  0.00     0.038 C 
HETATM   15  C3  UNL     1      27.787   0.028  53.521  1.00  0.00     0.091 C 
HETATM   16  F1  UNL     1      27.687   0.209  54.866  1.00  0.00    -0.211 F 
BRANCH  15  17
HETATM   17  C2  UNL     1      28.569  -1.248  53.358  1.00  0.00     0.065 C 
HETATM   18  C1  UNL     1      30.011  -0.934  53.628  1.00  0.00     0.012 C 
ENDBRANCH  15  17
ENDBRANCH   1  14
BRANCH   5  19
HETATM   19  C15 UNL     1      26.410   3.296  50.271  1.00  0.00     0.223 C 
BRANCH  19  20
HETATM   20  S1  UNL     1      25.212   4.645  49.963  1.00  0.00    -0.116 SA
BRANCH  20  21
HETATM   21  C16 UNL     1      25.918   5.905  48.935  1.00  0.00     0.106 C 
HETATM   22  C17 UNL     1      26.192   6.993  49.673  1.00  0.00     0.196 A 
HETATM   23  N3  UNL     1      26.259   7.775  50.844  1.00  0.00    -0.235 N 
HETATM   24  O2  UNL     1      26.719   8.341  49.682  1.00  0.00    -0.215 OA
HETATM   25  H20 UNL     1      26.100   7.904  51.866  1.00  0.00     0.197 HD
ENDBRANCH  20  21
ENDBRANCH  19  20
ENDBRANCH   5  19
TORSDOF 7
ENDMDL
MODEL 5
REMARK VINA RESULT:      -7.3      3.886      6.943
REMARK  7 active torsions:
REMARK  status: ('A' for Active; 'I' for Inactive)
REMARK    1  A    between atoms: C2_2  and  C3_3 
REMARK    2  A    between atoms: C4_5  and  C5_6 
REMARK    3  A    between atoms: C7_8  and  C8_9 
REMARK    4  A    between atoms: C11_12  and  O1_13 
REMARK    5  A    between atoms: N2_18  and  C15_19 
REMARK    6  A    between atoms: C15_19  and  S1_20 
REMARK    7  A    between atoms: S1_20  and  C16_21 
ROOT
HETATM    1  C5  UNL     1      23.060   3.711  52.166  1.00  0.00     0.136 C 
HETATM    2  C6  UNL     1      24.126   3.274  53.144  1.00  0.00     0.093 C 
HETATM    3  C7  UNL     1      24.226   1.814  52.791  1.00  0.00     0.067 C 
HETATM    4  N1  UNL     1      23.122   1.436  52.209  1.00  0.00    -0.180 NA
HETATM    5  N2  UNL     1      22.241   2.516  52.119  1.00  0.00    -0.287 N 
ENDROOT
BRANCH   3   6
HETATM    6  C8  UNL     1      25.426   1.017  53.100  1.00  0.00    -0.010 A 
HETATM    7  C9  UNL     1      25.596  -0.273  52.620  1.00  0.00     0.016 A 
HETATM    8  C10 UNL     1      26.703  -1.027  52.895  1.00  0.00     0.037 A 
HETATM    9  C11 UNL     1      27.704  -0.498  53.679  1.00  0.00     0.068 A 
HETATM   10  C13 UNL     1      27.514   0.784  54.144  1.00  0.00     0.037 A 
HETATM   11  C14 UNL     1      26.414   1.603  53.902  1.00  0.00     0.016 A 
BRANCH   9  12
HETATM   12  O1  UNL     1      28.840  -1.225  53.982  1.00  0.00    -0.356 OA
HETATM   13  C12 UNL     1      30.102  -0.740  53.574  1.00  0.00     0.210 C 
ENDBRANCH   9  12
ENDBRANCH   3   6
BRANCH   1  14
HETATM   14  C4  UNL     1      23.602   4.053  50.824  1.00  0.00     0.038 C 
HETATM   15  C3  UNL     1      24.303   5.089  50.377  1.00  0.00     0.091 C 
HETATM   16  F1  UNL     1      24.719   6.161  51.104  1.00  0.00    -0.211 F 
BRANCH  15  17
HETATM   17  C2  UNL     1      24.810   5.345  48.983  1.00  0.00     0.065 C 
HETATM   18  C1  UNL     1      26.308   5.286  49.026  1.00  0.00     0.012 C 
ENDBRANCH  15  17
ENDBRANCH   1  14
BRANCH   5  19
HETATM   19  C15 UNL     1      20.812   2.307  52.002  1.00  0.00     0.223 C 
BRANCH  19  20
HETATM   20  S1  UNL     1      20.417   0.534  51.782  1.00  0.00    -0.116 SA
BRANCH  20  21
HETATM   21  C16 UNL     1      19.914  -0.205  53.313  1.00  0.00     0.106 C 
HETATM   22  C17 UNL     1      20.972  -0.780  53.909  1.00  0.00     0.196 A 
HETATM   23  N3  UNL     1      22.321  -1.167  54.052  1.00  0.00    -0.235 N 
HETATM   24  O2  UNL     1      21.453  -1.527  55.051  1.00  0.00    -0.215 OA
HETATM   25  H20 UNL     1      23.303  -1.198  53.705  1.00  0.00     0.197 HD
ENDBRANCH  20  21
ENDBRANCH  19  20
ENDBRANCH   5  19
TORSDOF 7
ENDMDL
MODEL 6
REMARK VINA RESULT:      -7.3      3.493      6.637
REMARK  7 active torsions:
REMARK  status: ('A' for Active; 'I' for Inactive)
REMARK    1  A    between atoms: C2_2  and  C3_3 
REMARK    2  A    between atoms: C4_5  and  C5_6 
REMARK    3  A    between atoms: C7_8  and  C8_9 
REMARK    4  A    between atoms: C11_12  and  O1_13 
REMARK    5  A    between atoms: N2_18  and  C15_19 
REMARK    6  A    between atoms: C15_19  and  S1_20 
REMARK    7  A    between atoms: S1_20  and  C16_21 
ROOT
HETATM    1  C5  UNL     1      26.407   2.148  52.434  1.00  0.00     0.136 C 
HETATM    2  C6  UNL     1      25.148   2.068  53.266  1.00  0.00     0.093 C 
HETATM    3  C7  UNL     1      24.204   1.464  52.261  1.00  0.00     0.067 C 
HETATM    4  N1  UNL     1      24.649   1.698  51.058  1.00  0.00    -0.180 NA
HETATM    5  N2  UNL     1      25.841   2.424  51.128  1.00  0.00    -0.287 N 
ENDROOT
BRANCH   3   6
HETATM    6  C8  UNL     1      22.988   0.741  52.670  1.00  0.00    -0.010 A 
HETATM    7  C9  UNL     1      21.717   1.222  52.393  1.00  0.00     0.016 A 
HETATM    8  C10 UNL     1      20.577   0.564  52.763  1.00  0.00     0.037 A 
HETATM    9  C11 UNL     1      20.675  -0.631  53.440  1.00  0.00     0.068 A 
HETATM   10  C13 UNL     1      21.947  -1.091  53.704  1.00  0.00     0.037 A 
HETATM   11  C14 UNL     1      23.145  -0.470  53.356  1.00  0.00     0.016 A 
BRANCH   9  12
HETATM   12  O1  UNL     1      19.550  -1.330  53.834  1.00  0.00    -0.356 OA
HETATM   13  C12 UNL     1      18.321  -1.088  53.179  1.00  0.00     0.210 C 
ENDBRANCH   9  12
ENDBRANCH   3   6
BRANCH   1  14
HETATM   14  C4  UNL     1      27.188   0.882  52.431  1.00  0.00     0.038 C 
HETATM   15  C3  UNL     1      27.761   0.181  53.403  1.00  0.00     0.091 C 
HETATM   16  F1  UNL     1      27.764   0.483  54.729  1.00  0.00    -0.211 F 
BRANCH  15  17
HETATM   17  C2  UNL     1      28.539  -1.104  53.296  1.00  0.00     0.065 C 
HETATM   18  C1  UNL     1      29.974  -0.793  53.607  1.00  0.00     0.012 C 
ENDBRANCH  15  17
ENDBRANCH   1  14
BRANCH   5  19
HETATM   19  C15 UNL     1      26.283   3.243  50.017  1.00  0.00     0.223 C 
BRANCH  19  20
HETATM   20  S1  UNL     1      25.508   4.900  50.065  1.00  0.00    -0.116 SA
BRANCH  20  21
HETATM   21  C16 UNL     1      23.748   4.778  50.245  1.00  0.00     0.106 C 
HETATM   22  C17 UNL     1      23.406   5.006  51.523  1.00  0.00     0.196 A 
HETATM   23  N3  UNL     1      23.622   5.301  52.885  1.00  0.00    -0.235 N 
HETATM   24  O2  UNL     1      22.326   5.103  52.482  1.00  0.00    -0.215 OA
HETATM   25  H20 UNL     1      24.258   5.519  53.682  1.00  0.00     0.197 HD
ENDBRANCH  20  21
ENDBRANCH  19  20
ENDBRANCH   5  19
TORSDOF 7
ENDMDL
MODEL 7
REMARK VINA RESULT:      -6.9      2.015      2.494
REMARK  7 active torsions:
REMARK  status: ('A' for Active; 'I' for Inactive)
REMARK    1  A    between atoms: C2_2  and  C3_3 
REMARK    2  A    between atoms: C4_5  and  C5_6 
REMARK    3  A    between atoms: C7_8  and  C8_9 
REMARK    4  A    between atoms: C11_12  and  O1_13 
REMARK    5  A    between atoms: N2_18  and  C15_19 
REMARK    6  A    between atoms: C15_19  and  S1_20 
REMARK    7  A    between atoms: S1_20  and  C16_21 
ROOT
HETATM    1  C5  UNL     1      24.764   1.368  53.310  1.00  0.00     0.136 C 
HETATM    2  C6  UNL     1      24.503   2.856  53.369  1.00  0.00     0.093 C 
HETATM    3  C7  UNL     1      24.370   3.159  51.901  1.00  0.00     0.067 C 
HETATM    4  N1  UNL     1      24.971   2.229  51.213  1.00  0.00    -0.180 NA
HETATM    5  N2  UNL     1      25.525   1.283  52.079  1.00  0.00    -0.287 N 
ENDROOT
BRANCH   3   6
HETATM    6  C8  UNL     1      23.653   4.349  51.412  1.00  0.00    -0.010 A 
HETATM    7  C9  UNL     1      24.213   5.219  50.489  1.00  0.00     0.016 A 
HETATM    8  C10 UNL     1      23.563   6.328  50.023  1.00  0.00     0.037 A 
HETATM    9  C11 UNL     1      22.294   6.609  50.479  1.00  0.00     0.068 A 
HETATM   10  C13 UNL     1      21.757   5.732  51.395  1.00  0.00     0.037 A 
HETATM   11  C14 UNL     1      22.364   4.589  51.908  1.00  0.00     0.016 A 
BRANCH   9  12
HETATM   12  O1  UNL     1      21.601   7.719  50.035  1.00  0.00    -0.356 OA
HETATM   13  C12 UNL     1      20.249   7.582  49.646  1.00  0.00     0.210 C 
ENDBRANCH   9  12
ENDBRANCH   3   6
BRANCH   1  14
HETATM   14  C4  UNL     1      23.519   0.558  53.236  1.00  0.00     0.038 C 
HETATM   15  C3  UNL     1      23.112  -0.523  53.893  1.00  0.00     0.091 C 
HETATM   16  F1  UNL     1      23.797  -1.189  54.861  1.00  0.00    -0.211 F 
BRANCH  15  17
HETATM   17  C2  UNL     1      21.819  -1.277  53.744  1.00  0.00     0.065 C 
HETATM   18  C1  UNL     1      20.704  -0.273  53.740  1.00  0.00     0.012 C 
ENDBRANCH  15  17
ENDBRANCH   1  14
BRANCH   5  19
HETATM   19  C15 UNL     1      26.641   0.456  51.668  1.00  0.00     0.223 C 
BRANCH  19  20
HETATM   20  S1  UNL     1      27.220  -0.607  53.041  1.00  0.00    -0.116 SA
BRANCH  20  21
HETATM   21  C16 UNL     1      28.760  -0.024  53.697  1.00  0.00     0.106 C 
HETATM   22  C17 UNL     1      28.662   1.282  53.993  1.00  0.00     0.196 A 
HETATM   23  N3  UNL     1      28.029   2.538  54.102  1.00  0.00    -0.235 N 
HETATM   24  O2  UNL     1      29.335   2.454  54.512  1.00  0.00    -0.215 OA
HETATM   25  H20 UNL     1      27.196   3.154  53.982  1.00  0.00     0.197 HD
ENDBRANCH  20  21
ENDBRANCH  19  20
ENDBRANCH   5  19
TORSDOF 7
ENDMDL
MODEL 8
REMARK VINA RESULT:      -6.9      3.955      6.615
REMARK  7 active torsions:
REMARK  status: ('A' for Active; 'I' for Inactive)
REMARK    1  A    between atoms: C2_2  and  C3_3 
REMARK    2  A    between atoms: C4_5  and  C5_6 
REMARK    3  A    between atoms: C7_8  and  C8_9 
REMARK    4  A    between atoms: C11_12  and  O1_13 
REMARK    5  A    between atoms: N2_18  and  C15_19 
REMARK    6  A    between atoms: C15_19  and  S1_20 
REMARK    7  A    between atoms: S1_20  and  C16_21 
ROOT
HETATM    1  C5  UNL     1      20.632   1.405  50.948  1.00  0.00     0.136 C 
HETATM    2  C6  UNL     1      22.044   0.867  50.966  1.00  0.00     0.093 C 
HETATM    3  C7  UNL     1      22.588   1.591  52.168  1.00  0.00     0.067 C 
HETATM    4  N1  UNL     1      21.873   2.659  52.388  1.00  0.00    -0.180 NA
HETATM    5  N2  UNL     1      20.858   2.753  51.431  1.00  0.00    -0.287 N 
ENDROOT
BRANCH   3   6
HETATM    6  C8  UNL     1      23.754   1.093  52.917  1.00  0.00    -0.010 A 
HETATM    7  C9  UNL     1      24.884   1.871  53.123  1.00  0.00     0.016 A 
HETATM    8  C10 UNL     1      25.976   1.426  53.816  1.00  0.00     0.037 A 
HETATM    9  C11 UNL     1      25.971   0.152  54.341  1.00  0.00     0.068 A 
HETATM   10  C13 UNL     1      24.839  -0.602  54.125  1.00  0.00     0.037 A 
HETATM   11  C14 UNL     1      23.698  -0.210  53.430  1.00  0.00     0.016 A 
BRANCH   9  12
HETATM   12  O1  UNL     1      27.053  -0.338  55.048  1.00  0.00    -0.356 OA
HETATM   13  C12 UNL     1      28.338   0.197  54.807  1.00  0.00     0.210 C 
ENDBRANCH   9  12
ENDBRANCH   3   6
BRANCH   1  14
HETATM   14  C4  UNL     1      19.709   0.655  51.840  1.00  0.00     0.038 C 
HETATM   15  C3  UNL     1      18.600  -0.038  51.604  1.00  0.00     0.091 C 
HETATM   16  F1  UNL     1      18.008  -0.236  50.396  1.00  0.00    -0.211 F 
BRANCH  15  17
HETATM   17  C2  UNL     1      17.727  -0.769  52.588  1.00  0.00     0.065 C 
HETATM   18  C1  UNL     1      18.622  -1.596  53.464  1.00  0.00     0.012 C 
ENDBRANCH  15  17
ENDBRANCH   1  14
BRANCH   5  19
HETATM   19  C15 UNL     1      20.253   4.029  51.107  1.00  0.00     0.223 C 
BRANCH  19  20
HETATM   20  S1  UNL     1      21.124   4.842  49.718  1.00  0.00    -0.116 SA
BRANCH  20  21
HETATM   21  C16 UNL     1      21.973   6.301  50.260  1.00  0.00     0.106 C 
HETATM   22  C17 UNL     1      23.048   5.958  50.987  1.00  0.00     0.196 A 
HETATM   23  N3  UNL     1      23.958   5.079  51.612  1.00  0.00    -0.235 N 
HETATM   24  O2  UNL     1      24.190   6.424  51.744  1.00  0.00    -0.215 OA
HETATM   25  H20 UNL     1      24.282   4.117  51.847  1.00  0.00     0.197 HD
ENDBRANCH  20  21
ENDBRANCH  19  20
ENDBRANCH   5  19
TORSDOF 7
ENDMDL
MODEL 9
REMARK VINA RESULT:      -6.9      3.830      6.705
REMARK  7 active torsions:
REMARK  status: ('A' for Active; 'I' for Inactive)
REMARK    1  A    between atoms: C2_2  and  C3_3 
REMARK    2  A    between atoms: C4_5  and  C5_6 
REMARK    3  A    between atoms: C7_8  and  C8_9 
REMARK    4  A    between atoms: C11_12  and  O1_13 
REMARK    5  A    between atoms: N2_18  and  C15_19 
REMARK    6  A    between atoms: C15_19  and  S1_20 
REMARK    7  A    between atoms: S1_20  and  C16_21 
ROOT
HETATM    1  C5  UNL     1      23.289   0.987  51.827  1.00  0.00     0.136 C 
HETATM    2  C6  UNL     1      22.096   0.284  51.222  1.00  0.00     0.093 C 
HETATM    3  C7  UNL     1      21.311  -0.025  52.468  1.00  0.00     0.067 C 
HETATM    4  N1  UNL     1      22.115  -0.025  53.495  1.00  0.00    -0.180 NA
HETATM    5  N2  UNL     1      23.417   0.260  53.076  1.00  0.00    -0.287 N 
ENDROOT
BRANCH   3   6
HETATM    6  C8  UNL     1      19.860  -0.276  52.434  1.00  0.00    -0.010 A 
HETATM    7  C9  UNL     1      19.214  -1.001  53.425  1.00  0.00     0.016 A 
HETATM    8  C10 UNL     1      17.869  -1.243  53.410  1.00  0.00     0.037 A 
HETATM    9  C11 UNL     1      17.104  -0.754  52.374  1.00  0.00     0.068 A 
HETATM   10  C13 UNL     1      17.766  -0.037  51.401  1.00  0.00     0.037 A 
HETATM   11  C14 UNL     1      19.130   0.244  51.357  1.00  0.00     0.016 A 
BRANCH   9  12
HETATM   12  O1  UNL     1      15.742  -0.975  52.319  1.00  0.00    -0.356 OA
HETATM   13  C12 UNL     1      15.257  -2.301  52.259  1.00  0.00     0.210 C 
ENDBRANCH   9  12
ENDBRANCH   3   6
BRANCH   1  14
HETATM   14  C4  UNL     1      23.057   2.437  52.064  1.00  0.00     0.038 C 
HETATM   15  C3  UNL     1      23.718   3.346  52.771  1.00  0.00     0.091 C 
HETATM   16  F1  UNL     1      24.849   3.144  53.500  1.00  0.00    -0.211 F 
BRANCH  15  17
HETATM   17  C2  UNL     1      23.398   4.807  52.950  1.00  0.00     0.065 C 
HETATM   18  C1  UNL     1      22.273   5.143  52.016  1.00  0.00     0.012 C 
ENDBRANCH  15  17
ENDBRANCH   1  14
BRANCH   5  19
HETATM   19  C15 UNL     1      24.563  -0.159  53.858  1.00  0.00     0.223 C 
BRANCH  19  20
HETATM   20  S1  UNL     1      26.093  -0.143  52.854  1.00  0.00    -0.116 SA
BRANCH  20  21
HETATM   21  C16 UNL     1      27.535  -0.117  53.884  1.00  0.00     0.106 C 
HETATM   22  C17 UNL     1      27.952   1.149  54.050  1.00  0.00     0.196 A 
HETATM   23  N3  UNL     1      27.926   2.549  53.885  1.00  0.00    -0.235 N 
HETATM   24  O2  UNL     1      28.930   2.025  54.659  1.00  0.00    -0.215 OA
HETATM   25  H20 UNL     1      27.499   3.414  53.489  1.00  0.00     0.197 HD
ENDBRANCH  20  21
ENDBRANCH  19  20
ENDBRANCH   5  19
TORSDOF 7
ENDMDL
