MODEL 1
REMARK VINA RESULT:      -7.4      0.000      0.000
REMARK  6 active torsions:
REMARK  status: ('A' for Active; 'I' for Inactive)
REMARK    1  A    between atoms: C7_7  and  C8_8 
REMARK    2  A    between atoms: C8_8  and  C9_9 
REMARK    3  A    between atoms: C8_8  and  C10_11 
REMARK    4  A    between atoms: C10_11  and  N1_12 
REMARK    5  A    between atoms: C15_17  and  O2_18 
REMARK    6  A    between atoms: O2_18  and  C16_19 
ROOT
HETATM    1  C8  UNL     1      24.647   0.536  52.944  1.00  0.00     0.108 C 
ENDROOT
BRANCH   1   2
HETATM    2  C7  UNL     1      23.278   0.056  53.220  1.00  0.00    -0.043 A 
HETATM    3  C2  UNL     1      22.113   0.291  52.383  1.00  0.00    -0.069 A 
HETATM    4  C1  UNL     1      22.256   0.998  51.280  1.00  0.00     0.039 C 
HETATM    5  C3  UNL     1      20.711  -0.150  52.583  1.00  0.00     0.061 A 
HETATM    6  C4  UNL     1      20.649  -0.913  53.854  1.00  0.00    -0.022 A 
HETATM    7  C5  UNL     1      21.668  -1.154  54.650  1.00  0.00    -0.003 A 
HETATM    8  C6  UNL     1      23.007  -0.660  54.325  1.00  0.00     0.008 A 
ENDBRANCH   1   2
BRANCH   1   9
HETATM    9  C9  UNL     1      24.660   2.008  53.070  1.00  0.00     0.242 C 
HETATM   10  O1  UNL     1      25.339   2.635  53.861  1.00  0.00    -0.306 OA
ENDBRANCH   1   9
BRANCH   1  11
HETATM   11  C10 UNL     1      25.614  -0.119  53.915  1.00  0.00     0.292 C 
BRANCH  11  12
HETATM   12  N1  UNL     1      26.870  -0.336  53.286  1.00  0.00     0.118 N 
HETATM   13  C11 UNL     1      26.900  -1.376  52.297  1.00  0.00     0.276 C 
HETATM   14  C12 UNL     1      27.573  -2.608  52.906  1.00  0.00     0.030 C 
HETATM   15  C13 UNL     1      29.048  -2.263  53.012  1.00  0.00     0.006 C 
HETATM   16  C14 UNL     1      29.178  -0.822  53.388  1.00  0.00     0.064 C 
HETATM   17  C15 UNL     1      27.951  -0.435  54.236  1.00  0.00     0.358 C 
BRANCH  17  18
HETATM   18  O2  UNL     1      28.127   0.772  54.847  1.00  0.00    -0.357 OA
BRANCH  18  19
HETATM   19  C16 UNL     1      29.226   1.502  54.519  1.00  0.00     0.166 C 
HETATM   20  C17 UNL     1      28.757   2.609  53.564  1.00  0.00     0.033 C 
ENDBRANCH  18  19
ENDBRANCH  17  18
ENDBRANCH  11  12
ENDBRANCH   1  11
TORSDOF 6
ENDMDL
MODEL 2
REMARK VINA RESULT:      -7.1      2.119      6.043
REMARK  6 active torsions:
REMARK  status: ('A' for Active; 'I' for Inactive)
REMARK    1  A    between atoms: C7_7  and  C8_8 
REMARK    2  A    between atoms: C8_8  and  C9_9 
REMARK    3  A    between atoms: C8_8  and  C10_11 
REMARK    4  A    between atoms: C10_11  and  N1_12 
REMARK    5  A    between atoms: C15_17  and  O2_18 
REMARK    6  A    between atoms: O2_18  and  C16_19 
ROOT
HETATM    1  C8  UNL     1      25.723   0.118  53.297  1.00  0.00     0.108 C 
ENDROOT
BRANCH   1   2
HETATM    2  C7  UNL     1      27.145  -0.258  53.430  1.00  0.00    -0.043 A 
HETATM    3  C2  UNL     1      27.743  -1.493  52.950  1.00  0.00    -0.069 A 
HETATM    4  C1  UNL     1      26.975  -2.377  52.347  1.00  0.00     0.039 C 
HETATM    5  C3  UNL     1      29.151  -1.949  53.041  1.00  0.00     0.061 A 
HETATM    6  C4  UNL     1      29.926  -0.902  53.751  1.00  0.00    -0.022 A 
HETATM    7  C5  UNL     1      29.438   0.230  54.209  1.00  0.00    -0.003 A 
HETATM    8  C6  UNL     1      28.020   0.557  54.044  1.00  0.00     0.008 A 
ENDBRANCH   1   2
BRANCH   1   9
HETATM    9  C9  UNL     1      25.029  -0.222  54.557  1.00  0.00     0.242 C 
HETATM   10  O1  UNL     1      25.221  -1.231  55.209  1.00  0.00    -0.306 OA
ENDBRANCH   1   9
BRANCH   1  11
HETATM   11  C10 UNL     1      25.623   1.601  52.986  1.00  0.00     0.292 C 
BRANCH  11  12
HETATM   12  N1  UNL     1      25.276   1.793  51.621  1.00  0.00     0.118 N 
HETATM   13  C11 UNL     1      26.368   2.071  50.733  1.00  0.00     0.276 C 
HETATM   14  C12 UNL     1      26.368   3.566  50.410  1.00  0.00     0.030 C 
HETATM   15  C13 UNL     1      25.180   3.790  49.490  1.00  0.00     0.006 C 
HETATM   16  C14 UNL     1      24.056   2.910  49.935  1.00  0.00     0.064 C 
HETATM   17  C15 UNL     1      24.175   2.714  51.458  1.00  0.00     0.358 C 
BRANCH  17  18
HETATM   18  O2  UNL     1      23.043   2.159  51.980  1.00  0.00    -0.357 OA
BRANCH  18  19
HETATM   19  C16 UNL     1      22.389   1.224  51.242  1.00  0.00     0.166 C 
HETATM   20  C17 UNL     1      21.969   0.106  52.207  1.00  0.00     0.033 C 
ENDBRANCH  18  19
ENDBRANCH  17  18
ENDBRANCH  11  12
ENDBRANCH   1  11
TORSDOF 6
ENDMDL
MODEL 3
REMARK VINA RESULT:      -7.0      1.774      5.919
REMARK  6 active torsions:
REMARK  status: ('A' for Active; 'I' for Inactive)
REMARK    1  A    between atoms: C7_7  and  C8_8 
REMARK    2  A    between atoms: C8_8  and  C9_9 
REMARK    3  A    between atoms: C8_8  and  C10_11 
REMARK    4  A    between atoms: C10_11  and  N1_12 
REMARK    5  A    between atoms: C15_17  and  O2_18 
REMARK    6  A    between atoms: O2_18  and  C16_19 
ROOT
HETATM    1  C8  UNL     1      26.241   1.047  52.479  1.00  0.00     0.108 C 
ENDROOT
BRANCH   1   2
HETATM    2  C7  UNL     1      27.470   0.355  52.918  1.00  0.00    -0.043 A 
HETATM    3  C2  UNL     1      28.623   0.988  53.536  1.00  0.00    -0.069 A 
HETATM    4  C1  UNL     1      28.605   2.292  53.726  1.00  0.00     0.039 C 
HETATM    5  C3  UNL     1      29.889   0.375  54.005  1.00  0.00     0.061 A 
HETATM    6  C4  UNL     1      29.821  -1.081  53.729  1.00  0.00    -0.022 A 
HETATM    7  C5  UNL     1      28.807  -1.706  53.171  1.00  0.00    -0.003 A 
HETATM    8  C6  UNL     1      27.609  -0.972  52.760  1.00  0.00     0.008 A 
ENDBRANCH   1   2
BRANCH   1   9
HETATM    9  C9  UNL     1      26.526   1.741  51.206  1.00  0.00     0.242 C 
HETATM   10  O1  UNL     1      26.974   2.868  51.110  1.00  0.00    -0.306 OA
ENDBRANCH   1   9
BRANCH   1  11
HETATM   11  C10 UNL     1      25.122   0.032  52.325  1.00  0.00     0.292 C 
BRANCH  11  12
HETATM   12  N1  UNL     1      24.021   0.387  53.152  1.00  0.00     0.118 N 
HETATM   13  C11 UNL     1      23.724  -0.526  54.219  1.00  0.00     0.276 C 
HETATM   14  C12 UNL     1      22.499  -1.355  53.825  1.00  0.00     0.030 C 
HETATM   15  C13 UNL     1      21.315  -0.408  53.913  1.00  0.00     0.006 C 
HETATM   16  C14 UNL     1      21.745   0.943  53.439  1.00  0.00     0.064 C 
HETATM   17  C15 UNL     1      22.853   0.751  52.386  1.00  0.00     0.358 C 
BRANCH  17  18
HETATM   18  O2  UNL     1      23.102   1.908  51.708  1.00  0.00    -0.357 OA
BRANCH  18  19
HETATM   19  C16 UNL     1      22.603   3.068  52.213  1.00  0.00     0.166 C 
HETATM   20  C17 UNL     1      23.805   3.935  52.613  1.00  0.00     0.033 C 
ENDBRANCH  18  19
ENDBRANCH  17  18
ENDBRANCH  11  12
ENDBRANCH   1  11
TORSDOF 6
ENDMDL
MODEL 4
REMARK VINA RESULT:      -6.8      2.356      6.391
REMARK  6 active torsions:
REMARK  status: ('A' for Active; 'I' for Inactive)
REMARK    1  A    between atoms: C7_7  and  C8_8 
REMARK    2  A    between atoms: C8_8  and  C9_9 
REMARK    3  A    between atoms: C8_8  and  C10_11 
REMARK    4  A    between atoms: C10_11  and  N1_12 
REMARK    5  A    between atoms: C15_17  and  O2_18 
REMARK    6  A    between atoms: O2_18  and  C16_19 
ROOT
HETATM    1  C8  UNL     1      26.451   2.479  52.247  1.00  0.00     0.108 C 
ENDROOT
BRANCH   1   2
HETATM    2  C7  UNL     1      27.140   1.232  52.635  1.00  0.00    -0.043 A 
HETATM    3  C2  UNL     1      28.373   1.149  53.400  1.00  0.00    -0.069 A 
HETATM    4  C1  UNL     1      28.956   2.266  53.788  1.00  0.00     0.039 C 
HETATM    5  C3  UNL     1      29.129  -0.051  53.831  1.00  0.00     0.061 A 
HETATM    6  C4  UNL     1      28.410  -1.248  53.330  1.00  0.00    -0.022 A 
HETATM    7  C5  UNL     1      27.296  -1.233  52.633  1.00  0.00    -0.003 A 
HETATM    8  C6  UNL     1      26.649   0.033  52.280  1.00  0.00     0.008 A 
ENDBRANCH   1   2
BRANCH   1   9
HETATM    9  C9  UNL     1      26.330   2.507  50.774  1.00  0.00     0.242 C 
HETATM   10  O1  UNL     1      26.922   3.273  50.039  1.00  0.00    -0.306 OA
ENDBRANCH   1   9
BRANCH   1  11
HETATM   11  C10 UNL     1      25.091   2.532  52.921  1.00  0.00     0.292 C 
BRANCH  11  12
HETATM   12  N1  UNL     1      24.091   2.900  51.981  1.00  0.00     0.118 N 
HETATM   13  C11 UNL     1      23.890   4.311  51.805  1.00  0.00     0.276 C 
HETATM   14  C12 UNL     1      22.614   4.717  52.546  1.00  0.00     0.030 C 
HETATM   15  C13 UNL     1      21.464   4.155  51.729  1.00  0.00     0.006 C 
HETATM   16  C14 UNL     1      21.869   2.821  51.188  1.00  0.00     0.064 C 
HETATM   17  C15 UNL     1      22.856   2.180  52.180  1.00  0.00     0.358 C 
BRANCH  17  18
HETATM   18  O2  UNL     1      23.056   0.859  51.904  1.00  0.00    -0.357 OA
BRANCH  18  19
HETATM   19  C16 UNL     1      22.320  -0.057  52.588  1.00  0.00     0.166 C 
HETATM   20  C17 UNL     1      23.250  -0.685  53.635  1.00  0.00     0.033 C 
ENDBRANCH  18  19
ENDBRANCH  17  18
ENDBRANCH  11  12
ENDBRANCH   1  11
TORSDOF 6
ENDMDL
MODEL 5
REMARK VINA RESULT:      -6.7      3.469      5.351
REMARK  6 active torsions:
REMARK  status: ('A' for Active; 'I' for Inactive)
REMARK    1  A    between atoms: C7_7  and  C8_8 
REMARK    2  A    between atoms: C8_8  and  C9_9 
REMARK    3  A    between atoms: C8_8  and  C10_11 
REMARK    4  A    between atoms: C10_11  and  N1_12 
REMARK    5  A    between atoms: C15_17  and  O2_18 
REMARK    6  A    between atoms: O2_18  and  C16_19 
ROOT
HETATM    1  C8  UNL     1      23.293   2.145  52.433  1.00  0.00     0.108 C 
ENDROOT
BRANCH   1   2
HETATM    2  C7  UNL     1      22.637   1.025  53.138  1.00  0.00    -0.043 A 
HETATM    3  C2  UNL     1      21.205   0.873  53.339  1.00  0.00    -0.069 A 
HETATM    4  C1  UNL     1      20.397   1.803  52.872  1.00  0.00     0.039 C 
HETATM    5  C3  UNL     1      20.467  -0.211  54.030  1.00  0.00     0.061 A 
HETATM    6  C4  UNL     1      21.460  -1.190  54.537  1.00  0.00    -0.022 A 
HETATM    7  C5  UNL     1      22.763  -1.102  54.387  1.00  0.00    -0.003 A 
HETATM    8  C6  UNL     1      23.362   0.028  53.672  1.00  0.00     0.008 A 
ENDBRANCH   1   2
BRANCH   1   9
HETATM    9  C9  UNL     1      24.550   2.470  53.139  1.00  0.00     0.242 C 
HETATM   10  O1  UNL     1      25.660   2.425  52.644  1.00  0.00    -0.306 OA
ENDBRANCH   1   9
BRANCH   1  11
HETATM   11  C10 UNL     1      23.547   1.749  50.989  1.00  0.00     0.292 C 
BRANCH  11  12
HETATM   12  N1  UNL     1      22.834   2.611  50.111  1.00  0.00     0.118 N 
HETATM   13  C11 UNL     1      21.713   2.022  49.435  1.00  0.00     0.276 C 
HETATM   14  C12 UNL     1      22.116   1.728  47.988  1.00  0.00     0.030 C 
HETATM   15  C13 UNL     1      22.197   3.079  47.299  1.00  0.00     0.006 C 
HETATM   16  C14 UNL     1      22.759   4.075  48.261  1.00  0.00     0.064 C 
HETATM   17  C15 UNL     1      23.709   3.333  49.219  1.00  0.00     0.358 C 
BRANCH  17  18
HETATM   18  O2  UNL     1      24.470   4.205  49.943  1.00  0.00    -0.357 OA
BRANCH  18  19
HETATM   19  C16 UNL     1      25.545   4.774  49.335  1.00  0.00     0.166 C 
HETATM   20  C17 UNL     1      26.707   3.779  49.463  1.00  0.00     0.033 C 
ENDBRANCH  18  19
ENDBRANCH  17  18
ENDBRANCH  11  12
ENDBRANCH   1  11
TORSDOF 6
ENDMDL
MODEL 6
REMARK VINA RESULT:      -6.5      3.558      5.908
REMARK  6 active torsions:
REMARK  status: ('A' for Active; 'I' for Inactive)
REMARK    1  A    between atoms: C7_7  and  C8_8 
REMARK    2  A    between atoms: C8_8  and  C9_9 
REMARK    3  A    between atoms: C8_8  and  C10_11 
REMARK    4  A    between atoms: C10_11  and  N1_12 
REMARK    5  A    between atoms: C15_17  and  O2_18 
REMARK    6  A    between atoms: O2_18  and  C16_19 
ROOT
HETATM    1  C8  UNL     1      25.090   3.173  50.987  1.00  0.00     0.108 C 
ENDROOT
BRANCH   1   2
HETATM    2  C7  UNL     1      25.792   4.190  50.178  1.00  0.00    -0.043 A 
HETATM    3  C2  UNL     1      25.437   5.596  50.092  1.00  0.00    -0.069 A 
HETATM    4  C1  UNL     1      24.397   6.031  50.775  1.00  0.00     0.039 C 
HETATM    5  C3  UNL     1      26.081   6.679  49.311  1.00  0.00     0.061 A 
HETATM    6  C4  UNL     1      27.219   6.089  48.564  1.00  0.00    -0.022 A 
HETATM    7  C5  UNL     1      27.584   4.826  48.602  1.00  0.00    -0.003 A 
HETATM    8  C6  UNL     1      26.856   3.859  49.426  1.00  0.00     0.008 A 
ENDBRANCH   1   2
BRANCH   1   9
HETATM    9  C9  UNL     1      23.867   2.764  50.264  1.00  0.00     0.242 C 
HETATM   10  O1  UNL     1      23.695   2.874  49.066  1.00  0.00    -0.306 OA
ENDBRANCH   1   9
BRANCH   1  11
HETATM   11  C10 UNL     1      26.018   1.995  51.227  1.00  0.00     0.292 C 
BRANCH  11  12
HETATM   12  N1  UNL     1      26.264   1.840  52.619  1.00  0.00     0.118 N 
HETATM   13  C11 UNL     1      27.566   2.242  53.070  1.00  0.00     0.276 C 
HETATM   14  C12 UNL     1      28.409   0.986  53.306  1.00  0.00     0.030 C 
HETATM   15  C13 UNL     1      27.850   0.343  54.563  1.00  0.00     0.006 C 
HETATM   16  C14 UNL     1      26.364   0.508  54.566  1.00  0.00     0.064 C 
HETATM   17  C15 UNL     1      25.882   0.535  53.103  1.00  0.00     0.358 C 
BRANCH  17  18
HETATM   18  O2  UNL     1      24.526   0.404  53.022  1.00  0.00    -0.357 OA
BRANCH  18  19
HETATM   19  C16 UNL     1      23.928  -0.547  53.789  1.00  0.00     0.166 C 
HETATM   20  C17 UNL     1      22.413  -0.380  53.605  1.00  0.00     0.033 C 
ENDBRANCH  18  19
ENDBRANCH  17  18
ENDBRANCH  11  12
ENDBRANCH   1  11
TORSDOF 6
ENDMDL
MODEL 7
REMARK VINA RESULT:      -6.5      3.073      5.819
REMARK  6 active torsions:
REMARK  status: ('A' for Active; 'I' for Inactive)
REMARK    1  A    between atoms: C7_7  and  C8_8 
REMARK    2  A    between atoms: C8_8  and  C9_9 
REMARK    3  A    between atoms: C8_8  and  C10_11 
REMARK    4  A    between atoms: C10_11  and  N1_12 
REMARK    5  A    between atoms: C15_17  and  O2_18 
REMARK    6  A    between atoms: O2_18  and  C16_19 
ROOT
HETATM    1  C8  UNL     1      22.689   2.585  50.912  1.00  0.00     0.108 C 
ENDROOT
BRANCH   1   2
HETATM    2  C7  UNL     1      24.006   3.089  50.475  1.00  0.00    -0.043 A 
HETATM    3  C2  UNL     1      24.229   4.226  49.598  1.00  0.00    -0.069 A 
HETATM    4  C1  UNL     1      23.185   4.879  49.127  1.00  0.00     0.039 C 
HETATM    5  C3  UNL     1      25.508   4.798  49.111  1.00  0.00     0.061 A 
HETATM    6  C4  UNL     1      26.615   3.986  49.674  1.00  0.00    -0.022 A 
HETATM    7  C5  UNL     1      26.472   2.948  50.469  1.00  0.00    -0.003 A 
HETATM    8  C6  UNL     1      25.142   2.493  50.877  1.00  0.00     0.008 A 
ENDBRANCH   1   2
BRANCH   1   9
HETATM    9  C9  UNL     1      22.341   1.410  50.086  1.00  0.00     0.242 C 
HETATM   10  O1  UNL     1      21.717   1.450  49.043  1.00  0.00    -0.306 OA
ENDBRANCH   1   9
BRANCH   1  11
HETATM   11  C10 UNL     1      22.751   2.233  52.388  1.00  0.00     0.292 C 
BRANCH  11  12
HETATM   12  N1  UNL     1      22.287   0.905  52.595  1.00  0.00     0.118 N 
HETATM   13  C11 UNL     1      20.913   0.779  52.992  1.00  0.00     0.276 C 
HETATM   14  C12 UNL     1      20.864   0.482  54.493  1.00  0.00     0.030 C 
HETATM   15  C13 UNL     1      21.344  -0.951  54.645  1.00  0.00     0.006 C 
HETATM   16  C14 UNL     1      22.441  -1.197  53.660  1.00  0.00     0.064 C 
HETATM   17  C15 UNL     1      23.181   0.133  53.425  1.00  0.00     0.358 C 
BRANCH  17  18
HETATM   18  O2  UNL     1      24.357  -0.061  52.760  1.00  0.00    -0.357 OA
BRANCH  18  19
HETATM   19  C16 UNL     1      25.397  -0.610  53.444  1.00  0.00     0.166 C 
HETATM   20  C17 UNL     1      26.572  -0.714  52.462  1.00  0.00     0.033 C 
ENDBRANCH  18  19
ENDBRANCH  17  18
ENDBRANCH  11  12
ENDBRANCH   1  11
TORSDOF 6
ENDMDL
MODEL 8
REMARK VINA RESULT:      -6.5      2.418      5.833
REMARK  6 active torsions:
REMARK  status: ('A' for Active; 'I' for Inactive)
REMARK    1  A    between atoms: C7_7  and  C8_8 
REMARK    2  A    between atoms: C8_8  and  C9_9 
REMARK    3  A    between atoms: C8_8  and  C10_11 
REMARK    4  A    between atoms: C10_11  and  N1_12 
REMARK    5  A    between atoms: C15_17  and  O2_18 
REMARK    6  A    between atoms: O2_18  and  C16_19 
ROOT
HETATM    1  C8  UNL     1      24.512   0.953  52.801  1.00  0.00     0.108 C 
ENDROOT
BRANCH   1   2
HETATM    2  C7  UNL     1      25.969   0.999  53.039  1.00  0.00    -0.043 A 
HETATM    3  C2  UNL     1      26.900  -0.092  52.806  1.00  0.00    -0.069 A 
HETATM    4  C1  UNL     1      26.433  -1.238  52.351  1.00  0.00     0.039 C 
HETATM    5  C3  UNL     1      28.367  -0.133  53.016  1.00  0.00     0.061 A 
HETATM    6  C4  UNL     1      28.790   1.186  53.547  1.00  0.00    -0.022 A 
HETATM    7  C5  UNL     1      27.993   2.206  53.779  1.00  0.00    -0.003 A 
HETATM    8  C6  UNL     1      26.555   2.109  53.519  1.00  0.00     0.008 A 
ENDBRANCH   1   2
BRANCH   1   9
HETATM    9  C9  UNL     1      23.927  -0.079  53.682  1.00  0.00     0.242 C 
HETATM   10  O1  UNL     1      23.093  -0.896  53.342  1.00  0.00    -0.306 OA
ENDBRANCH   1   9
BRANCH   1  11
HETATM   11  C10 UNL     1      23.916   2.323  53.072  1.00  0.00     0.292 C 
BRANCH  11  12
HETATM   12  N1  UNL     1      23.142   2.750  51.958  1.00  0.00     0.118 N 
HETATM   13  C11 UNL     1      21.957   1.985  51.694  1.00  0.00     0.276 C 
HETATM   14  C12 UNL     1      22.225   1.066  50.500  1.00  0.00     0.030 C 
HETATM   15  C13 UNL     1      22.266   1.971  49.282  1.00  0.00     0.006 C 
HETATM   16  C14 UNL     1      22.926   3.257  49.662  1.00  0.00     0.064 C 
HETATM   17  C15 UNL     1      23.946   2.961  50.778  1.00  0.00     0.358 C 
BRANCH  17  18
HETATM   18  O2  UNL     1      24.781   4.020  50.985  1.00  0.00    -0.357 OA
BRANCH  18  19
HETATM   19  C16 UNL     1      25.788   4.226  50.095  1.00  0.00     0.166 C 
HETATM   20  C17 UNL     1      26.512   2.884  49.921  1.00  0.00     0.033 C 
ENDBRANCH  18  19
ENDBRANCH  17  18
ENDBRANCH  11  12
ENDBRANCH   1  11
TORSDOF 6
ENDMDL
MODEL 9
REMARK VINA RESULT:      -6.5      2.171      4.160
REMARK  6 active torsions:
REMARK  status: ('A' for Active; 'I' for Inactive)
REMARK    1  A    between atoms: C7_7  and  C8_8 
REMARK    2  A    between atoms: C8_8  and  C9_9 
REMARK    3  A    between atoms: C8_8  and  C10_11 
REMARK    4  A    between atoms: C10_11  and  N1_12 
REMARK    5  A    between atoms: C15_17  and  O2_18 
REMARK    6  A    between atoms: O2_18  and  C16_19 
ROOT
HETATM    1  C8  UNL     1      24.011   1.619  52.951  1.00  0.00     0.108 C 
ENDROOT
BRANCH   1   2
HETATM    2  C7  UNL     1      23.748   2.536  51.823  1.00  0.00    -0.043 A 
HETATM    3  C2  UNL     1      23.615   3.980  51.918  1.00  0.00    -0.069 A 
HETATM    4  C1  UNL     1      23.724   4.550  53.101  1.00  0.00     0.039 C 
HETATM    5  C3  UNL     1      23.353   4.969  50.845  1.00  0.00     0.061 A 
HETATM    6  C4  UNL     1      23.225   4.231  49.565  1.00  0.00    -0.022 A 
HETATM    7  C5  UNL     1      23.333   2.928  49.420  1.00  0.00    -0.003 A 
HETATM    8  C6  UNL     1      23.601   2.065  50.572  1.00  0.00     0.008 A 
ENDBRANCH   1   2
BRANCH   1   9
HETATM    9  C9  UNL     1      22.793   0.820  53.197  1.00  0.00     0.242 C 
HETATM   10  O1  UNL     1      22.743  -0.395  53.193  1.00  0.00    -0.306 OA
ENDBRANCH   1   9
BRANCH   1  11
HETATM   11  C10 UNL     1      25.202   0.738  52.615  1.00  0.00     0.292 C 
BRANCH  11  12
HETATM   12  N1  UNL     1      26.183   0.828  53.640  1.00  0.00     0.118 N 
HETATM   13  C11 UNL     1      26.634   2.153  53.956  1.00  0.00     0.276 C 
HETATM   14  C12 UNL     1      28.014   2.362  53.328  1.00  0.00     0.030 C 
HETATM   15  C13 UNL     1      28.974   1.522  54.152  1.00  0.00     0.006 C 
HETATM   16  C14 UNL     1      28.287   0.254  54.545  1.00  0.00     0.064 C 
HETATM   17  C15 UNL     1      27.270  -0.101  53.443  1.00  0.00     0.358 C 
BRANCH  17  18
HETATM   18  O2  UNL     1      26.805  -1.376  53.585  1.00  0.00    -0.357 OA
BRANCH  18  19
HETATM   19  C16 UNL     1      27.136  -2.288  52.632  1.00  0.00     0.166 C 
HETATM   20  C17 UNL     1      28.565  -2.755  52.938  1.00  0.00     0.033 C 
ENDBRANCH  18  19
ENDBRANCH  17  18
ENDBRANCH  11  12
ENDBRANCH   1  11
TORSDOF 6
ENDMDL
