MODEL 1
REMARK VINA RESULT:      -7.3      0.000      0.000
REMARK  5 active torsions:
REMARK  status: ('A' for Active; 'I' for Inactive)
REMARK    1  A    between atoms: C3_3  and  C4_5 
REMARK    2  A    between atoms: C5_6  and  C6_7 
REMARK    3  A    between atoms: C6_7  and  S1_8 
REMARK    4  A    between atoms: S1_8  and  N1_11 
REMARK       I    between atoms: N1_11  and  C7_12 
REMARK    5  A    between atoms: C7_12  and  C8_14 
ROOT
HETATM    1  N1  UNL     1      25.803  -0.282  53.701  1.00  0.00    -0.250 N 
HETATM    2  C7  UNL     1      24.810  -0.797  54.599  1.00  0.00     0.266 C 
HETATM    3  O3  UNL     1      25.282  -1.284  55.657  1.00  0.00    -0.267 OA
HETATM    4  H9  UNL     1      25.579   0.156  52.779  1.00  0.00     0.181 HD
ENDROOT
BRANCH   1   5
HETATM    5  S1  UNL     1      27.501  -0.232  53.848  1.00  0.00     0.236 S 
HETATM    6  O1  UNL     1      28.104  -1.479  53.234  1.00  0.00    -0.205 OA
HETATM    7  O2  UNL     1      27.969  -0.173  55.270  1.00  0.00    -0.205 OA
BRANCH   5   8
HETATM    8  C6  UNL     1      28.140   1.167  52.960  1.00  0.00     0.190 C 
BRANCH   8   9
HETATM    9  C5  UNL     1      26.976   1.998  52.575  1.00  0.00    -0.009 C 
HETATM   10  C4  UNL     1      26.558   2.194  51.340  1.00  0.00     0.015 C 
BRANCH  10  11
HETATM   11  C3  UNL     1      25.448   2.978  50.876  1.00  0.00     0.006 C 
HETATM   12  C2  UNL     1      25.309   3.407  49.630  1.00  0.00    -0.012 C 
HETATM   13  C1  UNL     1      24.113   4.212  49.275  1.00  0.00     0.037 C 
HETATM   14 BR1  UNL     1      24.160   3.365  52.221  1.00  0.00    -0.051 Br
ENDBRANCH  10  11
ENDBRANCH   8   9
ENDBRANCH   5   8
ENDBRANCH   1   5
BRANCH   2  15
HETATM   15  C8  UNL     1      23.402  -0.716  54.229  1.00  0.00     0.051 A 
HETATM   16  C9  UNL     1      22.306  -1.142  54.950  1.00  0.00     0.133 A 
HETATM   17  N2  UNL     1      21.066  -0.991  54.459  1.00  0.00    -0.271 NA
HETATM   18  C10 UNL     1      20.798  -0.433  53.266  1.00  0.00     0.135 A 
HETATM   19  C11 UNL     1      21.883  -0.004  52.536  1.00  0.00     0.029 A 
HETATM   20 BR2  UNL     1      21.527   0.791  50.841  1.00  0.00    -0.050 Br
HETATM   21  C12 UNL     1      23.183  -0.130  52.984  1.00  0.00     0.039 A 
ENDBRANCH   2  15
TORSDOF 5
ENDMDL
MODEL 2
REMARK VINA RESULT:      -6.8      3.856      6.253
REMARK  5 active torsions:
REMARK  status: ('A' for Active; 'I' for Inactive)
REMARK    1  A    between atoms: C3_3  and  C4_5 
REMARK    2  A    between atoms: C5_6  and  C6_7 
REMARK    3  A    between atoms: C6_7  and  S1_8 
REMARK    4  A    between atoms: S1_8  and  N1_11 
REMARK       I    between atoms: N1_11  and  C7_12 
REMARK    5  A    between atoms: C7_12  and  C8_14 
ROOT
HETATM    1  N1  UNL     1      25.238   2.967  51.801  1.00  0.00    -0.250 N 
HETATM    2  C7  UNL     1      26.625   2.676  51.574  1.00  0.00     0.266 C 
HETATM    3  O3  UNL     1      27.091   3.195  50.529  1.00  0.00    -0.267 OA
HETATM    4  H9  UNL     1      24.699   2.613  52.623  1.00  0.00     0.181 HD
ENDROOT
BRANCH   1   5
HETATM    5  S1  UNL     1      24.143   3.895  50.881  1.00  0.00     0.236 S 
HETATM    6  O1  UNL     1      24.090   3.365  49.464  1.00  0.00    -0.205 OA
HETATM    7  O2  UNL     1      24.523   5.342  50.795  1.00  0.00    -0.205 OA
BRANCH   5   8
HETATM    8  C6  UNL     1      22.512   3.755  51.570  1.00  0.00     0.190 C 
BRANCH   8   9
HETATM    9  C5  UNL     1      22.537   2.606  52.503  1.00  0.00    -0.009 C 
HETATM   10  C4  UNL     1      22.115   1.389  52.222  1.00  0.00     0.015 C 
BRANCH  10  11
HETATM   11  C3  UNL     1      22.101   0.222  53.058  1.00  0.00     0.006 C 
HETATM   12  C2  UNL     1      20.998  -0.364  53.499  1.00  0.00    -0.012 C 
HETATM   13  C1  UNL     1      21.117  -1.568  54.359  1.00  0.00     0.037 C 
HETATM   14 BR1  UNL     1      23.831  -0.435  53.495  1.00  0.00    -0.051 Br
ENDBRANCH  10  11
ENDBRANCH   8   9
ENDBRANCH   5   8
ENDBRANCH   1   5
BRANCH   2  15
HETATM   15  C8  UNL     1      27.345   1.843  52.530  1.00  0.00     0.051 A 
HETATM   16  C9  UNL     1      28.122   2.247  53.596  1.00  0.00     0.133 A 
HETATM   17  N2  UNL     1      28.720   1.341  54.385  1.00  0.00    -0.271 NA
HETATM   18  C10 UNL     1      28.618   0.013  54.209  1.00  0.00     0.135 A 
HETATM   19  C11 UNL     1      27.845  -0.403  53.149  1.00  0.00     0.029 A 
HETATM   20 BR2  UNL     1      27.685  -2.283  52.880  1.00  0.00    -0.050 Br
HETATM   21  C12 UNL     1      27.204   0.476  52.300  1.00  0.00     0.039 A 
ENDBRANCH   2  15
TORSDOF 5
ENDMDL
MODEL 3
REMARK VINA RESULT:      -6.6      2.922      5.569
REMARK  5 active torsions:
REMARK  status: ('A' for Active; 'I' for Inactive)
REMARK    1  A    between atoms: C3_3  and  C4_5 
REMARK    2  A    between atoms: C5_6  and  C6_7 
REMARK    3  A    between atoms: C6_7  and  S1_8 
REMARK    4  A    between atoms: S1_8  and  N1_11 
REMARK       I    between atoms: N1_11  and  C7_12 
REMARK    5  A    between atoms: C7_12  and  C8_14 
ROOT
HETATM    1  N1  UNL     1      25.951   2.846  52.068  1.00  0.00    -0.250 N 
HETATM    2  C7  UNL     1      25.924   3.194  50.676  1.00  0.00     0.266 C 
HETATM    3  O3  UNL     1      26.901   2.751  50.021  1.00  0.00    -0.267 OA
HETATM    4  H9  UNL     1      25.215   3.135  52.751  1.00  0.00     0.181 HD
ENDROOT
BRANCH   1   5
HETATM    5  S1  UNL     1      27.090   1.938  52.954  1.00  0.00     0.236 S 
HETATM    6  O1  UNL     1      26.875   2.158  54.437  1.00  0.00    -0.205 OA
HETATM    7  O2  UNL     1      28.508   2.317  52.655  1.00  0.00    -0.205 OA
BRANCH   5   8
HETATM    8  C6  UNL     1      26.862   0.207  52.629  1.00  0.00     0.190 C 
BRANCH   8   9
HETATM    9  C5  UNL     1      25.401  -0.027  52.557  1.00  0.00    -0.009 C 
HETATM   10  C4  UNL     1      24.610  -0.215  53.594  1.00  0.00     0.015 C 
BRANCH  10  11
HETATM   11  C3  UNL     1      23.193  -0.448  53.619  1.00  0.00     0.006 C 
HETATM   12  C2  UNL     1      22.579  -1.203  54.518  1.00  0.00    -0.012 C 
HETATM   13  C1  UNL     1      21.105  -1.365  54.436  1.00  0.00     0.037 C 
HETATM   14 BR1  UNL     1      22.242   0.433  52.228  1.00  0.00    -0.051 Br
ENDBRANCH  10  11
ENDBRANCH   8   9
ENDBRANCH   5   8
ENDBRANCH   1   5
BRANCH   2  15
HETATM   15  C8  UNL     1      24.819   3.993  50.161  1.00  0.00     0.051 A 
HETATM   16  C9  UNL     1      24.840   4.913  49.133  1.00  0.00     0.133 A 
HETATM   17  N2  UNL     1      23.722   5.568  48.782  1.00  0.00    -0.271 NA
HETATM   18  C10 UNL     1      22.533   5.390  49.381  1.00  0.00     0.135 A 
HETATM   19  C11 UNL     1      22.499   4.476  50.409  1.00  0.00     0.029 A 
HETATM   20 BR2  UNL     1      20.822   4.207  51.274  1.00  0.00    -0.050 Br
HETATM   21  C12 UNL     1      23.611   3.769  50.819  1.00  0.00     0.039 A 
ENDBRANCH   2  15
TORSDOF 5
ENDMDL
MODEL 4
REMARK VINA RESULT:      -6.6      3.624      5.192
REMARK  5 active torsions:
REMARK  status: ('A' for Active; 'I' for Inactive)
REMARK    1  A    between atoms: C3_3  and  C4_5 
REMARK    2  A    between atoms: C5_6  and  C6_7 
REMARK    3  A    between atoms: C6_7  and  S1_8 
REMARK    4  A    between atoms: S1_8  and  N1_11 
REMARK       I    between atoms: N1_11  and  C7_12 
REMARK    5  A    between atoms: C7_12  and  C8_14 
ROOT
HETATM    1  N1  UNL     1      23.171   2.292  52.626  1.00  0.00    -0.250 N 
HETATM    2  C7  UNL     1      23.500   0.902  52.773  1.00  0.00     0.266 C 
HETATM    3  O3  UNL     1      22.647   0.122  52.282  1.00  0.00    -0.267 OA
HETATM    4  H9  UNL     1      23.773   3.069  52.978  1.00  0.00     0.181 HD
ENDROOT
BRANCH   1   5
HETATM    5  S1  UNL     1      21.819   3.032  51.899  1.00  0.00     0.236 S 
HETATM    6  O1  UNL     1      21.714   4.470  52.362  1.00  0.00    -0.205 OA
HETATM    7  O2  UNL     1      20.523   2.364  52.244  1.00  0.00    -0.205 OA
BRANCH   5   8
HETATM    8  C6  UNL     1      22.020   3.049  50.134  1.00  0.00     0.190 C 
BRANCH   8   9
HETATM    9  C5  UNL     1      23.462   3.256  49.869  1.00  0.00    -0.009 C 
HETATM   10  C4  UNL     1      24.017   4.406  49.542  1.00  0.00     0.015 C 
BRANCH  10  11
HETATM   11  C3  UNL     1      25.396   4.699  49.268  1.00  0.00     0.006 C 
HETATM   12  C2  UNL     1      25.827   5.845  48.762  1.00  0.00    -0.012 C 
HETATM   13  C1  UNL     1      27.281   6.025  48.525  1.00  0.00     0.037 C 
HETATM   14 BR1  UNL     1      26.586   3.279  49.698  1.00  0.00    -0.051 Br
ENDBRANCH  10  11
ENDBRANCH   8   9
ENDBRANCH   5   8
ENDBRANCH   1   5
BRANCH   2  15
HETATM   15  C8  UNL     1      24.738   0.530  53.447  1.00  0.00     0.051 A 
HETATM   16  C9  UNL     1      24.970  -0.560  54.261  1.00  0.00     0.133 A 
HETATM   17  N2  UNL     1      26.180  -0.758  54.807  1.00  0.00    -0.271 NA
HETATM   18  C10 UNL     1      27.229   0.059  54.614  1.00  0.00     0.135 A 
HETATM   19  C11 UNL     1      27.011   1.150  53.803  1.00  0.00     0.029 A 
HETATM   20 BR2  UNL     1      28.486   2.322  53.514  1.00  0.00    -0.050 Br
HETATM   21  C12 UNL     1      25.792   1.411  53.212  1.00  0.00     0.039 A 
ENDBRANCH   2  15
TORSDOF 5
ENDMDL
MODEL 5
REMARK VINA RESULT:      -6.5      4.385      5.786
REMARK  5 active torsions:
REMARK  status: ('A' for Active; 'I' for Inactive)
REMARK    1  A    between atoms: C3_3  and  C4_5 
REMARK    2  A    between atoms: C5_6  and  C6_7 
REMARK    3  A    between atoms: C6_7  and  S1_8 
REMARK    4  A    between atoms: S1_8  and  N1_11 
REMARK       I    between atoms: N1_11  and  C7_12 
REMARK    5  A    between atoms: C7_12  and  C8_14 
ROOT
HETATM    1  N1  UNL     1      24.645   3.666  52.191  1.00  0.00    -0.250 N 
HETATM    2  C7  UNL     1      24.738   2.235  52.142  1.00  0.00     0.266 C 
HETATM    3  O3  UNL     1      23.834   1.688  51.461  1.00  0.00    -0.267 OA
HETATM    4  H9  UNL     1      25.317   4.272  52.713  1.00  0.00     0.181 HD
ENDROOT
BRANCH   1   5
HETATM    5  S1  UNL     1      23.511   4.721  51.478  1.00  0.00     0.236 S 
HETATM    6  O1  UNL     1      23.826   6.150  51.871  1.00  0.00    -0.205 OA
HETATM    7  O2  UNL     1      22.101   4.449  51.905  1.00  0.00    -0.205 OA
BRANCH   5   8
HETATM    8  C6  UNL     1      23.621   4.613  49.708  1.00  0.00     0.190 C 
BRANCH   8   9
HETATM    9  C5  UNL     1      25.054   4.742  49.359  1.00  0.00    -0.009 C 
HETATM   10  C4  UNL     1      25.618   5.820  48.850  1.00  0.00     0.015 C 
BRANCH  10  11
HETATM   11  C3  UNL     1      26.990   6.034  48.483  1.00  0.00     0.006 C 
HETATM   12  C2  UNL     1      27.935   5.109  48.562  1.00  0.00    -0.012 C 
HETATM   13  C1  UNL     1      29.319   5.455  48.150  1.00  0.00     0.037 C 
HETATM   14 BR1  UNL     1      27.356   7.793  47.860  1.00  0.00    -0.051 Br
ENDBRANCH  10  11
ENDBRANCH   8   9
ENDBRANCH   5   8
ENDBRANCH   1   5
BRANCH   2  15
HETATM   15  C8  UNL     1      25.821   1.565  52.851  1.00  0.00     0.051 A 
HETATM   16  C9  UNL     1      26.646   2.082  53.829  1.00  0.00     0.133 A 
HETATM   17  N2  UNL     1      27.604   1.323  54.383  1.00  0.00    -0.271 NA
HETATM   18  C10 UNL     1      27.832   0.043  54.045  1.00  0.00     0.135 A 
HETATM   19  C11 UNL     1      27.016  -0.485  53.070  1.00  0.00     0.029 A 
HETATM   20 BR2  UNL     1      27.322  -2.300  52.574  1.00  0.00    -0.050 Br
HETATM   21  C12 UNL     1      26.014   0.242  52.460  1.00  0.00     0.039 A 
ENDBRANCH   2  15
TORSDOF 5
ENDMDL
MODEL 6
REMARK VINA RESULT:      -6.5      3.471      5.397
REMARK  5 active torsions:
REMARK  status: ('A' for Active; 'I' for Inactive)
REMARK    1  A    between atoms: C3_3  and  C4_5 
REMARK    2  A    between atoms: C5_6  and  C6_7 
REMARK    3  A    between atoms: C6_7  and  S1_8 
REMARK    4  A    between atoms: S1_8  and  N1_11 
REMARK       I    between atoms: N1_11  and  C7_12 
REMARK    5  A    between atoms: C7_12  and  C8_14 
ROOT
HETATM    1  N1  UNL     1      23.836   1.496  52.232  1.00  0.00    -0.250 N 
HETATM    2  C7  UNL     1      24.621   0.570  52.998  1.00  0.00     0.266 C 
HETATM    3  O3  UNL     1      24.011  -0.484  53.306  1.00  0.00    -0.267 OA
HETATM    4  H9  UNL     1      24.192   2.418  51.896  1.00  0.00     0.181 HD
ENDROOT
BRANCH   1   5
HETATM    5  S1  UNL     1      22.224   1.384  51.687  1.00  0.00     0.236 S 
HETATM    6  O1  UNL     1      21.285   1.882  52.765  1.00  0.00    -0.205 OA
HETATM    7  O2  UNL     1      21.809  -0.016  51.355  1.00  0.00    -0.205 OA
BRANCH   5   8
HETATM    8  C6  UNL     1      22.001   2.417  50.259  1.00  0.00     0.190 C 
BRANCH   8   9
HETATM    9  C5  UNL     1      23.348   2.866  49.840  1.00  0.00    -0.009 C 
HETATM   10  C4  UNL     1      23.709   4.122  49.659  1.00  0.00     0.015 C 
BRANCH  10  11
HETATM   11  C3  UNL     1      24.983   4.647  49.256  1.00  0.00     0.006 C 
HETATM   12  C2  UNL     1      26.121   3.971  49.321  1.00  0.00    -0.012 C 
HETATM   13  C1  UNL     1      27.375   4.627  48.872  1.00  0.00     0.037 C 
HETATM   14 BR1  UNL     1      24.911   6.433  48.607  1.00  0.00    -0.051 Br
ENDBRANCH  10  11
ENDBRANCH   8   9
ENDBRANCH   5   8
ENDBRANCH   1   5
BRANCH   2  15
HETATM   15  C8  UNL     1      25.997   0.913  53.338  1.00  0.00     0.051 A 
HETATM   16  C9  UNL     1      26.498   2.138  53.728  1.00  0.00     0.133 A 
HETATM   17  N2  UNL     1      27.803   2.283  54.007  1.00  0.00    -0.271 NA
HETATM   18  C10 UNL     1      28.698   1.284  53.932  1.00  0.00     0.135 A 
HETATM   19  C11 UNL     1      28.211   0.057  53.543  1.00  0.00     0.029 A 
HETATM   20 BR2  UNL     1      29.464  -1.375  53.430  1.00  0.00    -0.050 Br
HETATM   21  C12 UNL     1      26.882  -0.160  53.242  1.00  0.00     0.039 A 
ENDBRANCH   2  15
TORSDOF 5
ENDMDL
MODEL 7
REMARK VINA RESULT:      -6.4      4.740      7.635
REMARK  5 active torsions:
REMARK  status: ('A' for Active; 'I' for Inactive)
REMARK    1  A    between atoms: C3_3  and  C4_5 
REMARK    2  A    between atoms: C5_6  and  C6_7 
REMARK    3  A    between atoms: C6_7  and  S1_8 
REMARK    4  A    between atoms: S1_8  and  N1_11 
REMARK       I    between atoms: N1_11  and  C7_12 
REMARK    5  A    between atoms: C7_12  and  C8_14 
ROOT
HETATM    1  N1  UNL     1      24.978   4.161  50.965  1.00  0.00    -0.250 N 
HETATM    2  C7  UNL     1      24.793   4.493  49.581  1.00  0.00     0.266 C 
HETATM    3  O3  UNL     1      23.879   3.841  49.018  1.00  0.00    -0.267 OA
HETATM    4  H9  UNL     1      25.695   4.610  51.578  1.00  0.00     0.181 HD
ENDROOT
BRANCH   1   5
HETATM    5  S1  UNL     1      24.160   3.032  51.946  1.00  0.00     0.236 S 
HETATM    6  O1  UNL     1      24.035   1.713  51.211  1.00  0.00    -0.205 OA
HETATM    7  O2  UNL     1      22.772   3.463  52.311  1.00  0.00    -0.205 OA
BRANCH   5   8
HETATM    8  C6  UNL     1      25.093   2.736  53.428  1.00  0.00     0.190 C 
BRANCH   8   9
HETATM    9  C5  UNL     1      26.164   1.777  53.076  1.00  0.00    -0.009 C 
HETATM   10  C4  UNL     1      26.601   0.806  53.854  1.00  0.00     0.015 C 
BRANCH  10  11
HETATM   11  C3  UNL     1      27.628  -0.164  53.598  1.00  0.00     0.006 C 
HETATM   12  C2  UNL     1      28.890  -0.032  53.982  1.00  0.00    -0.012 C 
HETATM   13  C1  UNL     1      29.858  -1.108  53.655  1.00  0.00     0.037 C 
HETATM   14 BR1  UNL     1      27.025  -1.692  52.641  1.00  0.00    -0.051 Br
ENDBRANCH  10  11
ENDBRANCH   8   9
ENDBRANCH   5   8
ENDBRANCH   1   5
BRANCH   2  15
HETATM   15  C8  UNL     1      25.640   5.512  48.973  1.00  0.00     0.051 A 
HETATM   16  C9  UNL     1      25.271   6.757  48.505  1.00  0.00     0.133 A 
HETATM   17  N2  UNL     1      26.185   7.581  47.968  1.00  0.00    -0.271 NA
HETATM   18  C10 UNL     1      27.487   7.274  47.845  1.00  0.00     0.135 A 
HETATM   19  C11 UNL     1      27.867   6.035  48.307  1.00  0.00     0.029 A 
HETATM   20 BR2  UNL     1      29.710   5.578  48.143  1.00  0.00    -0.050 Br
HETATM   21  C12 UNL     1      26.979   5.141  48.869  1.00  0.00     0.039 A 
ENDBRANCH   2  15
TORSDOF 5
ENDMDL
MODEL 8
REMARK VINA RESULT:      -6.3      4.235      5.261
REMARK  5 active torsions:
REMARK  status: ('A' for Active; 'I' for Inactive)
REMARK    1  A    between atoms: C3_3  and  C4_5 
REMARK    2  A    between atoms: C5_6  and  C6_7 
REMARK    3  A    between atoms: C6_7  and  S1_8 
REMARK    4  A    between atoms: S1_8  and  N1_11 
REMARK       I    between atoms: N1_11  and  C7_12 
REMARK    5  A    between atoms: C7_12  and  C8_14 
ROOT
HETATM    1  N1  UNL     1      21.162   2.220  52.408  1.00  0.00    -0.250 N 
HETATM    2  C7  UNL     1      20.873   0.845  52.705  1.00  0.00     0.266 C 
HETATM    3  O3  UNL     1      19.823   0.417  52.163  1.00  0.00    -0.267 OA
HETATM    4  H9  UNL     1      21.996   2.728  52.778  1.00  0.00     0.181 HD
ENDROOT
BRANCH   1   5
HETATM    5  S1  UNL     1      20.310   3.342  51.449  1.00  0.00     0.236 S 
HETATM    6  O1  UNL     1      18.980   3.664  52.100  1.00  0.00    -0.205 OA
HETATM    7  O2  UNL     1      20.012   2.835  50.071  1.00  0.00    -0.205 OA
BRANCH   5   8
HETATM    8  C6  UNL     1      21.232   4.855  51.333  1.00  0.00     0.190 C 
BRANCH   8   9
HETATM    9  C5  UNL     1      22.663   4.482  51.274  1.00  0.00    -0.009 C 
HETATM   10  C4  UNL     1      23.400   4.464  50.181  1.00  0.00     0.015 C 
BRANCH  10  11
HETATM   11  C3  UNL     1      24.786   4.118  50.030  1.00  0.00     0.006 C 
HETATM   12  C2  UNL     1      25.622   4.735  49.209  1.00  0.00    -0.012 C 
HETATM   13  C1  UNL     1      27.034   4.282  49.145  1.00  0.00     0.037 C 
HETATM   14 BR1  UNL     1      25.342   2.667  51.127  1.00  0.00    -0.051 Br
ENDBRANCH  10  11
ENDBRANCH   8   9
ENDBRANCH   5   8
ENDBRANCH   1   5
BRANCH   2  15
HETATM   15  C8  UNL     1      21.779   0.096  53.566  1.00  0.00     0.051 A 
HETATM   16  C9  UNL     1      21.479  -0.590  54.726  1.00  0.00     0.133 A 
HETATM   17  N2  UNL     1      22.441  -1.233  55.405  1.00  0.00    -0.271 NA
HETATM   18  C10 UNL     1      23.730  -1.263  55.028  1.00  0.00     0.135 A 
HETATM   19  C11 UNL     1      24.042  -0.582  53.873  1.00  0.00     0.029 A 
HETATM   20 BR2  UNL     1      25.866  -0.611  53.318  1.00  0.00    -0.050 Br
HETATM   21  C12 UNL     1      23.102   0.099  53.128  1.00  0.00     0.039 A 
ENDBRANCH   2  15
TORSDOF 5
ENDMDL
MODEL 9
REMARK VINA RESULT:      -6.3      3.981      4.858
REMARK  5 active torsions:
REMARK  status: ('A' for Active; 'I' for Inactive)
REMARK    1  A    between atoms: C3_3  and  C4_5 
REMARK    2  A    between atoms: C5_6  and  C6_7 
REMARK    3  A    between atoms: C6_7  and  S1_8 
REMARK    4  A    between atoms: S1_8  and  N1_11 
REMARK       I    between atoms: N1_11  and  C7_12 
REMARK    5  A    between atoms: C7_12  and  C8_14 
ROOT
HETATM    1  N1  UNL     1      23.040   2.866  51.723  1.00  0.00    -0.250 N 
HETATM    2  C7  UNL     1      22.555   1.570  51.343  1.00  0.00     0.266 C 
HETATM    3  O3  UNL     1      22.540   1.375  50.102  1.00  0.00    -0.267 OA
HETATM    4  H9  UNL     1      23.117   3.188  52.714  1.00  0.00     0.181 HD
ENDROOT
BRANCH   1   5
HETATM    5  S1  UNL     1      23.590   4.162  50.761  1.00  0.00     0.236 S 
HETATM    6  O1  UNL     1      23.777   5.394  51.622  1.00  0.00    -0.205 OA
HETATM    7  O2  UNL     1      22.634   4.533  49.668  1.00  0.00    -0.205 OA
BRANCH   5   8
HETATM    8  C6  UNL     1      25.166   3.756  50.051  1.00  0.00     0.190 C 
BRANCH   8   9
HETATM    9  C5  UNL     1      25.951   3.078  51.108  1.00  0.00    -0.009 C 
HETATM   10  C4  UNL     1      26.199   1.785  51.158  1.00  0.00     0.015 C 
BRANCH  10  11
HETATM   11  C3  UNL     1      26.945   1.045  52.138  1.00  0.00     0.006 C 
HETATM   12  C2  UNL     1      26.906  -0.274  52.263  1.00  0.00    -0.012 C 
HETATM   13  C1  UNL     1      27.726  -0.921  53.318  1.00  0.00     0.037 C 
HETATM   14 BR1  UNL     1      28.019   2.131  53.271  1.00  0.00    -0.051 Br
ENDBRANCH  10  11
ENDBRANCH   8   9
ENDBRANCH   5   8
ENDBRANCH   1   5
BRANCH   2  15
HETATM   15  C8  UNL     1      22.141   0.631  52.378  1.00  0.00     0.051 A 
HETATM   16  C9  UNL     1      20.880   0.118  52.608  1.00  0.00     0.133 A 
HETATM   17  N2  UNL     1      20.669  -0.744  53.614  1.00  0.00    -0.271 NA
HETATM   18  C10 UNL     1      21.631  -1.165  54.453  1.00  0.00     0.135 A 
HETATM   19  C11 UNL     1      22.893  -0.660  54.234  1.00  0.00     0.029 A 
HETATM   20 BR2  UNL     1      24.274  -1.243  55.412  1.00  0.00    -0.050 Br
HETATM   21  C12 UNL     1      23.177   0.229  53.219  1.00  0.00     0.039 A 
ENDBRANCH   2  15
TORSDOF 5
ENDMDL
