MODEL 1
REMARK VINA RESULT:      -7.6      0.000      0.000
REMARK  5 active torsions:
REMARK  status: ('A' for Active; 'I' for Inactive)
REMARK    1  A    between atoms: O1_2  and  C2_3 
REMARK    2  A    between atoms: C4_5  and  N1_6 
REMARK    3  A    between atoms: N1_6  and  C5_7 
REMARK    4  A    between atoms: C14_19  and  P1_20 
REMARK    5  A    between atoms: C16_22  and  O2_23 
ROOT
HETATM    1  C2  UNL     1      26.508   5.307  49.055  1.00  0.00     0.104 A 
HETATM    2  C3  UNL     1      26.883   4.082  49.564  1.00  0.00     0.069 A 
HETATM    3  C4  UNL     1      26.115   3.338  50.429  1.00  0.00     0.037 A 
HETATM    4  C13 UNL     1      24.921   3.949  50.738  1.00  0.00     0.044 A 
HETATM    5  C14 UNL     1      24.496   5.165  50.263  1.00  0.00     0.004 A 
HETATM    6  C16 UNL     1      25.303   5.868  49.400  1.00  0.00     0.112 A 
ENDROOT
BRANCH   3   7
HETATM    7  N1  UNL     1      26.527   2.078  50.927  1.00  0.00    -0.340 N 
HETATM    8  H5  UNL     1      26.370   1.356  50.207  1.00  0.00     0.167 HD
BRANCH   7   9
HETATM    9  C5  UNL     1      27.069   1.774  52.182  1.00  0.00     0.142 A 
HETATM   10  N2  UNL     1      28.240   2.213  52.644  1.00  0.00    -0.224 NA
HETATM   11  C6  UNL     1      28.705   1.888  53.852  1.00  0.00     0.236 A 
HETATM   12  N3  UNL     1      28.038   1.095  54.707  1.00  0.00    -0.241 NA
HETATM   13  C7  UNL     1      26.835   0.619  54.282  1.00  0.00     0.072 A 
HETATM   14  C8  UNL     1      26.179  -0.188  55.181  1.00  0.00     0.034 A 
HETATM   15  C12 UNL     1      26.376   0.967  53.036  1.00  0.00     0.040 A 
HETATM   16  C9  UNL     1      24.952  -0.716  54.842  1.00  0.00     0.026 A 
HETATM   17  C10 UNL     1      24.428  -0.408  53.599  1.00  0.00     0.035 A 
HETATM   18 CL1  UNL     1      22.872  -1.084  53.179  1.00  0.00    -0.084 Cl
HETATM   19  C11 UNL     1      25.148   0.403  52.766  1.00  0.00     0.041 A 
ENDBRANCH   7   9
ENDBRANCH   3   7
BRANCH   1  20
HETATM   20  O1  UNL     1      27.282   6.058  48.182  1.00  0.00    -0.353 OA
HETATM   21  C1  UNL     1      28.682   5.855  48.221  1.00  0.00     0.210 C 
ENDBRANCH   1  20
BRANCH   5  22
HETATM   22  P1  UNL     1      22.867   5.815  50.790  1.00  0.00    -0.096 P 
HETATM   23  C15 UNL     1      21.938   4.645  51.854  1.00  0.00     0.046 C 
HETATM   24  H11 UNL     1      22.996   7.132  51.393  1.00  0.00     0.062 HD
ENDBRANCH   5  22
BRANCH   6  25
HETATM   25  O2  UNL     1      24.893   7.094  48.910  1.00  0.00    -0.352 OA
HETATM   26  C17 UNL     1      24.185   7.097  47.668  1.00  0.00     0.210 C 
ENDBRANCH   6  25
TORSDOF 5
ENDMDL
MODEL 2
REMARK VINA RESULT:      -7.4      1.517      2.801
REMARK  5 active torsions:
REMARK  status: ('A' for Active; 'I' for Inactive)
REMARK    1  A    between atoms: O1_2  and  C2_3 
REMARK    2  A    between atoms: C4_5  and  N1_6 
REMARK    3  A    between atoms: N1_6  and  C5_7 
REMARK    4  A    between atoms: C14_19  and  P1_20 
REMARK    5  A    between atoms: C16_22  and  O2_23 
ROOT
HETATM    1  C2  UNL     1      23.841   4.817  50.133  1.00  0.00     0.104 A 
HETATM    2  C3  UNL     1      24.499   3.675  50.536  1.00  0.00     0.069 A 
HETATM    3  C4  UNL     1      25.837   3.440  50.322  1.00  0.00     0.037 A 
HETATM    4  C13 UNL     1      26.458   4.474  49.658  1.00  0.00     0.044 A 
HETATM    5  C14 UNL     1      25.854   5.632  49.234  1.00  0.00     0.004 A 
HETATM    6  C16 UNL     1      24.513   5.816  49.473  1.00  0.00     0.112 A 
ENDROOT
BRANCH   3   7
HETATM    7  N1  UNL     1      26.486   2.259  50.756  1.00  0.00    -0.340 N 
HETATM    8  H5  UNL     1      26.502   1.573  49.986  1.00  0.00     0.167 HD
BRANCH   7   9
HETATM    9  C5  UNL     1      27.043   1.983  52.012  1.00  0.00     0.142 A 
HETATM   10  N2  UNL     1      28.197   2.470  52.468  1.00  0.00    -0.224 NA
HETATM   11  C6  UNL     1      28.677   2.171  53.677  1.00  0.00     0.236 A 
HETATM   12  N3  UNL     1      28.043   1.357  54.538  1.00  0.00    -0.241 NA
HETATM   13  C7  UNL     1      26.859   0.833  54.119  1.00  0.00     0.072 A 
HETATM   14  C8  UNL     1      26.238   0.006  55.024  1.00  0.00     0.034 A 
HETATM   15  C12 UNL     1      26.384   1.155  52.872  1.00  0.00     0.040 A 
HETATM   16  C9  UNL     1      25.031  -0.572  54.692  1.00  0.00     0.026 A 
HETATM   17  C10 UNL     1      24.492  -0.292  53.448  1.00  0.00     0.035 A 
HETATM   18 CL1  UNL     1      22.963  -1.031  53.037  1.00  0.00    -0.084 Cl
HETATM   19  C11 UNL     1      25.178   0.542  52.608  1.00  0.00     0.041 A 
ENDBRANCH   7   9
ENDBRANCH   3   7
BRANCH   1  20
HETATM   20  O1  UNL     1      22.491   5.054  50.348  1.00  0.00    -0.353 OA
HETATM   21  C1  UNL     1      22.035   5.031  51.688  1.00  0.00     0.210 C 
ENDBRANCH   1  20
BRANCH   5  22
HETATM   22  P1  UNL     1      26.851   6.898  48.364  1.00  0.00    -0.096 P 
HETATM   23  C15 UNL     1      27.334   8.299  49.447  1.00  0.00     0.046 C 
HETATM   24  H11 UNL     1      27.992   6.299  47.690  1.00  0.00     0.062 HD
ENDBRANCH   5  22
BRANCH   6  25
HETATM   25  O2  UNL     1      23.887   6.976  49.054  1.00  0.00    -0.352 OA
HETATM   26  C17 UNL     1      23.672   7.992  50.037  1.00  0.00     0.210 C 
ENDBRANCH   6  25
TORSDOF 5
ENDMDL
MODEL 3
REMARK VINA RESULT:      -7.2      1.712      2.231
REMARK  5 active torsions:
REMARK  status: ('A' for Active; 'I' for Inactive)
REMARK    1  A    between atoms: O1_2  and  C2_3 
REMARK    2  A    between atoms: C4_5  and  N1_6 
REMARK    3  A    between atoms: N1_6  and  C5_7 
REMARK    4  A    between atoms: C14_19  and  P1_20 
REMARK    5  A    between atoms: C16_22  and  O2_23 
ROOT
HETATM    1  C2  UNL     1      27.541   5.956  48.555  1.00  0.00     0.104 A 
HETATM    2  C3  UNL     1      27.235   4.674  48.957  1.00  0.00     0.069 A 
HETATM    3  C4  UNL     1      26.142   4.346  49.726  1.00  0.00     0.037 A 
HETATM    4  C13 UNL     1      25.378   5.442  50.056  1.00  0.00     0.044 A 
HETATM    5  C14 UNL     1      25.633   6.739  49.684  1.00  0.00     0.004 A 
HETATM    6  C16 UNL     1      26.740   7.012  48.915  1.00  0.00     0.112 A 
ENDROOT
BRANCH   3   7
HETATM    7  N1  UNL     1      25.852   3.016  50.115  1.00  0.00    -0.340 N 
HETATM    8  H5  UNL     1      25.292   2.557  49.380  1.00  0.00     0.167 HD
BRANCH   7   9
HETATM    9  C5  UNL     1      26.226   2.352  51.291  1.00  0.00     0.142 A 
HETATM   10  N2  UNL     1      27.431   2.406  51.858  1.00  0.00    -0.224 NA
HETATM   11  C6  UNL     1      27.728   1.751  52.982  1.00  0.00     0.236 A 
HETATM   12  N3  UNL     1      26.843   0.983  53.640  1.00  0.00    -0.241 NA
HETATM   13  C7  UNL     1      25.596   0.895  53.101  1.00  0.00     0.072 A 
HETATM   14  C8  UNL     1      24.716   0.103  53.800  1.00  0.00     0.034 A 
HETATM   15  C12 UNL     1      25.313   1.579  51.944  1.00  0.00     0.040 A 
HETATM   16  C9  UNL     1      23.427  -0.048  53.333  1.00  0.00     0.026 A 
HETATM   17  C10 UNL     1      23.072   0.613  52.171  1.00  0.00     0.035 A 
HETATM   18 CL1  UNL     1      21.436   0.415  51.588  1.00  0.00    -0.084 Cl
HETATM   19  C11 UNL     1      24.011   1.381  51.538  1.00  0.00     0.041 A 
ENDBRANCH   7   9
ENDBRANCH   3   7
BRANCH   1  20
HETATM   20  O1  UNL     1      28.643   6.287  47.780  1.00  0.00    -0.353 OA
HETATM   21  C1  UNL     1      29.905   5.816  48.214  1.00  0.00     0.210 C 
ENDBRANCH   1  20
BRANCH   5  22
HETATM   22  P1  UNL     1      24.493   8.068  50.221  1.00  0.00    -0.096 P 
HETATM   23  C15 UNL     1      23.338   8.601  48.898  1.00  0.00     0.046 C 
HETATM   24  H11 UNL     1      23.803   7.705  51.448  1.00  0.00     0.062 HD
ENDBRANCH   5  22
BRANCH   6  25
HETATM   25  O2  UNL     1      27.014   8.311  48.531  1.00  0.00    -0.352 OA
HETATM   26  C17 UNL     1      27.990   9.025  49.296  1.00  0.00     0.210 C 
ENDBRANCH   6  25
TORSDOF 5
ENDMDL
MODEL 4
REMARK VINA RESULT:      -6.9      1.430      1.761
REMARK  5 active torsions:
REMARK  status: ('A' for Active; 'I' for Inactive)
REMARK    1  A    between atoms: O1_2  and  C2_3 
REMARK    2  A    between atoms: C4_5  and  N1_6 
REMARK    3  A    between atoms: N1_6  and  C5_7 
REMARK    4  A    between atoms: C14_19  and  P1_20 
REMARK    5  A    between atoms: C16_22  and  O2_23 
ROOT
HETATM    1  C2  UNL     1      24.532   5.681  49.997  1.00  0.00     0.104 A 
HETATM    2  C3  UNL     1      25.416   4.638  50.169  1.00  0.00     0.069 A 
HETATM    3  C4  UNL     1      25.090   3.440  50.759  1.00  0.00     0.037 A 
HETATM    4  C13 UNL     1      23.776   3.388  51.166  1.00  0.00     0.044 A 
HETATM    5  C14 UNL     1      22.852   4.394  51.021  1.00  0.00     0.004 A 
HETATM    6  C16 UNL     1      23.231   5.572  50.423  1.00  0.00     0.112 A 
ENDROOT
BRANCH   3   7
HETATM    7  N1  UNL     1      26.022   2.384  50.913  1.00  0.00    -0.340 N 
HETATM    8  H5  UNL     1      26.138   1.895  50.013  1.00  0.00     0.167 HD
BRANCH   7   9
HETATM    9  C5  UNL     1      26.717   1.999  52.067  1.00  0.00     0.142 A 
HETATM   10  N2  UNL     1      27.926   2.435  52.420  1.00  0.00    -0.224 NA
HETATM   11  C6  UNL     1      28.540   2.031  53.535  1.00  0.00     0.236 A 
HETATM   12  N3  UNL     1      27.996   1.155  54.396  1.00  0.00    -0.241 NA
HETATM   13  C7  UNL     1      26.760   0.679  54.080  1.00  0.00     0.072 A 
HETATM   14  C8  UNL     1      26.234  -0.213  54.983  1.00  0.00     0.034 A 
HETATM   15  C12 UNL     1      26.148   1.109  52.929  1.00  0.00     0.040 A 
HETATM   16  C9  UNL     1      24.985  -0.750  54.750  1.00  0.00     0.026 A 
HETATM   17  C10 UNL     1      24.309  -0.361  53.607  1.00  0.00     0.035 A 
HETATM   18 CL1  UNL     1      22.727  -1.048  53.322  1.00  0.00    -0.084 Cl
HETATM   19  C11 UNL     1      24.908   0.533  52.762  1.00  0.00     0.041 A 
ENDBRANCH   7   9
ENDBRANCH   3   7
BRANCH   1  20
HETATM   20  O1  UNL     1      24.860   6.891  49.401  1.00  0.00    -0.353 OA
HETATM   21  C1  UNL     1      25.789   7.715  50.080  1.00  0.00     0.210 C 
ENDBRANCH   1  20
BRANCH   5  22
HETATM   22  P1  UNL     1      21.143   4.136  51.625  1.00  0.00    -0.096 P 
HETATM   23  C15 UNL     1      20.887   2.479  52.371  1.00  0.00     0.046 C 
HETATM   24  H11 UNL     1      20.729   5.213  52.510  1.00  0.00     0.062 HD
ENDBRANCH   5  22
BRANCH   6  25
HETATM   25  O2  UNL     1      22.315   6.596  50.268  1.00  0.00    -0.352 OA
HETATM   26  C17 UNL     1      21.639   6.682  49.010  1.00  0.00     0.210 C 
ENDBRANCH   6  25
TORSDOF 5
ENDMDL
MODEL 5
REMARK VINA RESULT:      -6.9      4.075      7.186
REMARK  5 active torsions:
REMARK  status: ('A' for Active; 'I' for Inactive)
REMARK    1  A    between atoms: O1_2  and  C2_3 
REMARK    2  A    between atoms: C4_5  and  N1_6 
REMARK    3  A    between atoms: N1_6  and  C5_7 
REMARK    4  A    between atoms: C14_19  and  P1_20 
REMARK    5  A    between atoms: C16_22  and  O2_23 
ROOT
HETATM    1  C2  UNL     1      26.476   1.200  53.526  1.00  0.00     0.104 A 
HETATM    2  C3  UNL     1      26.018   2.482  53.313  1.00  0.00     0.069 A 
HETATM    3  C4  UNL     1      24.698   2.805  53.104  1.00  0.00     0.037 A 
HETATM    4  C13 UNL     1      23.872   1.704  53.130  1.00  0.00     0.044 A 
HETATM    5  C14 UNL     1      24.272   0.407  53.338  1.00  0.00     0.004 A 
HETATM    6  C16 UNL     1      25.605   0.139  53.541  1.00  0.00     0.112 A 
ENDROOT
BRANCH   3   7
HETATM    7  N1  UNL     1      24.259   4.135  52.897  1.00  0.00    -0.340 N 
HETATM    8  H5  UNL     1      24.754   4.766  53.545  1.00  0.00     0.167 HD
BRANCH   7   9
HETATM    9  C5  UNL     1      23.310   4.605  51.979  1.00  0.00     0.142 A 
HETATM   10  N2  UNL     1      21.993   4.646  52.183  1.00  0.00    -0.224 NA
HETATM   11  C6  UNL     1      21.137   5.107  51.269  1.00  0.00     0.236 A 
HETATM   12  N3  UNL     1      21.524   5.569  50.068  1.00  0.00    -0.241 NA
HETATM   13  C7  UNL     1      22.860   5.548  49.810  1.00  0.00     0.072 A 
HETATM   14  C8  UNL     1      23.220   6.027  48.573  1.00  0.00     0.034 A 
HETATM   15  C12 UNL     1      23.722   5.070  50.766  1.00  0.00     0.040 A 
HETATM   16  C9  UNL     1      24.553   6.048  48.220  1.00  0.00     0.026 A 
HETATM   17  C10 UNL     1      25.478   5.581  49.135  1.00  0.00     0.035 A 
HETATM   18 CL1  UNL     1      27.165   5.611  48.677  1.00  0.00    -0.084 Cl
HETATM   19  C11 UNL     1      25.033   5.120  50.344  1.00  0.00     0.041 A 
ENDBRANCH   7   9
ENDBRANCH   3   7
BRANCH   1  20
HETATM   20  O1  UNL     1      27.809   0.874  53.737  1.00  0.00    -0.353 OA
HETATM   21  C1  UNL     1      28.740   1.939  53.756  1.00  0.00     0.210 C 
ENDBRANCH   1  20
BRANCH   5  22
HETATM   22  P1  UNL     1      23.019  -0.929  53.339  1.00  0.00    -0.096 P 
HETATM   23  C15 UNL     1      22.311  -1.248  55.002  1.00  0.00     0.046 C 
HETATM   24  H11 UNL     1      21.994  -0.691  52.336  1.00  0.00     0.062 HD
ENDBRANCH   5  22
BRANCH   6  25
HETATM   25  O2  UNL     1      26.026  -1.161  53.752  1.00  0.00    -0.352 OA
HETATM   26  C17 UNL     1      26.662  -1.825  52.656  1.00  0.00     0.210 C 
ENDBRANCH   6  25
TORSDOF 5
ENDMDL
MODEL 6
REMARK VINA RESULT:      -6.9      2.297      3.015
REMARK  5 active torsions:
REMARK  status: ('A' for Active; 'I' for Inactive)
REMARK    1  A    between atoms: O1_2  and  C2_3 
REMARK    2  A    between atoms: C4_5  and  N1_6 
REMARK    3  A    between atoms: N1_6  and  C5_7 
REMARK    4  A    between atoms: C14_19  and  P1_20 
REMARK    5  A    between atoms: C16_22  and  O2_23 
ROOT
HETATM    1  C2  UNL     1      27.372   5.870  48.619  1.00  0.00     0.104 A 
HETATM    2  C3  UNL     1      27.091   4.570  48.976  1.00  0.00     0.069 A 
HETATM    3  C4  UNL     1      26.021   4.199  49.756  1.00  0.00     0.037 A 
HETATM    4  C13 UNL     1      25.252   5.272  50.148  1.00  0.00     0.044 A 
HETATM    5  C14 UNL     1      25.485   6.585  49.823  1.00  0.00     0.004 A 
HETATM    6  C16 UNL     1      26.569   6.902  49.039  1.00  0.00     0.112 A 
ENDROOT
BRANCH   3   7
HETATM    7  N1  UNL     1      25.754   2.851  50.099  1.00  0.00    -0.340 N 
HETATM    8  H5  UNL     1      26.416   2.233  49.605  1.00  0.00     0.167 HD
BRANCH   7   9
HETATM    9  C5  UNL     1      24.770   2.350  50.961  1.00  0.00     0.142 A 
HETATM   10  N2  UNL     1      23.492   2.728  50.976  1.00  0.00    -0.224 NA
HETATM   11  C6  UNL     1      22.598   2.213  51.823  1.00  0.00     0.236 A 
HETATM   12  N3  UNL     1      22.905   1.271  52.731  1.00  0.00    -0.241 NA
HETATM   13  C7  UNL     1      24.200   0.851  52.756  1.00  0.00     0.072 A 
HETATM   14  C8  UNL     1      24.478  -0.113  53.696  1.00  0.00     0.034 A 
HETATM   15  C12 UNL     1      25.102   1.394  51.875  1.00  0.00     0.040 A 
HETATM   16  C9  UNL     1      25.763  -0.604  53.798  1.00  0.00     0.026 A 
HETATM   17  C10 UNL     1      26.725  -0.100  52.940  1.00  0.00     0.035 A 
HETATM   18 CL1  UNL     1      28.350  -0.729  53.079  1.00  0.00    -0.084 Cl
HETATM   19  C11 UNL     1      26.361   0.858  52.035  1.00  0.00     0.041 A 
ENDBRANCH   7   9
ENDBRANCH   3   7
BRANCH   1  20
HETATM   20  O1  UNL     1      28.452   6.246  47.831  1.00  0.00    -0.353 OA
HETATM   21  C1  UNL     1      29.736   5.822  48.249  1.00  0.00     0.210 C 
ENDBRANCH   1  20
BRANCH   5  22
HETATM   22  P1  UNL     1      24.343   7.878  50.440  1.00  0.00    -0.096 P 
HETATM   23  C15 UNL     1      22.599   7.313  50.527  1.00  0.00     0.046 C 
HETATM   24  H11 UNL     1      24.810   8.436  51.698  1.00  0.00     0.062 HD
ENDBRANCH   5  22
BRANCH   6  25
HETATM   25  O2  UNL     1      26.820   8.219  48.702  1.00  0.00    -0.352 OA
HETATM   26  C17 UNL     1      27.734   8.942  49.531  1.00  0.00     0.210 C 
ENDBRANCH   6  25
TORSDOF 5
ENDMDL
MODEL 7
REMARK VINA RESULT:      -6.7      4.644      7.454
REMARK  5 active torsions:
REMARK  status: ('A' for Active; 'I' for Inactive)
REMARK    1  A    between atoms: O1_2  and  C2_3 
REMARK    2  A    between atoms: C4_5  and  N1_6 
REMARK    3  A    between atoms: N1_6  and  C5_7 
REMARK    4  A    between atoms: C14_19  and  P1_20 
REMARK    5  A    between atoms: C16_22  and  O2_23 
ROOT
HETATM    1  C2  UNL     1      26.537   4.866  49.236  1.00  0.00     0.104 A 
HETATM    2  C3  UNL     1      27.722   4.950  48.538  1.00  0.00     0.069 A 
HETATM    3  C4  UNL     1      28.326   6.133  48.183  1.00  0.00     0.037 A 
HETATM    4  C13 UNL     1      27.616   7.237  48.600  1.00  0.00     0.044 A 
HETATM    5  C14 UNL     1      26.433   7.213  49.296  1.00  0.00     0.004 A 
HETATM    6  C16 UNL     1      25.872   6.002  49.626  1.00  0.00     0.112 A 
ENDROOT
BRANCH   3   7
HETATM    7  N1  UNL     1      29.550   6.185  47.473  1.00  0.00    -0.340 N 
HETATM    8  H5  UNL     1      29.404   5.841  46.512  1.00  0.00     0.167 HD
BRANCH   7   9
HETATM    9  C5  UNL     1      30.802   6.619  47.927  1.00  0.00     0.142 A 
HETATM   10  N2  UNL     1      31.075   7.840  48.388  1.00  0.00    -0.224 NA
HETATM   11  C6  UNL     1      32.291   8.196  48.808  1.00  0.00     0.236 A 
HETATM   12  N3  UNL     1      33.342   7.359  48.807  1.00  0.00    -0.241 NA
HETATM   13  C7  UNL     1      33.115   6.098  48.346  1.00  0.00     0.072 A 
HETATM   14  C8  UNL     1      34.211   5.269  48.359  1.00  0.00     0.034 A 
HETATM   15  C12 UNL     1      31.856   5.755  47.919  1.00  0.00     0.040 A 
HETATM   16  C9  UNL     1      34.080   3.971  47.912  1.00  0.00     0.026 A 
HETATM   17  C10 UNL     1      32.838   3.556  47.466  1.00  0.00     0.035 A 
HETATM   18 CL1  UNL     1      32.683   1.909  46.901  1.00  0.00    -0.084 Cl
HETATM   19  C11 UNL     1      31.801   4.447  47.487  1.00  0.00     0.041 A 
ENDBRANCH   7   9
ENDBRANCH   3   7
BRANCH   1  20
HETATM   20  O1  UNL     1      25.927   3.672  49.595  1.00  0.00    -0.353 OA
HETATM   21  C1  UNL     1      26.511   2.940  50.656  1.00  0.00     0.210 C 
ENDBRANCH   1  20
BRANCH   5  22
HETATM   22  P1  UNL     1      25.636   8.794  49.767  1.00  0.00    -0.096 P 
HETATM   23  C15 UNL     1      26.261  10.226  48.804  1.00  0.00     0.046 C 
HETATM   24  H11 UNL     1      24.187   8.686  49.724  1.00  0.00     0.062 HD
ENDBRANCH   5  22
BRANCH   6  25
HETATM   25  O2  UNL     1      24.681   5.958  50.327  1.00  0.00    -0.352 OA
HETATM   26  C17 UNL     1      23.482   5.790  49.564  1.00  0.00     0.210 C 
ENDBRANCH   6  25
TORSDOF 5
ENDMDL
MODEL 8
REMARK VINA RESULT:      -6.5      4.435      6.027
REMARK  5 active torsions:
REMARK  status: ('A' for Active; 'I' for Inactive)
REMARK    1  A    between atoms: O1_2  and  C2_3 
REMARK    2  A    between atoms: C4_5  and  N1_6 
REMARK    3  A    between atoms: N1_6  and  C5_7 
REMARK    4  A    between atoms: C14_19  and  P1_20 
REMARK    5  A    between atoms: C16_22  and  O2_23 
ROOT
HETATM    1  C2  UNL     1      21.737   0.470  53.540  1.00  0.00     0.104 A 
HETATM    2  C3  UNL     1      23.110   0.361  53.600  1.00  0.00     0.069 A 
HETATM    3  C4  UNL     1      23.976   1.091  52.820  1.00  0.00     0.037 A 
HETATM    4  C13 UNL     1      23.324   1.950  51.964  1.00  0.00     0.044 A 
HETATM    5  C14 UNL     1      21.963   2.100  51.862  1.00  0.00     0.004 A 
HETATM    6  C16 UNL     1      21.142   1.345  52.665  1.00  0.00     0.112 A 
ENDROOT
BRANCH   3   7
HETATM    7  N1  UNL     1      25.383   0.962  52.912  1.00  0.00    -0.340 N 
HETATM    8  H5  UNL     1      25.803   1.888  53.081  1.00  0.00     0.167 HD
BRANCH   7   9
HETATM    9  C5  UNL     1      26.159  -0.200  52.802  1.00  0.00     0.142 A 
HETATM   10  N2  UNL     1      25.734  -1.370  52.325  1.00  0.00    -0.224 NA
HETATM   11  C6  UNL     1      26.522  -2.444  52.244  1.00  0.00     0.236 A 
HETATM   12  N3  UNL     1      27.808  -2.441  52.634  1.00  0.00    -0.241 NA
HETATM   13  C7  UNL     1      28.292  -1.268  53.129  1.00  0.00     0.072 A 
HETATM   14  C8  UNL     1      29.610  -1.301  53.516  1.00  0.00     0.034 A 
HETATM   15  C12 UNL     1      27.462  -0.177  53.202  1.00  0.00     0.040 A 
HETATM   16  C9  UNL     1      30.190  -0.161  54.029  1.00  0.00     0.026 A 
HETATM   17  C10 UNL     1      29.412   0.979  54.133  1.00  0.00     0.035 A 
HETATM   18 CL1  UNL     1      30.158   2.419  54.785  1.00  0.00    -0.084 Cl
HETATM   19  C11 UNL     1      28.108   0.923  53.724  1.00  0.00     0.041 A 
ENDBRANCH   7   9
ENDBRANCH   3   7
BRANCH   1  20
HETATM   20  O1  UNL     1      20.863  -0.267  54.327  1.00  0.00    -0.353 OA
HETATM   21  C1  UNL     1      21.045  -1.670  54.358  1.00  0.00     0.210 C 
ENDBRANCH   1  20
BRANCH   5  22
HETATM   22  P1  UNL     1      21.280   3.301  50.660  1.00  0.00    -0.096 P 
HETATM   23  C15 UNL     1      21.601   5.047  51.129  1.00  0.00     0.046 C 
HETATM   24  H11 UNL     1      21.719   3.000  49.307  1.00  0.00     0.062 HD
ENDBRANCH   5  22
BRANCH   6  25
HETATM   25  O2  UNL     1      19.769   1.482  52.577  1.00  0.00    -0.352 OA
HETATM   26  C17 UNL     1      19.069   0.530  51.770  1.00  0.00     0.210 C 
ENDBRANCH   6  25
TORSDOF 5
ENDMDL
MODEL 9
REMARK VINA RESULT:      -6.5      4.452      7.231
REMARK  5 active torsions:
REMARK  status: ('A' for Active; 'I' for Inactive)
REMARK    1  A    between atoms: O1_2  and  C2_3 
REMARK    2  A    between atoms: C4_5  and  N1_6 
REMARK    3  A    between atoms: N1_6  and  C5_7 
REMARK    4  A    between atoms: C14_19  and  P1_20 
REMARK    5  A    between atoms: C16_22  and  O2_23 
ROOT
HETATM    1  C2  UNL     1      26.064   7.215  49.292  1.00  0.00     0.104 A 
HETATM    2  C3  UNL     1      27.271   7.179  48.628  1.00  0.00     0.069 A 
HETATM    3  C4  UNL     1      27.986   6.028  48.390  1.00  0.00     0.037 A 
HETATM    4  C13 UNL     1      27.365   4.905  48.888  1.00  0.00     0.044 A 
HETATM    5  C14 UNL     1      26.165   4.882  49.556  1.00  0.00     0.004 A 
HETATM    6  C16 UNL     1      25.491   6.061  49.768  1.00  0.00     0.112 A 
ENDROOT
BRANCH   3   7
HETATM    7  N1  UNL     1      29.220   6.024  47.697  1.00  0.00    -0.340 N 
HETATM    8  H5  UNL     1      29.094   5.583  46.773  1.00  0.00     0.167 HD
BRANCH   7   9
HETATM    9  C5  UNL     1      30.459   6.519  48.124  1.00  0.00     0.142 A 
HETATM   10  N2  UNL     1      30.670   7.728  48.643  1.00  0.00    -0.224 NA
HETATM   11  C6  UNL     1      31.877   8.144  49.033  1.00  0.00     0.236 A 
HETATM   12  N3  UNL     1      32.981   7.383  48.940  1.00  0.00    -0.241 NA
HETATM   13  C7  UNL     1      32.819   6.137  48.416  1.00  0.00     0.072 A 
HETATM   14  C8  UNL     1      33.968   5.387  48.336  1.00  0.00     0.034 A 
HETATM   15  C12 UNL     1      31.568   5.731  48.021  1.00  0.00     0.040 A 
HETATM   16  C9  UNL     1      33.904   4.110  47.820  1.00  0.00     0.026 A 
HETATM   17  C10 UNL     1      32.674   3.635  47.401  1.00  0.00     0.035 A 
HETATM   18 CL1  UNL     1      32.605   2.015  46.748  1.00  0.00    -0.084 Cl
HETATM   19  C11 UNL     1      31.581   4.449  47.517  1.00  0.00     0.041 A 
ENDBRANCH   7   9
ENDBRANCH   3   7
BRANCH   1  20
HETATM   20  O1  UNL     1      25.342   8.376  49.533  1.00  0.00    -0.353 OA
HETATM   21  C1  UNL     1      25.999   9.607  49.297  1.00  0.00     0.210 C 
ENDBRANCH   1  20
BRANCH   5  22
HETATM   22  P1  UNL     1      25.496   3.281  50.144  1.00  0.00    -0.096 P 
HETATM   23  C15 UNL     1      26.677   2.355  51.200  1.00  0.00     0.046 C 
HETATM   24  H11 UNL     1      24.200   3.454  50.780  1.00  0.00     0.062 HD
ENDBRANCH   5  22
BRANCH   6  25
HETATM   25  O2  UNL     1      24.282   6.058  50.438  1.00  0.00    -0.352 OA
HETATM   26  C17 UNL     1      23.095   6.034  49.641  1.00  0.00     0.210 C 
ENDBRANCH   6  25
TORSDOF 5
ENDMDL
