MODEL 1
REMARK VINA RESULT:      -9.2      0.000      0.000
REMARK  5 active torsions:
REMARK  status: ('A' for Active; 'I' for Inactive)
REMARK    1  A    between atoms: N1_2  and  C2_3 
REMARK       I    between atoms: N1_2  and  C23_29 
REMARK    2  A    between atoms: C2_3  and  C3_4 
REMARK    3  A    between atoms: C23_29  and  C24_31 
REMARK    4  A    between atoms: C24_31  and  C25_32 
REMARK    5  A    between atoms: C25_32  and  O5_34 
ROOT
HETATM    1  C3  UNL     1      24.603   1.787  51.551  1.00  0.00     0.269 C 
HETATM    2  N2  UNL     1      23.870   2.885  50.947  1.00  0.00    -0.359 N 
HETATM    3  C4  UNL     1      23.237   3.028  49.727  1.00  0.00     0.056 A 
HETATM    4  C5  UNL     1      22.554   2.380  48.730  1.00  0.00    -0.009 A 
HETATM    5  C6  UNL     1      21.988   2.501  47.511  1.00  0.00     0.014 A 
HETATM    6  C7  UNL     1      22.177   3.842  47.126  1.00  0.00     0.002 A 
HETATM    7  C8  UNL     1      22.831   4.852  47.905  1.00  0.00     0.019 A 
HETATM    8  C9  UNL     1      23.152   4.109  48.970  1.00  0.00     0.059 A 
HETATM    9  C10 UNL     1      22.824   5.160  50.099  1.00  0.00     0.254 C 
HETATM   10  O1  UNL     1      23.046   6.285  50.462  1.00  0.00    -0.268 OA
HETATM   11  N3  UNL     1      21.875   4.667  51.151  1.00  0.00    -0.353 N 
HETATM   12  C11 UNL     1      20.938   4.179  52.191  1.00  0.00     0.161 C 
HETATM   13  C12 UNL     1      21.247   2.670  52.074  1.00  0.00    -0.040 C 
HETATM   14  C13 UNL     1      21.008   2.143  53.257  1.00  0.00     0.022 C 
HETATM   15  C14 UNL     1      21.212   0.717  53.506  1.00  0.00    -0.007 A 
HETATM   16  C15 UNL     1      20.102  -0.070  53.598  1.00  0.00     0.014 A 
HETATM   17  C16 UNL     1      20.387  -1.402  53.804  1.00  0.00     0.001 A 
HETATM   18  C17 UNL     1      21.619  -1.989  53.922  1.00  0.00     0.002 A 
HETATM   19  C18 UNL     1      22.711  -1.131  53.820  1.00  0.00     0.032 A 
HETATM   20  C19 UNL     1      22.507   0.237  53.610  1.00  0.00     0.067 A 
HETATM   21  N4  UNL     1      23.790   0.916  53.558  1.00  0.00    -0.260 N 
HETATM   22  C20 UNL     1      24.724   0.561  54.644  1.00  0.00     0.186 C 
HETATM   23  O2  UNL     1      24.535   1.810  52.897  1.00  0.00    -0.250 OA
HETATM   24  C21 UNL     1      21.774   1.730  51.061  1.00  0.00     0.010 C 
HETATM   25  C22 UNL     1      22.274   1.433  49.837  1.00  0.00     0.014 C 
HETATM   26  H7  UNL     1      23.875   3.696  51.591  1.00  0.00     0.162 HD
HETATM   27  H11 UNL     1      21.744   3.843  50.583  1.00  0.00     0.163 HD
ENDROOT
BRANCH   1  28
HETATM   28  C2  UNL     1      26.037   1.707  51.069  1.00  0.00     0.181 C 
BRANCH  28  29
HETATM   29  N1  UNL     1      26.965   1.294  52.102  1.00  0.00    -0.352 N 
HETATM   30  C1  UNL     1      27.700   2.242  52.934  1.00  0.00     0.152 C 
HETATM   31  C23 UNL     1      27.173  -0.089  52.324  1.00  0.00     0.229 C 
HETATM   32  O3  UNL     1      26.587  -0.979  51.660  1.00  0.00    -0.273 OA
BRANCH  31  33
HETATM   33  C24 UNL     1      28.098  -0.624  53.357  1.00  0.00     0.212 C 
BRANCH  33  34
HETATM   34  C25 UNL     1      28.274  -2.084  53.142  1.00  0.00     0.148 C 
HETATM   35  O4  UNL     1      29.433  -2.291  53.586  1.00  0.00    -0.650 OA
BRANCH  34  36
HETATM   36  O5  UNL     1      28.410  -3.439  52.929  1.00  0.00    -0.776 OA
HETATM   37  H26 UNL     1      29.341  -3.854  52.803  1.00  0.00     0.167 HD
ENDBRANCH  34  36
ENDBRANCH  33  34
ENDBRANCH  31  33
ENDBRANCH  28  29
ENDBRANCH   1  28
TORSDOF 5
ENDMDL
MODEL 2
REMARK VINA RESULT:      -8.8      9.051     12.646
REMARK  5 active torsions:
REMARK  status: ('A' for Active; 'I' for Inactive)
REMARK    1  A    between atoms: N1_2  and  C2_3 
REMARK       I    between atoms: N1_2  and  C23_29 
REMARK    2  A    between atoms: C2_3  and  C3_4 
REMARK    3  A    between atoms: C23_29  and  C24_31 
REMARK    4  A    between atoms: C24_31  and  C25_32 
REMARK    5  A    between atoms: C25_32  and  O5_34 
ROOT
HETATM    1  C3  UNL     1      31.138   6.856  47.788  1.00  0.00     0.269 C 
HETATM    2  N2  UNL     1      32.477   6.299  47.700  1.00  0.00    -0.359 N 
HETATM    3  C4  UNL     1      33.163   5.672  46.678  1.00  0.00     0.056 A 
HETATM    4  C5  UNL     1      33.333   5.589  45.320  1.00  0.00    -0.009 A 
HETATM    5  C6  UNL     1      33.956   4.938  44.316  1.00  0.00     0.014 A 
HETATM    6  C7  UNL     1      34.758   3.956  44.928  1.00  0.00     0.002 A 
HETATM    7  C8  UNL     1      34.875   3.732  46.338  1.00  0.00     0.019 A 
HETATM    8  C9  UNL     1      34.031   4.677  46.764  1.00  0.00     0.059 A 
HETATM    9  C10 UNL     1      34.860   5.197  48.001  1.00  0.00     0.254 C 
HETATM   10  O1  UNL     1      35.415   4.839  49.006  1.00  0.00    -0.268 OA
HETATM   11  N3  UNL     1      35.115   6.674  48.003  1.00  0.00    -0.353 N 
HETATM   12  C11 UNL     1      35.367   8.135  48.004  1.00  0.00     0.161 C 
HETATM   13  C12 UNL     1      34.139   8.570  47.175  1.00  0.00    -0.040 C 
HETATM   14  C13 UNL     1      33.837   9.793  47.559  1.00  0.00     0.022 C 
HETATM   15  C14 UNL     1      32.704  10.511  46.979  1.00  0.00    -0.007 A 
HETATM   16  C15 UNL     1      32.980  11.505  46.087  1.00  0.00     0.014 A 
HETATM   17  C16 UNL     1      31.855  12.109  45.570  1.00  0.00     0.001 A 
HETATM   18  C17 UNL     1      30.544  11.823  45.850  1.00  0.00     0.002 A 
HETATM   19  C18 UNL     1      30.331  10.800  46.769  1.00  0.00     0.032 A 
HETATM   20  C19 UNL     1      31.421  10.136  47.341  1.00  0.00     0.067 A 
HETATM   21  N4  UNL     1      30.942   9.131  48.273  1.00  0.00    -0.260 N 
HETATM   22  C20 UNL     1      29.905   9.600  49.213  1.00  0.00     0.186 C 
HETATM   23  O2  UNL     1      31.064   7.862  48.681  1.00  0.00    -0.250 OA
HETATM   24  C21 UNL     1      33.226   7.984  46.170  1.00  0.00     0.010 C 
HETATM   25  C22 UNL     1      32.787   6.967  45.388  1.00  0.00     0.014 C 
HETATM   26  H7  UNL     1      32.951   6.401  48.615  1.00  0.00     0.162 HD
HETATM   27  H11 UNL     1      34.717   6.699  47.076  1.00  0.00     0.163 HD
ENDROOT
BRANCH   1  28
HETATM   28  C2  UNL     1      30.083   5.802  48.049  1.00  0.00     0.181 C 
BRANCH  28  29
HETATM   29  N1  UNL     1      28.730   6.291  47.877  1.00  0.00    -0.352 N 
HETATM   30  C1  UNL     1      28.398   7.417  47.008  1.00  0.00     0.152 C 
HETATM   31  C23 UNL     1      27.677   5.654  48.574  1.00  0.00     0.229 C 
HETATM   32  O3  UNL     1      27.864   4.678  49.343  1.00  0.00    -0.273 OA
BRANCH  31  33
HETATM   33  C24 UNL     1      26.253   6.069  48.470  1.00  0.00     0.212 C 
BRANCH  33  34
HETATM   34  C25 UNL     1      25.791   6.559  49.795  1.00  0.00     0.148 C 
HETATM   35  O4  UNL     1      26.365   7.675  49.893  1.00  0.00    -0.650 OA
BRANCH  34  36
HETATM   36  O5  UNL     1      25.347   6.986  51.028  1.00  0.00    -0.776 OA
HETATM   37  H26 UNL     1      25.730   6.575  51.888  1.00  0.00     0.167 HD
ENDBRANCH  34  36
ENDBRANCH  33  34
ENDBRANCH  31  33
ENDBRANCH  28  29
ENDBRANCH   1  28
TORSDOF 5
ENDMDL
MODEL 3
REMARK VINA RESULT:      -8.7      2.534      5.890
REMARK  5 active torsions:
REMARK  status: ('A' for Active; 'I' for Inactive)
REMARK    1  A    between atoms: N1_2  and  C2_3 
REMARK       I    between atoms: N1_2  and  C23_29 
REMARK    2  A    between atoms: C2_3  and  C3_4 
REMARK    3  A    between atoms: C23_29  and  C24_31 
REMARK    4  A    between atoms: C24_31  and  C25_32 
REMARK    5  A    between atoms: C25_32  and  O5_34 
ROOT
HETATM    1  C3  UNL     1      25.263   3.260  50.372  1.00  0.00     0.269 C 
HETATM    2  N2  UNL     1      23.977   2.690  50.014  1.00  0.00    -0.359 N 
HETATM    3  C4  UNL     1      22.793   2.541  50.712  1.00  0.00     0.056 A 
HETATM    4  C5  UNL     1      21.983   3.073  51.681  1.00  0.00    -0.009 A 
HETATM    5  C6  UNL     1      20.859   2.902  52.408  1.00  0.00     0.014 A 
HETATM    6  C7  UNL     1      20.302   1.682  51.978  1.00  0.00     0.002 A 
HETATM    7  C8  UNL     1      20.840   0.828  50.961  1.00  0.00     0.019 A 
HETATM    8  C9  UNL     1      21.926   1.545  50.650  1.00  0.00     0.059 A 
HETATM    9  C10 UNL     1      21.887   1.366  49.083  1.00  0.00     0.254 C 
HETATM   10  O1  UNL     1      21.832   0.541  48.210  1.00  0.00    -0.268 OA
HETATM   11  N3  UNL     1      21.906   2.650  48.310  1.00  0.00    -0.353 N 
HETATM   12  C11 UNL     1      21.926   3.920  47.546  1.00  0.00     0.161 C 
HETATM   13  C12 UNL     1      22.658   4.793  48.588  1.00  0.00    -0.040 C 
HETATM   14  C13 UNL     1      23.300   5.726  47.917  1.00  0.00     0.022 C 
HETATM   15  C14 UNL     1      24.116   6.727  48.602  1.00  0.00    -0.007 A 
HETATM   16  C15 UNL     1      23.611   7.990  48.699  1.00  0.00     0.014 A 
HETATM   17  C16 UNL     1      24.431   8.860  49.383  1.00  0.00     0.001 A 
HETATM   18  C17 UNL     1      25.650   8.595  49.951  1.00  0.00     0.002 A 
HETATM   19  C18 UNL     1      26.109   7.288  49.816  1.00  0.00     0.032 A 
HETATM   20  C19 UNL     1      25.335   6.342  49.134  1.00  0.00     0.067 A 
HETATM   21  N4  UNL     1      26.033   5.069  49.113  1.00  0.00    -0.260 N 
HETATM   22  C20 UNL     1      27.454   5.146  48.720  1.00  0.00     0.186 C 
HETATM   23  O2  UNL     1      25.918   3.748  49.300  1.00  0.00    -0.250 OA
HETATM   24  C21 UNL     1      22.869   4.814  50.052  1.00  0.00     0.010 C 
HETATM   25  C22 UNL     1      22.709   4.310  51.300  1.00  0.00     0.014 C 
HETATM   26  H7  UNL     1      24.023   2.319  49.049  1.00  0.00     0.162 HD
HETATM   27  H11 UNL     1      21.810   3.131  49.191  1.00  0.00     0.163 HD
ENDROOT
BRANCH   1  28
HETATM   28  C2  UNL     1      26.129   2.301  51.162  1.00  0.00     0.181 C 
BRANCH  28  29
HETATM   29  N1  UNL     1      25.533   1.895  52.418  1.00  0.00    -0.352 N 
HETATM   30  C1  UNL     1      25.045   2.847  53.411  1.00  0.00     0.152 C 
HETATM   31  C23 UNL     1      25.410   0.514  52.703  1.00  0.00     0.229 C 
HETATM   32  O3  UNL     1      25.799  -0.380  51.912  1.00  0.00    -0.273 OA
BRANCH  31  33
HETATM   33  C24 UNL     1      24.813  -0.016  53.958  1.00  0.00     0.212 C 
BRANCH  33  34
HETATM   34  C25 UNL     1      23.522  -0.680  53.639  1.00  0.00     0.148 C 
HETATM   35  O4  UNL     1      22.676   0.204  53.935  1.00  0.00    -0.650 OA
BRANCH  34  36
HETATM   36  O5  UNL     1      22.340  -1.322  53.335  1.00  0.00    -0.776 OA
HETATM   37  H26 UNL     1      22.023  -1.391  52.360  1.00  0.00     0.167 HD
ENDBRANCH  34  36
ENDBRANCH  33  34
ENDBRANCH  31  33
ENDBRANCH  28  29
ENDBRANCH   1  28
TORSDOF 5
ENDMDL
MODEL 4
REMARK VINA RESULT:      -8.4      3.039      5.043
REMARK  5 active torsions:
REMARK  status: ('A' for Active; 'I' for Inactive)
REMARK    1  A    between atoms: N1_2  and  C2_3 
REMARK       I    between atoms: N1_2  and  C23_29 
REMARK    2  A    between atoms: C2_3  and  C3_4 
REMARK    3  A    between atoms: C23_29  and  C24_31 
REMARK    4  A    between atoms: C24_31  and  C25_32 
REMARK    5  A    between atoms: C25_32  and  O5_34 
ROOT
HETATM    1  C3  UNL     1      24.307   4.007  50.647  1.00  0.00     0.269 C 
HETATM    2  N2  UNL     1      23.138   4.541  49.971  1.00  0.00    -0.359 N 
HETATM    3  C4  UNL     1      22.580   4.294  48.731  1.00  0.00     0.056 A 
HETATM    4  C5  UNL     1      22.381   3.354  47.753  1.00  0.00    -0.009 A 
HETATM    5  C6  UNL     1      21.892   3.124  46.517  1.00  0.00     0.014 A 
HETATM    6  C7  UNL     1      21.373   4.353  46.069  1.00  0.00     0.002 A 
HETATM    7  C8  UNL     1      21.369   5.580  46.811  1.00  0.00     0.019 A 
HETATM    8  C9  UNL     1      21.980   5.148  47.919  1.00  0.00     0.059 A 
HETATM    9  C10 UNL     1      21.101   5.906  48.986  1.00  0.00     0.254 C 
HETATM   10  O1  UNL     1      20.687   6.993  49.296  1.00  0.00    -0.268 OA
HETATM   11  N3  UNL     1      20.501   5.024  50.039  1.00  0.00    -0.353 N 
HETATM   12  C11 UNL     1      19.908   4.151  51.080  1.00  0.00     0.161 C 
HETATM   13  C12 UNL     1      20.962   3.023  51.047  1.00  0.00    -0.040 C 
HETATM   14  C13 UNL     1      20.978   2.485  52.249  1.00  0.00     0.022 C 
HETATM   15  C14 UNL     1      21.883   1.385  52.575  1.00  0.00    -0.007 A 
HETATM   16  C15 UNL     1      21.342   0.137  52.681  1.00  0.00     0.014 A 
HETATM   17  C16 UNL     1      22.269  -0.843  52.961  1.00  0.00     0.001 A 
HETATM   18  C17 UNL     1      23.620  -0.696  53.136  1.00  0.00     0.002 A 
HETATM   19  C18 UNL     1      24.109   0.602  53.017  1.00  0.00     0.032 A 
HETATM   20  C19 UNL     1      23.232   1.655  52.733  1.00  0.00     0.067 A 
HETATM   21  N4  UNL     1      23.974   2.902  52.676  1.00  0.00    -0.260 N 
HETATM   22  C20 UNL     1      24.906   3.121  53.800  1.00  0.00     0.186 C 
HETATM   23  O2  UNL     1      24.174   4.032  51.988  1.00  0.00    -0.250 OA
HETATM   24  C21 UNL     1      21.948   2.465  50.096  1.00  0.00     0.010 C 
HETATM   25  C22 UNL     1      22.585   2.435  48.900  1.00  0.00     0.014 C 
HETATM   26  H7  UNL     1      22.690   5.254  50.573  1.00  0.00     0.162 HD
HETATM   27  H11 UNL     1      20.844   4.236  49.511  1.00  0.00     0.163 HD
ENDROOT
BRANCH   1  28
HETATM   28  C2  UNL     1      25.593   4.672  50.203  1.00  0.00     0.181 C 
BRANCH  28  29
HETATM   29  N1  UNL     1      25.486   6.112  50.100  1.00  0.00    -0.352 N 
HETATM   30  C1  UNL     1      24.551   6.899  50.899  1.00  0.00     0.152 C 
HETATM   31  C23 UNL     1      26.324   6.798  49.188  1.00  0.00     0.229 C 
HETATM   32  O3  UNL     1      27.160   6.209  48.459  1.00  0.00    -0.273 OA
BRANCH  31  33
HETATM   33  C24 UNL     1      26.302   8.273  49.002  1.00  0.00     0.212 C 
BRANCH  33  34
HETATM   34  C25 UNL     1      27.021   8.917  50.132  1.00  0.00     0.148 C 
HETATM   35  O4  UNL     1      26.945  10.140  49.847  1.00  0.00    -0.650 OA
BRANCH  34  36
HETATM   36  O5  UNL     1      27.694   9.486  51.192  1.00  0.00    -0.776 OA
HETATM   37  H26 UNL     1      27.196  10.087  51.860  1.00  0.00     0.167 HD
ENDBRANCH  34  36
ENDBRANCH  33  34
ENDBRANCH  31  33
ENDBRANCH  28  29
ENDBRANCH   1  28
TORSDOF 5
ENDMDL
MODEL 5
REMARK VINA RESULT:      -8.4      4.856      7.809
REMARK  5 active torsions:
REMARK  status: ('A' for Active; 'I' for Inactive)
REMARK    1  A    between atoms: N1_2  and  C2_3 
REMARK       I    between atoms: N1_2  and  C23_29 
REMARK    2  A    between atoms: C2_3  and  C3_4 
REMARK    3  A    between atoms: C23_29  and  C24_31 
REMARK    4  A    between atoms: C24_31  and  C25_32 
REMARK    5  A    between atoms: C25_32  and  O5_34 
ROOT
HETATM    1  C3  UNL     1      18.642   3.429  49.677  1.00  0.00     0.269 C 
HETATM    2  N2  UNL     1      19.816   4.035  49.076  1.00  0.00    -0.359 N 
HETATM    3  C4  UNL     1      20.664   5.044  49.492  1.00  0.00     0.056 A 
HETATM    4  C5  UNL     1      21.234   5.660  50.576  1.00  0.00    -0.009 A 
HETATM    5  C6  UNL     1      22.013   6.680  50.992  1.00  0.00     0.014 A 
HETATM    6  C7  UNL     1      22.391   7.379  49.830  1.00  0.00     0.002 A 
HETATM    7  C8  UNL     1      22.017   7.038  48.489  1.00  0.00     0.019 A 
HETATM    8  C9  UNL     1      21.266   5.964  48.756  1.00  0.00     0.059 A 
HETATM    9  C10 UNL     1      21.744   5.040  47.571  1.00  0.00     0.254 C 
HETATM   10  O1  UNL     1      21.880   4.999  46.377  1.00  0.00    -0.268 OA
HETATM   11  N3  UNL     1      22.247   3.693  47.997  1.00  0.00    -0.353 N 
HETATM   12  C11 UNL     1      22.745   2.361  48.417  1.00  0.00     0.161 C 
HETATM   13  C12 UNL     1      21.940   2.230  49.729  1.00  0.00    -0.040 C 
HETATM   14  C13 UNL     1      21.759   0.943  49.934  1.00  0.00     0.022 C 
HETATM   15  C14 UNL     1      21.015   0.458  51.095  1.00  0.00    -0.007 A 
HETATM   16  C15 UNL     1      21.732  -0.093  52.116  1.00  0.00     0.014 A 
HETATM   17  C16 UNL     1      20.955  -0.496  53.179  1.00  0.00     0.001 A 
HETATM   18  C17 UNL     1      19.594  -0.403  53.309  1.00  0.00     0.002 A 
HETATM   19  C18 UNL     1      18.921   0.167  52.232  1.00  0.00     0.032 A 
HETATM   20  C19 UNL     1      19.638   0.603  51.112  1.00  0.00     0.067 A 
HETATM   21  N4  UNL     1      18.716   1.139  50.126  1.00  0.00    -0.260 N 
HETATM   22  C20 UNL     1      17.539   0.292  49.851  1.00  0.00     0.186 C 
HETATM   23  O2  UNL     1      18.473   2.151  49.284  1.00  0.00    -0.250 OA
HETATM   24  C21 UNL     1      21.300   3.122  50.720  1.00  0.00     0.010 C 
HETATM   25  C22 UNL     1      20.953   4.342  51.197  1.00  0.00     0.014 C 
HETATM   26  H7  UNL     1      19.988   3.605  48.150  1.00  0.00     0.162 HD
HETATM   27  H11 UNL     1      22.172   4.015  48.949  1.00  0.00     0.163 HD
ENDROOT
BRANCH   1  28
HETATM   28  C2  UNL     1      17.386   4.246  49.461  1.00  0.00     0.181 C 
BRANCH  28  29
HETATM   29  N1  UNL     1      16.214   3.672  50.088  1.00  0.00    -0.352 N 
HETATM   30  C1  UNL     1      15.143   3.028  49.333  1.00  0.00     0.152 C 
HETATM   31  C23 UNL     1      16.094   3.727  51.498  1.00  0.00     0.229 C 
HETATM   32  O3  UNL     1      16.963   4.259  52.232  1.00  0.00    -0.273 OA
BRANCH  31  33
HETATM   33  C24 UNL     1      14.938   3.168  52.246  1.00  0.00     0.212 C 
BRANCH  33  34
HETATM   34  C25 UNL     1      14.674   4.016  53.438  1.00  0.00     0.148 C 
HETATM   35  O4  UNL     1      13.504   4.429  53.230  1.00  0.00    -0.650 OA
BRANCH  34  36
HETATM   36  O5  UNL     1      14.459   4.796  54.554  1.00  0.00    -0.776 OA
HETATM   37  H26 UNL     1      14.287   4.358  55.468  1.00  0.00     0.167 HD
ENDBRANCH  34  36
ENDBRANCH  33  34
ENDBRANCH  31  33
ENDBRANCH  28  29
ENDBRANCH   1  28
TORSDOF 5
ENDMDL
MODEL 6
REMARK VINA RESULT:      -8.3      2.898      6.355
REMARK  5 active torsions:
REMARK  status: ('A' for Active; 'I' for Inactive)
REMARK    1  A    between atoms: N1_2  and  C2_3 
REMARK       I    between atoms: N1_2  and  C23_29 
REMARK    2  A    between atoms: C2_3  and  C3_4 
REMARK    3  A    between atoms: C23_29  and  C24_31 
REMARK    4  A    between atoms: C24_31  and  C25_32 
REMARK    5  A    between atoms: C25_32  and  O5_34 
ROOT
HETATM    1  C3  UNL     1      20.481   3.298  51.240  1.00  0.00     0.269 C 
HETATM    2  N2  UNL     1      21.780   3.626  51.801  1.00  0.00    -0.359 N 
HETATM    3  C4  UNL     1      22.940   2.893  51.966  1.00  0.00     0.056 A 
HETATM    4  C5  UNL     1      23.717   1.885  51.455  1.00  0.00    -0.009 A 
HETATM    5  C6  UNL     1      24.816   1.125  51.643  1.00  0.00     0.014 A 
HETATM    6  C7  UNL     1      25.389   1.564  52.852  1.00  0.00     0.002 A 
HETATM    7  C8  UNL     1      24.886   2.618  53.682  1.00  0.00     0.019 A 
HETATM    8  C9  UNL     1      23.810   2.949  52.960  1.00  0.00     0.059 A 
HETATM    9  C10 UNL     1      23.902   4.517  53.102  1.00  0.00     0.254 C 
HETATM   10  O1  UNL     1      23.987   5.407  53.906  1.00  0.00    -0.268 OA
HETATM   11  N3  UNL     1      23.906   5.260  51.800  1.00  0.00    -0.353 N 
HETATM   12  C11 UNL     1      23.910   5.995  50.512  1.00  0.00     0.161 C 
HETATM   13  C12 UNL     1      23.142   4.958  49.665  1.00  0.00    -0.040 C 
HETATM   14  C13 UNL     1      22.522   5.629  48.717  1.00  0.00     0.022 C 
HETATM   15  C14 UNL     1      21.682   4.948  47.733  1.00  0.00    -0.007 A 
HETATM   16  C15 UNL     1      22.182   4.804  46.472  1.00  0.00     0.014 A 
HETATM   17  C16 UNL     1      21.338   4.128  45.619  1.00  0.00     0.001 A 
HETATM   18  C17 UNL     1      20.102   3.607  45.897  1.00  0.00     0.002 A 
HETATM   19  C18 UNL     1      19.649   3.788  47.201  1.00  0.00     0.032 A 
HETATM   20  C19 UNL     1      20.447   4.466  48.130  1.00  0.00     0.067 A 
HETATM   21  N4  UNL     1      19.751   4.539  49.403  1.00  0.00    -0.260 N 
HETATM   22  C20 UNL     1      18.344   4.978  49.318  1.00  0.00     0.186 C 
HETATM   23  O2  UNL     1      19.862   4.379  50.727  1.00  0.00    -0.250 OA
HETATM   24  C21 UNL     1      22.882   3.501  49.678  1.00  0.00     0.010 C 
HETATM   25  C22 UNL     1      23.002   2.261  50.211  1.00  0.00     0.014 C 
HETATM   26  H7  UNL     1      21.767   4.600  52.149  1.00  0.00     0.162 HD
HETATM   27  H11 UNL     1      23.973   4.365  51.340  1.00  0.00     0.163 HD
ENDROOT
BRANCH   1  28
HETATM   28  C2  UNL     1      19.591   2.559  52.218  1.00  0.00     0.181 C 
BRANCH  28  29
HETATM   29  N1  UNL     1      19.827   1.130  52.240  1.00  0.00    -0.352 N 
HETATM   30  C1  UNL     1      19.462   0.248  51.136  1.00  0.00     0.152 C 
HETATM   31  C23 UNL     1      20.444   0.555  53.377  1.00  0.00     0.229 C 
HETATM   32  O3  UNL     1      20.795   1.232  54.375  1.00  0.00    -0.273 OA
BRANCH  31  33
HETATM   33  C24 UNL     1      20.736  -0.897  53.506  1.00  0.00     0.212 C 
BRANCH  33  34
HETATM   34  C25 UNL     1      21.731  -1.097  54.592  1.00  0.00     0.148 C 
HETATM   35  O4  UNL     1      21.499  -2.277  54.964  1.00  0.00    -0.650 OA
BRANCH  34  36
HETATM   36  O5  UNL     1      22.663  -1.254  55.595  1.00  0.00    -0.776 OA
HETATM   37  H26 UNL     1      22.400  -1.103  56.577  1.00  0.00     0.167 HD
ENDBRANCH  34  36
ENDBRANCH  33  34
ENDBRANCH  31  33
ENDBRANCH  28  29
ENDBRANCH   1  28
TORSDOF 5
ENDMDL
MODEL 7
REMARK VINA RESULT:      -8.2     10.266     13.177
REMARK  5 active torsions:
REMARK  status: ('A' for Active; 'I' for Inactive)
REMARK    1  A    between atoms: N1_2  and  C2_3 
REMARK       I    between atoms: N1_2  and  C23_29 
REMARK    2  A    between atoms: C2_3  and  C3_4 
REMARK    3  A    between atoms: C23_29  and  C24_31 
REMARK    4  A    between atoms: C24_31  and  C25_32 
REMARK    5  A    between atoms: C25_32  and  O5_34 
ROOT
HETATM    1  C3  UNL     1      32.910   7.499  45.216  1.00  0.00     0.269 C 
HETATM    2  N2  UNL     1      32.752   6.236  45.915  1.00  0.00    -0.359 N 
HETATM    3  C4  UNL     1      33.518   5.592  46.868  1.00  0.00     0.056 A 
HETATM    4  C5  UNL     1      34.374   5.761  47.927  1.00  0.00    -0.009 A 
HETATM    5  C6  UNL     1      35.170   5.140  48.821  1.00  0.00     0.014 A 
HETATM    6  C7  UNL     1      35.060   3.763  48.549  1.00  0.00     0.002 A 
HETATM    7  C8  UNL     1      34.244   3.174  47.528  1.00  0.00     0.019 A 
HETATM    8  C9  UNL     1      33.727   4.295  47.012  1.00  0.00     0.059 A 
HETATM    9  C10 UNL     1      32.248   3.794  46.793  1.00  0.00     0.254 C 
HETATM   10  O1  UNL     1      31.591   2.921  46.289  1.00  0.00    -0.268 OA
HETATM   11  N3  UNL     1      31.198   4.657  47.427  1.00  0.00    -0.353 N 
HETATM   12  C11 UNL     1      30.161   5.511  48.054  1.00  0.00     0.161 C 
HETATM   13  C12 UNL     1      30.940   6.844  48.046  1.00  0.00    -0.040 C 
HETATM   14  C13 UNL     1      30.043   7.806  47.981  1.00  0.00     0.022 C 
HETATM   15  C14 UNL     1      30.441   9.212  47.942  1.00  0.00    -0.007 A 
HETATM   16  C15 UNL     1      30.266   9.946  49.078  1.00  0.00     0.014 A 
HETATM   17  C16 UNL     1      30.693  11.250  48.962  1.00  0.00     0.001 A 
HETATM   18  C17 UNL     1      31.251  11.858  47.867  1.00  0.00     0.002 A 
HETATM   19  C18 UNL     1      31.401  11.054  46.740  1.00  0.00     0.032 A 
HETATM   20  C19 UNL     1      30.991   9.717  46.776  1.00  0.00     0.067 A 
HETATM   21  N4  UNL     1      31.234   9.101  45.483  1.00  0.00    -0.260 N 
HETATM   22  C20 UNL     1      30.770   9.888  44.324  1.00  0.00     0.186 C 
HETATM   23  O2  UNL     1      31.726   8.029  44.851  1.00  0.00    -0.250 OA
HETATM   24  C21 UNL     1      32.348   7.296  48.024  1.00  0.00     0.010 C 
HETATM   25  C22 UNL     1      33.685   7.073  47.992  1.00  0.00     0.014 C 
HETATM   26  H7  UNL     1      31.897   5.761  45.575  1.00  0.00     0.162 HD
HETATM   27  H11 UNL     1      31.948   5.172  47.862  1.00  0.00     0.163 HD
ENDROOT
BRANCH   1  28
HETATM   28  C2  UNL     1      33.860   7.402  44.040  1.00  0.00     0.181 C 
BRANCH  28  29
HETATM   29  N1  UNL     1      33.322   6.643  42.930  1.00  0.00    -0.352 N 
HETATM   30  C1  UNL     1      32.440   7.225  41.924  1.00  0.00     0.152 C 
HETATM   31  C23 UNL     1      33.664   5.275  42.805  1.00  0.00     0.229 C 
HETATM   32  O3  UNL     1      34.417   4.686  43.620  1.00  0.00    -0.273 OA
BRANCH  31  33
HETATM   33  C24 UNL     1      33.173   4.403  41.706  1.00  0.00     0.212 C 
BRANCH  33  34
HETATM   34  C25 UNL     1      34.260   4.216  40.711  1.00  0.00     0.148 C 
HETATM   35  O4  UNL     1      34.148   3.001  40.403  1.00  0.00    -0.650 OA
BRANCH  34  36
HETATM   36  O5  UNL     1      35.278   4.072  39.792  1.00  0.00    -0.776 OA
HETATM   37  H26 UNL     1      35.982   3.332  39.908  1.00  0.00     0.167 HD
ENDBRANCH  34  36
ENDBRANCH  33  34
ENDBRANCH  31  33
ENDBRANCH  28  29
ENDBRANCH   1  28
TORSDOF 5
ENDMDL
MODEL 8
REMARK VINA RESULT:      -8.1      8.598     12.197
REMARK  5 active torsions:
REMARK  status: ('A' for Active; 'I' for Inactive)
REMARK    1  A    between atoms: N1_2  and  C2_3 
REMARK       I    between atoms: N1_2  and  C23_29 
REMARK    2  A    between atoms: C2_3  and  C3_4 
REMARK    3  A    between atoms: C23_29  and  C24_31 
REMARK    4  A    between atoms: C24_31  and  C25_32 
REMARK    5  A    between atoms: C25_32  and  O5_34 
ROOT
HETATM    1  C3  UNL     1      31.103   7.753  45.683  1.00  0.00     0.269 C 
HETATM    2  N2  UNL     1      30.457   8.027  46.955  1.00  0.00    -0.359 N 
HETATM    3  C4  UNL     1      29.404   7.427  47.617  1.00  0.00     0.056 A 
HETATM    4  C5  UNL     1      28.740   6.248  47.842  1.00  0.00    -0.009 A 
HETATM    5  C6  UNL     1      27.678   5.667  48.438  1.00  0.00     0.014 A 
HETATM    6  C7  UNL     1      26.987   6.703  49.096  1.00  0.00     0.002 A 
HETATM    7  C8  UNL     1      27.373   8.083  49.119  1.00  0.00     0.019 A 
HETATM    8  C9  UNL     1      28.474   7.997  48.364  1.00  0.00     0.059 A 
HETATM    9  C10 UNL     1      29.400   8.975  49.184  1.00  0.00     0.254 C 
HETATM   10  O1  UNL     1      29.460  10.083  49.647  1.00  0.00    -0.268 OA
HETATM   11  N3  UNL     1      30.714   8.384  49.600  1.00  0.00    -0.353 N 
HETATM   12  C11 UNL     1      32.013   7.799  50.011  1.00  0.00     0.161 C 
HETATM   13  C12 UNL     1      32.152   6.756  48.881  1.00  0.00    -0.040 C 
HETATM   14  C13 UNL     1      33.442   6.567  48.698  1.00  0.00     0.022 C 
HETATM   15  C14 UNL     1      33.934   5.640  47.680  1.00  0.00    -0.007 A 
HETATM   16  C15 UNL     1      34.431   4.444  48.107  1.00  0.00     0.014 A 
HETATM   17  C16 UNL     1      34.846   3.623  47.082  1.00  0.00     0.001 A 
HETATM   18  C17 UNL     1      34.811   3.876  45.736  1.00  0.00     0.002 A 
HETATM   19  C18 UNL     1      34.294   5.114  45.366  1.00  0.00     0.032 A 
HETATM   20  C19 UNL     1      33.851   6.007  46.348  1.00  0.00     0.067 A 
HETATM   21  N4  UNL     1      33.377   7.226  45.715  1.00  0.00    -0.260 N 
HETATM   22  C20 UNL     1      34.281   7.787  44.692  1.00  0.00     0.186 C 
HETATM   23  O2  UNL     1      32.395   8.135  45.677  1.00  0.00    -0.250 OA
HETATM   24  C21 UNL     1      31.269   6.009  47.959  1.00  0.00     0.010 C 
HETATM   25  C22 UNL     1      30.055   5.686  47.449  1.00  0.00     0.014 C 
HETATM   26  H7  UNL     1      30.899   8.855  47.392  1.00  0.00     0.162 HD
HETATM   27  H11 UNL     1      30.376   7.499  49.253  1.00  0.00     0.163 HD
ENDROOT
BRANCH   1  28
HETATM   28  C2  UNL     1      30.347   8.333  44.506  1.00  0.00     0.181 C 
BRANCH  28  29
HETATM   29  N1  UNL     1      29.895   9.690  44.730  1.00  0.00    -0.352 N 
HETATM   30  C1  UNL     1      30.781  10.847  44.642  1.00  0.00     0.152 C 
HETATM   31  C23 UNL     1      28.533   9.917  45.045  1.00  0.00     0.229 C 
HETATM   32  O3  UNL     1      27.695   8.986  45.142  1.00  0.00    -0.273 OA
BRANCH  31  33
HETATM   33  C24 UNL     1      27.961  11.266  45.290  1.00  0.00     0.212 C 
BRANCH  33  34
HETATM   34  C25 UNL     1      27.625  11.397  46.732  1.00  0.00     0.148 C 
HETATM   35  O4  UNL     1      28.555  12.124  47.168  1.00  0.00    -0.650 OA
BRANCH  34  36
HETATM   36  O5  UNL     1      27.289  11.499  48.065  1.00  0.00    -0.776 OA
HETATM   37  H26 UNL     1      28.008  11.717  48.766  1.00  0.00     0.167 HD
ENDBRANCH  34  36
ENDBRANCH  33  34
ENDBRANCH  31  33
ENDBRANCH  28  29
ENDBRANCH   1  28
TORSDOF 5
ENDMDL
MODEL 9
REMARK VINA RESULT:      -8.1      3.721      8.231
REMARK  5 active torsions:
REMARK  status: ('A' for Active; 'I' for Inactive)
REMARK    1  A    between atoms: N1_2  and  C2_3 
REMARK       I    between atoms: N1_2  and  C23_29 
REMARK    2  A    between atoms: C2_3  and  C3_4 
REMARK    3  A    between atoms: C23_29  and  C24_31 
REMARK    4  A    between atoms: C24_31  and  C25_32 
REMARK    5  A    between atoms: C25_32  and  O5_34 
ROOT
HETATM    1  C3  UNL     1      22.742   3.747  48.558  1.00  0.00     0.269 C 
HETATM    2  N2  UNL     1      22.406   3.378  49.923  1.00  0.00    -0.359 N 
HETATM    3  C4  UNL     1      22.985   2.507  50.825  1.00  0.00     0.056 A 
HETATM    4  C5  UNL     1      24.160   1.940  51.249  1.00  0.00    -0.009 A 
HETATM    5  C6  UNL     1      24.724   1.046  52.087  1.00  0.00     0.014 A 
HETATM    6  C7  UNL     1      23.664   0.482  52.822  1.00  0.00     0.002 A 
HETATM    7  C8  UNL     1      22.279   0.824  52.690  1.00  0.00     0.019 A 
HETATM    8  C9  UNL     1      22.388   1.741  51.723  1.00  0.00     0.059 A 
HETATM    9  C10 UNL     1      21.350   2.792  52.274  1.00  0.00     0.254 C 
HETATM   10  O1  UNL     1      20.216   2.917  52.655  1.00  0.00    -0.268 OA
HETATM   11  N3  UNL     1      21.894   4.181  52.430  1.00  0.00    -0.353 N 
HETATM   12  C11 UNL     1      22.432   5.553  52.584  1.00  0.00     0.161 C 
HETATM   13  C12 UNL     1      23.535   5.479  51.506  1.00  0.00    -0.040 C 
HETATM   14  C13 UNL     1      23.713   6.706  51.061  1.00  0.00     0.022 C 
HETATM   15  C14 UNL     1      24.688   6.997  50.012  1.00  0.00    -0.007 A 
HETATM   16  C15 UNL     1      25.849   7.608  50.385  1.00  0.00     0.014 A 
HETATM   17  C16 UNL     1      26.721   7.819  49.339  1.00  0.00     0.001 A 
HETATM   18  C17 UNL     1      26.546   7.491  48.020  1.00  0.00     0.002 A 
HETATM   19  C18 UNL     1      25.339   6.872  47.705  1.00  0.00     0.032 A 
HETATM   20  C19 UNL     1      24.399   6.622  48.711  1.00  0.00     0.067 A 
HETATM   21  N4  UNL     1      23.227   5.989  48.131  1.00  0.00    -0.260 N 
HETATM   22  C20 UNL     1      22.710   6.640  46.910  1.00  0.00     0.186 C 
HETATM   23  O2  UNL     1      22.338   4.996  48.257  1.00  0.00    -0.250 OA
HETATM   24  C21 UNL     1      24.349   4.442  50.834  1.00  0.00     0.010 C 
HETATM   25  C22 UNL     1      24.722   3.158  50.613  1.00  0.00     0.014 C 
HETATM   26  H7  UNL     1      21.547   3.878  50.211  1.00  0.00     0.162 HD
HETATM   27  H11 UNL     1      22.802   3.802  52.210  1.00  0.00     0.163 HD
ENDROOT
BRANCH   1  28
HETATM   28  C2  UNL     1      22.243   2.741  47.542  1.00  0.00     0.181 C 
BRANCH  28  29
HETATM   29  N1  UNL     1      21.057   3.181  46.836  1.00  0.00    -0.352 N 
HETATM   30  C1  UNL     1      19.730   3.193  47.442  1.00  0.00     0.152 C 
HETATM   31  C23 UNL     1      21.182   3.627  45.498  1.00  0.00     0.229 C 
HETATM   32  O3  UNL     1      22.281   3.654  44.891  1.00  0.00    -0.273 OA
BRANCH  31  33
HETATM   33  C24 UNL     1      20.035   4.103  44.680  1.00  0.00     0.212 C 
BRANCH  33  34
HETATM   34  C25 UNL     1      20.404   4.038  43.242  1.00  0.00     0.148 C 
HETATM   35  O4  UNL     1      19.847   2.976  42.862  1.00  0.00    -0.650 OA
BRANCH  34  36
HETATM   36  O5  UNL     1      20.762   4.005  41.912  1.00  0.00    -0.776 OA
HETATM   37  H26 UNL     1      20.041   3.945  41.181  1.00  0.00     0.167 HD
ENDBRANCH  34  36
ENDBRANCH  33  34
ENDBRANCH  31  33
ENDBRANCH  28  29
ENDBRANCH   1  28
TORSDOF 5
ENDMDL
