MODEL 1
REMARK VINA RESULT:      -7.7      0.000      0.000
REMARK  4 active torsions:
REMARK  status: ('A' for Active; 'I' for Inactive)
REMARK    1  A    between atoms: O1_2  and  C2_3 
REMARK    2  A    between atoms: C2_3  and  C3_4 
REMARK    3  A    between atoms: C3_4  and  O2_5 
REMARK    4  A    between atoms: O2_5  and  C4_6 
ROOT
HETATM    1  C4  UNL     1      26.016   3.849  50.206  1.00  0.00     0.125 C 
HETATM    2  C5  UNL     1      26.676   2.773  50.598  1.00  0.00     0.078 C 
HETATM    3  C6  UNL     1      26.560   1.634  51.485  1.00  0.00     0.099 C 
HETATM    4  N1  UNL     1      26.125   0.751  52.365  1.00  0.00    -0.258 NA
HETATM    5  C7  UNL     1      27.070  -0.308  52.619  1.00  0.00     0.228 C 
HETATM    6  N2  UNL     1      27.009  -0.775  53.834  1.00  0.00    -0.262 NA
HETATM    7  C8  UNL     1      26.035  -0.209  54.765  1.00  0.00     0.295 C 
HETATM    8  N3  UNL     1      24.716  -0.256  54.200  1.00  0.00    -0.275 NA
HETATM    9  C9  UNL     1      23.747  -0.928  54.596  1.00  0.00     0.257 A 
HETATM   10  C10 UNL     1      22.328  -1.263  54.346  1.00  0.00     0.093 A 
HETATM   11  C11 UNL     1      21.655  -0.722  53.299  1.00  0.00     0.130 A 
HETATM   12  F1  UNL     1      22.930  -0.470  53.602  1.00  0.00    -0.366 F 
HETATM   13  C12 UNL     1      21.194   0.102  52.187  1.00  0.00     0.015 C 
HETATM   14  C13 UNL     1      21.585   1.191  51.603  1.00  0.00    -0.002 C 
HETATM   15  C14 UNL     1      22.769   2.007  51.984  1.00  0.00     0.195 C 
HETATM   16  O3  UNL     1      22.337   3.328  52.294  1.00  0.00    -0.385 OA
HETATM   17  C15 UNL     1      21.824   3.861  51.074  1.00  0.00     0.194 C 
HETATM   18  C16 UNL     1      22.975   3.989  50.090  1.00  0.00     0.193 C 
HETATM   19  O4  UNL     1      23.886   4.881  50.614  1.00  0.00    -0.386 OA
HETATM   20  C17 UNL     1      25.082   4.953  49.943  1.00  0.00     0.209 C 
ENDROOT
BRANCH   1  21
HETATM   21  O2  UNL     1      27.172   4.001  49.440  1.00  0.00    -0.372 OA
BRANCH  21  22
HETATM   22  C3  UNL     1      27.217   5.133  48.573  1.00  0.00     0.195 C 
BRANCH  22  23
HETATM   23  C2  UNL     1      28.590   5.702  48.513  1.00  0.00     0.193 C 
BRANCH  23  24
HETATM   24  O1  UNL     1      29.508   4.757  48.124  1.00  0.00    -0.394 OA
HETATM   25  C1  UNL     1      30.716   5.322  47.770  1.00  0.00     0.201 C 
ENDBRANCH  23  24
ENDBRANCH  22  23
ENDBRANCH  21  22
ENDBRANCH   1  21
TORSDOF 4
ENDMDL
MODEL 2
REMARK VINA RESULT:      -7.5      2.827      4.745
REMARK  4 active torsions:
REMARK  status: ('A' for Active; 'I' for Inactive)
REMARK    1  A    between atoms: O1_2  and  C2_3 
REMARK    2  A    between atoms: C2_3  and  C3_4 
REMARK    3  A    between atoms: C3_4  and  O2_5 
REMARK    4  A    between atoms: O2_5  and  C4_6 
ROOT
HETATM    1  C4  UNL     1      26.281   1.514  52.197  1.00  0.00     0.125 C 
HETATM    2  C5  UNL     1      25.624   0.546  52.811  1.00  0.00     0.078 C 
HETATM    3  C6  UNL     1      24.278   0.080  53.075  1.00  0.00     0.099 C 
HETATM    4  N1  UNL     1      22.964  -0.047  53.110  1.00  0.00    -0.258 NA
HETATM    5  C7  UNL     1      22.526  -1.186  53.877  1.00  0.00     0.228 C 
HETATM    6  N2  UNL     1      21.376  -1.004  54.462  1.00  0.00    -0.262 NA
HETATM    7  C8  UNL     1      20.683   0.271  54.286  1.00  0.00     0.295 C 
HETATM    8  N3  UNL     1      20.526   0.567  52.891  1.00  0.00    -0.275 NA
HETATM    9  C9  UNL     1      19.465   0.632  52.245  1.00  0.00     0.257 A 
HETATM   10  C10 UNL     1      18.877   0.881  50.911  1.00  0.00     0.093 A 
HETATM   11  C11 UNL     1      19.664   1.150  49.838  1.00  0.00     0.130 A 
HETATM   12  F1  UNL     1      20.108   0.922  51.076  1.00  0.00    -0.366 F 
HETATM   13  C12 UNL     1      20.750   1.523  48.938  1.00  0.00     0.015 C 
HETATM   14  C13 UNL     1      21.964   1.959  49.065  1.00  0.00    -0.002 C 
HETATM   15  C14 UNL     1      22.656   2.249  50.350  1.00  0.00     0.195 C 
HETATM   16  O3  UNL     1      23.062   3.614  50.356  1.00  0.00    -0.385 OA
HETATM   17  C15 UNL     1      24.028   3.733  49.312  1.00  0.00     0.194 C 
HETATM   18  C16 UNL     1      25.244   2.906  49.694  1.00  0.00     0.193 C 
HETATM   19  O4  UNL     1      25.774   3.437  50.850  1.00  0.00    -0.386 OA
HETATM   20  C17 UNL     1      26.757   2.680  51.440  1.00  0.00     0.209 C 
ENDROOT
BRANCH   1  21
HETATM   21  O2  UNL     1      27.362   0.798  52.712  1.00  0.00    -0.372 OA
BRANCH  21  22
HETATM   22  C3  UNL     1      28.279   1.527  53.527  1.00  0.00     0.195 C 
BRANCH  22  23
HETATM   23  C2  UNL     1      28.861   0.655  54.581  1.00  0.00     0.193 C 
BRANCH  23  24
HETATM   24  O1  UNL     1      28.688  -0.675  54.285  1.00  0.00    -0.394 OA
HETATM   25  C1  UNL     1      29.810  -1.228  53.705  1.00  0.00     0.201 C 
ENDBRANCH  23  24
ENDBRANCH  22  23
ENDBRANCH  21  22
ENDBRANCH   1  21
TORSDOF 4
ENDMDL
MODEL 3
REMARK VINA RESULT:      -7.2      3.760      5.696
REMARK  4 active torsions:
REMARK  status: ('A' for Active; 'I' for Inactive)
REMARK    1  A    between atoms: O1_2  and  C2_3 
REMARK    2  A    between atoms: C2_3  and  C3_4 
REMARK    3  A    between atoms: C3_4  and  O2_5 
REMARK    4  A    between atoms: O2_5  and  C4_6 
ROOT
HETATM    1  C4  UNL     1      25.659   1.039  53.821  1.00  0.00     0.125 C 
HETATM    2  C5  UNL     1      25.434   2.043  52.991  1.00  0.00     0.078 C 
HETATM    3  C6  UNL     1      24.532   2.461  51.937  1.00  0.00     0.099 C 
HETATM    4  N1  UNL     1      23.552   2.514  51.054  1.00  0.00    -0.258 NA
HETATM    5  C7  UNL     1      23.567   3.721  50.265  1.00  0.00     0.228 C 
HETATM    6  N2  UNL     1      23.107   3.554  49.057  1.00  0.00    -0.262 NA
HETATM    7  C8  UNL     1      22.644   2.229  48.649  1.00  0.00     0.295 C 
HETATM    8  N3  UNL     1      21.664   1.735  49.573  1.00  0.00    -0.275 NA
HETATM    9  C9  UNL     1      20.458   1.520  49.355  1.00  0.00     0.257 A 
HETATM   10  C10 UNL     1      19.187   1.057  49.952  1.00  0.00     0.093 A 
HETATM   11  C11 UNL     1      19.119   0.689  51.256  1.00  0.00     0.130 A 
HETATM   12  F1  UNL     1      20.223   1.110  50.635  1.00  0.00    -0.366 F 
HETATM   13  C12 UNL     1      19.402   0.260  52.622  1.00  0.00     0.015 C 
HETATM   14  C13 UNL     1      20.453  -0.083  53.297  1.00  0.00    -0.002 C 
HETATM   15  C14 UNL     1      21.842  -0.153  52.771  1.00  0.00     0.195 C 
HETATM   16  O3  UNL     1      22.334  -1.478  52.945  1.00  0.00    -0.385 OA
HETATM   17  C15 UNL     1      22.399  -1.682  54.355  1.00  0.00     0.194 C 
HETATM   18  C16 UNL     1      23.448  -0.741  54.924  1.00  0.00     0.193 C 
HETATM   19  O4  UNL     1      24.666  -1.076  54.372  1.00  0.00    -0.386 OA
HETATM   20  C17 UNL     1      25.683  -0.190  54.626  1.00  0.00     0.209 C 
ENDROOT
BRANCH   1  21
HETATM   21  O2  UNL     1      26.708   1.881  54.193  1.00  0.00    -0.372 OA
BRANCH  21  22
HETATM   22  C3  UNL     1      27.888   1.821  53.394  1.00  0.00     0.195 C 
BRANCH  22  23
HETATM   23  C2  UNL     1      29.082   1.531  54.231  1.00  0.00     0.193 C 
BRANCH  23  24
HETATM   24  O1  UNL     1      29.057   0.245  54.713  1.00  0.00    -0.394 OA
HETATM   25  C1  UNL     1      29.396  -0.679  53.746  1.00  0.00     0.201 C 
ENDBRANCH  23  24
ENDBRANCH  22  23
ENDBRANCH  21  22
ENDBRANCH   1  21
TORSDOF 4
ENDMDL
MODEL 4
REMARK VINA RESULT:      -7.0      2.337      4.172
REMARK  4 active torsions:
REMARK  status: ('A' for Active; 'I' for Inactive)
REMARK    1  A    between atoms: O1_2  and  C2_3 
REMARK    2  A    between atoms: C2_3  and  C3_4 
REMARK    3  A    between atoms: C3_4  and  O2_5 
REMARK    4  A    between atoms: O2_5  and  C4_6 
ROOT
HETATM    1  C4  UNL     1      25.124   3.895  50.731  1.00  0.00     0.125 C 
HETATM    2  C5  UNL     1      23.858   4.030  51.087  1.00  0.00     0.078 C 
HETATM    3  C6  UNL     1      22.755   3.283  51.654  1.00  0.00     0.099 C 
HETATM    4  N1  UNL     1      22.004   2.331  52.179  1.00  0.00    -0.258 NA
HETATM    5  C7  UNL     1      20.653   2.759  52.443  1.00  0.00     0.228 C 
HETATM    6  N2  UNL     1      19.777   1.801  52.328  1.00  0.00    -0.262 NA
HETATM    7  C8  UNL     1      20.232   0.460  51.964  1.00  0.00     0.295 C 
HETATM    8  N3  UNL     1      21.260   0.020  52.864  1.00  0.00    -0.275 NA
HETATM    9  C9  UNL     1      21.202  -0.917  53.680  1.00  0.00     0.257 A 
HETATM   10  C10 UNL     1      21.946  -1.661  54.719  1.00  0.00     0.093 A 
HETATM   11  C11 UNL     1      23.214  -1.313  55.057  1.00  0.00     0.130 A 
HETATM   12  F1  UNL     1      22.473  -0.703  54.128  1.00  0.00    -0.366 F 
HETATM   13  C12 UNL     1      24.569  -0.774  55.101  1.00  0.00     0.015 C 
HETATM   14  C13 UNL     1      25.325  -0.075  54.314  1.00  0.00    -0.002 C 
HETATM   15  C14 UNL     1      24.955   0.418  52.960  1.00  0.00     0.195 C 
HETATM   16  O3  UNL     1      25.886  -0.097  52.014  1.00  0.00    -0.385 OA
HETATM   17  C15 UNL     1      27.143   0.487  52.353  1.00  0.00     0.194 C 
HETATM   18  C16 UNL     1      27.050   1.985  52.117  1.00  0.00     0.193 C 
HETATM   19  O4  UNL     1      26.815   2.191  50.774  1.00  0.00    -0.386 OA
HETATM   20  C17 UNL     1      26.502   3.483  50.430  1.00  0.00     0.209 C 
ENDROOT
BRANCH   1  21
HETATM   21  O2  UNL     1      24.932   5.232  50.382  1.00  0.00    -0.372 OA
BRANCH  21  22
HETATM   22  C3  UNL     1      25.818   5.768  49.400  1.00  0.00     0.195 C 
BRANCH  22  23
HETATM   23  C2  UNL     1      26.173   7.177  49.717  1.00  0.00     0.193 C 
BRANCH  23  24
HETATM   24  O1  UNL     1      27.342   7.551  49.101  1.00  0.00    -0.394 OA
HETATM   25  C1  UNL     1      27.877   6.533  48.340  1.00  0.00     0.201 C 
ENDBRANCH  23  24
ENDBRANCH  22  23
ENDBRANCH  21  22
ENDBRANCH   1  21
TORSDOF 4
ENDMDL
MODEL 5
REMARK VINA RESULT:      -7.0      3.007      5.418
REMARK  4 active torsions:
REMARK  status: ('A' for Active; 'I' for Inactive)
REMARK    1  A    between atoms: O1_2  and  C2_3 
REMARK    2  A    between atoms: C2_3  and  C3_4 
REMARK    3  A    between atoms: C3_4  and  O2_5 
REMARK    4  A    between atoms: O2_5  and  C4_6 
ROOT
HETATM    1  C4  UNL     1      26.243   1.126  52.481  1.00  0.00     0.125 C 
HETATM    2  C5  UNL     1      25.238   0.338  52.821  1.00  0.00     0.078 C 
HETATM    3  C6  UNL     1      23.797   0.232  52.718  1.00  0.00     0.099 C 
HETATM    4  N1  UNL     1      22.526   0.453  52.437  1.00  0.00    -0.258 NA
HETATM    5  C7  UNL     1      21.647  -0.565  52.958  1.00  0.00     0.228 C 
HETATM    6  N2  UNL     1      20.468  -0.113  53.280  1.00  0.00    -0.262 NA
HETATM    7  C8  UNL     1      20.173   1.306  53.087  1.00  0.00     0.295 C 
HETATM    8  N3  UNL     1      20.446   1.694  51.733  1.00  0.00    -0.275 NA
HETATM    9  C9  UNL     1      19.628   2.064  50.872  1.00  0.00     0.257 A 
HETATM   10  C10 UNL     1      19.469   2.517  49.473  1.00  0.00     0.093 A 
HETATM   11  C11 UNL     1      20.539   2.618  48.644  1.00  0.00     0.130 A 
HETATM   12  F1  UNL     1      20.592   2.226  49.920  1.00  0.00    -0.366 F 
HETATM   13  C12 UNL     1      21.873   2.732  48.062  1.00  0.00     0.015 C 
HETATM   14  C13 UNL     1      23.085   2.828  48.510  1.00  0.00    -0.002 C 
HETATM   15  C14 UNL     1      23.484   2.868  49.942  1.00  0.00     0.195 C 
HETATM   16  O3  UNL     1      24.196   4.077  50.186  1.00  0.00    -0.385 OA
HETATM   17  C15 UNL     1      25.390   3.985  49.411  1.00  0.00     0.194 C 
HETATM   18  C16 UNL     1      26.234   2.851  49.970  1.00  0.00     0.193 C 
HETATM   19  O4  UNL     1      26.572   3.172  51.267  1.00  0.00    -0.386 OA
HETATM   20  C17 UNL     1      27.162   2.159  51.982  1.00  0.00     0.209 C 
ENDROOT
BRANCH   1  21
HETATM   21  O2  UNL     1      26.954   0.130  53.150  1.00  0.00    -0.372 OA
BRANCH  21  22
HETATM   22  C3  UNL     1      27.146   0.316  54.551  1.00  0.00     0.195 C 
BRANCH  22  23
HETATM   23  C2  UNL     1      28.587   0.224  54.906  1.00  0.00     0.193 C 
BRANCH  23  24
HETATM   24  O1  UNL     1      29.373   0.095  53.787  1.00  0.00    -0.394 OA
HETATM   25  C1  UNL     1      30.024  -1.120  53.746  1.00  0.00     0.201 C 
ENDBRANCH  23  24
ENDBRANCH  22  23
ENDBRANCH  21  22
ENDBRANCH   1  21
TORSDOF 4
ENDMDL
MODEL 6
REMARK VINA RESULT:      -6.9      3.794      6.154
REMARK  4 active torsions:
REMARK  status: ('A' for Active; 'I' for Inactive)
REMARK    1  A    between atoms: O1_2  and  C2_3 
REMARK    2  A    between atoms: C2_3  and  C3_4 
REMARK    3  A    between atoms: C3_4  and  O2_5 
REMARK    4  A    between atoms: O2_5  and  C4_6 
ROOT
HETATM    1  C4  UNL     1      24.982   0.992  53.289  1.00  0.00     0.125 C 
HETATM    2  C5  UNL     1      25.264   2.171  52.761  1.00  0.00     0.078 C 
HETATM    3  C6  UNL     1      24.735   3.155  51.840  1.00  0.00     0.099 C 
HETATM    4  N1  UNL     1      23.975   3.807  50.980  1.00  0.00    -0.258 NA
HETATM    5  C7  UNL     1      24.549   5.059  50.554  1.00  0.00     0.228 C 
HETATM    6  N2  UNL     1      24.225   5.387  49.335  1.00  0.00    -0.262 NA
HETATM    7  C8  UNL     1      23.355   4.498  48.566  1.00  0.00     0.295 C 
HETATM    8  N3  UNL     1      22.147   4.230  49.292  1.00  0.00    -0.275 NA
HETATM    9  C9  UNL     1      20.990   4.573  48.991  1.00  0.00     0.257 A 
HETATM   10  C10 UNL     1      19.571   4.526  49.404  1.00  0.00     0.093 A 
HETATM   11  C11 UNL     1      19.196   3.912  50.555  1.00  0.00     0.130 A 
HETATM   12  F1  UNL     1      20.450   3.994  50.103  1.00  0.00    -0.366 F 
HETATM   13  C12 UNL     1      19.112   3.089  51.757  1.00  0.00     0.015 C 
HETATM   14  C13 UNL     1      19.856   2.203  52.340  1.00  0.00    -0.002 C 
HETATM   15  C14 UNL     1      21.174   1.715  51.852  1.00  0.00     0.195 C 
HETATM   16  O3  UNL     1      21.102   0.305  51.667  1.00  0.00    -0.385 OA
HETATM   17  C15 UNL     1      20.897  -0.244  52.968  1.00  0.00     0.194 C 
HETATM   18  C16 UNL     1      22.137   0.032  53.802  1.00  0.00     0.193 C 
HETATM   19  O4  UNL     1      23.200  -0.616  53.211  1.00  0.00    -0.386 OA
HETATM   20  C17 UNL     1      24.434  -0.300  53.726  1.00  0.00     0.209 C 
ENDROOT
BRANCH   1  21
HETATM   21  O2  UNL     1      26.211   1.228  53.906  1.00  0.00    -0.372 OA
BRANCH  21  22
HETATM   22  C3  UNL     1      26.681   0.218  54.798  1.00  0.00     0.195 C 
BRANCH  22  23
HETATM   23  C2  UNL     1      28.167   0.190  54.833  1.00  0.00     0.193 C 
BRANCH  23  24
HETATM   24  O1  UNL     1      28.661  -0.957  54.259  1.00  0.00    -0.394 OA
HETATM   25  C1  UNL     1      29.834  -0.730  53.571  1.00  0.00     0.201 C 
ENDBRANCH  23  24
ENDBRANCH  22  23
ENDBRANCH  21  22
ENDBRANCH   1  21
TORSDOF 4
ENDMDL
MODEL 7
REMARK VINA RESULT:      -6.8      2.403      3.382
REMARK  4 active torsions:
REMARK  status: ('A' for Active; 'I' for Inactive)
REMARK    1  A    between atoms: O1_2  and  C2_3 
REMARK    2  A    between atoms: C2_3  and  C3_4 
REMARK    3  A    between atoms: C3_4  and  O2_5 
REMARK    4  A    between atoms: O2_5  and  C4_6 
ROOT
HETATM    1  C4  UNL     1      23.578   3.912  51.334  1.00  0.00     0.125 C 
HETATM    2  C5  UNL     1      23.948   2.714  51.753  1.00  0.00     0.078 C 
HETATM    3  C6  UNL     1      23.411   1.503  52.338  1.00  0.00     0.099 C 
HETATM    4  N1  UNL     1      22.603   0.589  52.844  1.00  0.00    -0.258 NA
HETATM    5  C7  UNL     1      23.289  -0.615  53.241  1.00  0.00     0.228 C 
HETATM    6  N2  UNL     1      22.735  -1.214  54.257  1.00  0.00    -0.262 NA
HETATM    7  C8  UNL     1      21.534  -0.634  54.856  1.00  0.00     0.295 C 
HETATM    8  N3  UNL     1      20.527  -0.427  53.855  1.00  0.00    -0.275 NA
HETATM    9  C9  UNL     1      19.426  -0.999  53.759  1.00  0.00     0.257 A 
HETATM   10  C10 UNL     1      18.183  -1.099  52.964  1.00  0.00     0.093 A 
HETATM   11  C11 UNL     1      18.002  -0.346  51.850  1.00  0.00     0.130 A 
HETATM   12  F1  UNL     1      19.086  -0.313  52.629  1.00  0.00    -0.366 F 
HETATM   13  C12 UNL     1      18.066   0.665  50.799  1.00  0.00     0.015 C 
HETATM   14  C13 UNL     1      18.739   1.751  50.584  1.00  0.00    -0.002 C 
HETATM   15  C14 UNL     1      19.757   2.340  51.495  1.00  0.00     0.195 C 
HETATM   16  O3  UNL     1      19.354   3.661  51.843  1.00  0.00    -0.385 OA
HETATM   17  C15 UNL     1      19.386   4.406  50.626  1.00  0.00     0.194 C 
HETATM   18  C16 UNL     1      20.828   4.491  50.157  1.00  0.00     0.193 C 
HETATM   19  O4  UNL     1      21.547   5.175  51.114  1.00  0.00    -0.386 OA
HETATM   20  C17 UNL     1      22.910   5.160  50.939  1.00  0.00     0.209 C 
ENDROOT
BRANCH   1  21
HETATM   21  O2  UNL     1      24.946   3.993  51.072  1.00  0.00    -0.372 OA
BRANCH  21  22
HETATM   22  C3  UNL     1      25.321   4.291  49.728  1.00  0.00     0.195 C 
BRANCH  22  23
HETATM   23  C2  UNL     1      26.739   3.920  49.478  1.00  0.00     0.193 C 
BRANCH  23  24
HETATM   24  O1  UNL     1      27.339   4.791  48.602  1.00  0.00    -0.394 OA
HETATM   25  C1  UNL     1      26.813   6.063  48.692  1.00  0.00     0.201 C 
ENDBRANCH  23  24
ENDBRANCH  22  23
ENDBRANCH  21  22
ENDBRANCH   1  21
TORSDOF 4
ENDMDL
MODEL 8
REMARK VINA RESULT:      -6.6      1.982      2.242
REMARK  4 active torsions:
REMARK  status: ('A' for Active; 'I' for Inactive)
REMARK    1  A    between atoms: O1_2  and  C2_3 
REMARK    2  A    between atoms: C2_3  and  C3_4 
REMARK    3  A    between atoms: C3_4  and  O2_5 
REMARK    4  A    between atoms: O2_5  and  C4_6 
ROOT
HETATM    1  C4  UNL     1      24.387   5.363  49.904  1.00  0.00     0.125 C 
HETATM    2  C5  UNL     1      25.337   4.455  50.049  1.00  0.00     0.078 C 
HETATM    3  C6  UNL     1      25.636   3.233  50.767  1.00  0.00     0.099 C 
HETATM    4  N1  UNL     1      25.566   2.176  51.555  1.00  0.00    -0.258 NA
HETATM    5  C7  UNL     1      26.763   1.373  51.531  1.00  0.00     0.228 C 
HETATM    6  N2  UNL     1      27.006   0.774  52.662  1.00  0.00    -0.262 NA
HETATM    7  C8  UNL     1      26.084   0.965  53.781  1.00  0.00     0.295 C 
HETATM    8  N3  UNL     1      24.743   0.645  53.384  1.00  0.00    -0.275 NA
HETATM    9  C9  UNL     1      24.035  -0.292  53.794  1.00  0.00     0.257 A 
HETATM   10  C10 UNL     1      22.715  -0.949  53.677  1.00  0.00     0.093 A 
HETATM   11  C11 UNL     1      21.777  -0.486  52.813  1.00  0.00     0.130 A 
HETATM   12  F1  UNL     1      22.987   0.049  52.988  1.00  0.00    -0.366 F 
HETATM   13  C12 UNL     1      20.965   0.312  51.899  1.00  0.00     0.015 C 
HETATM   14  C13 UNL     1      20.990   1.523  51.438  1.00  0.00    -0.002 C 
HETATM   15  C14 UNL     1      21.991   2.567  51.784  1.00  0.00     0.195 C 
HETATM   16  O3  UNL     1      21.313   3.690  52.335  1.00  0.00    -0.385 OA
HETATM   17  C15 UNL     1      20.503   4.207  51.280  1.00  0.00     0.194 C 
HETATM   18  C16 UNL     1      21.420   4.733  50.190  1.00  0.00     0.193 C 
HETATM   19  O4  UNL     1      22.165   5.764  50.722  1.00  0.00    -0.386 OA
HETATM   20  C17 UNL     1      23.189   6.214  49.924  1.00  0.00     0.209 C 
ENDROOT
BRANCH   1  21
HETATM   21  O2  UNL     1      25.339   5.890  49.031  1.00  0.00    -0.372 OA
BRANCH  21  22
HETATM   22  C3  UNL     1      25.065   7.184  48.495  1.00  0.00     0.195 C 
BRANCH  22  23
HETATM   23  C2  UNL     1      26.306   8.000  48.418  1.00  0.00     0.193 C 
BRANCH  23  24
HETATM   24  O1  UNL     1      27.029   7.926  49.584  1.00  0.00    -0.394 OA
HETATM   25  C1  UNL     1      27.192   9.162  50.174  1.00  0.00     0.201 C 
ENDBRANCH  23  24
ENDBRANCH  22  23
ENDBRANCH  21  22
ENDBRANCH   1  21
TORSDOF 4
ENDMDL
MODEL 9
REMARK VINA RESULT:      -6.5      3.189      4.402
REMARK  4 active torsions:
REMARK  status: ('A' for Active; 'I' for Inactive)
REMARK    1  A    between atoms: O1_2  and  C2_3 
REMARK    2  A    between atoms: C2_3  and  C3_4 
REMARK    3  A    between atoms: C3_4  and  O2_5 
REMARK    4  A    between atoms: O2_5  and  C4_6 
ROOT
HETATM    1  C4  UNL     1      24.666   2.793  51.902  1.00  0.00     0.125 C 
HETATM    2  C5  UNL     1      24.546   1.544  52.317  1.00  0.00     0.078 C 
HETATM    3  C6  UNL     1      23.544   0.553  52.652  1.00  0.00     0.099 C 
HETATM    4  N1  UNL     1      22.402  -0.075  52.862  1.00  0.00    -0.258 NA
HETATM    5  C7  UNL     1      22.577  -1.424  53.337  1.00  0.00     0.228 C 
HETATM    6  N2  UNL     1      21.621  -1.822  54.128  1.00  0.00    -0.262 NA
HETATM    7  C8  UNL     1      20.523  -0.906  54.432  1.00  0.00     0.295 C 
HETATM    8  N3  UNL     1      19.928  -0.418  53.220  1.00  0.00    -0.275 NA
HETATM    9  C9  UNL     1      18.779  -0.638  52.799  1.00  0.00     0.257 A 
HETATM   10  C10 UNL     1      17.824  -0.371  51.702  1.00  0.00     0.093 A 
HETATM   11  C11 UNL     1      18.176   0.392  50.636  1.00  0.00     0.130 A 
HETATM   12  F1  UNL     1      18.970   0.107  51.672  1.00  0.00    -0.366 F 
HETATM   13  C12 UNL     1      18.812   1.328  49.714  1.00  0.00     0.015 C 
HETATM   14  C13 UNL     1      19.801   2.163  49.762  1.00  0.00    -0.002 C 
HETATM   15  C14 UNL     1      20.660   2.431  50.946  1.00  0.00     0.195 C 
HETATM   16  O3  UNL     1      20.577   3.815  51.271  1.00  0.00    -0.385 OA
HETATM   17  C15 UNL     1      21.150   4.505  50.161  1.00  0.00     0.194 C 
HETATM   18  C16 UNL     1      22.626   4.153  50.093  1.00  0.00     0.193 C 
HETATM   19  O4  UNL     1      23.225   4.601  51.251  1.00  0.00    -0.386 OA
HETATM   20  C17 UNL     1      24.519   4.180  51.437  1.00  0.00     0.209 C 
ENDROOT
BRANCH   1  21
HETATM   21  O2  UNL     1      26.016   2.462  52.013  1.00  0.00    -0.372 OA
BRANCH  21  22
HETATM   22  C3  UNL     1      26.483   2.120  53.317  1.00  0.00     0.195 C 
BRANCH  22  23
HETATM   23  C2  UNL     1      27.965   2.216  53.393  1.00  0.00     0.193 C 
BRANCH  23  24
HETATM   24  O1  UNL     1      28.437   1.759  54.600  1.00  0.00    -0.394 OA
HETATM   25  C1  UNL     1      28.925   0.472  54.513  1.00  0.00     0.201 C 
ENDBRANCH  23  24
ENDBRANCH  22  23
ENDBRANCH  21  22
ENDBRANCH   1  21
TORSDOF 4
ENDMDL
