MODEL 1
REMARK VINA RESULT:      -7.9      0.000      0.000
REMARK  7 active torsions:
REMARK  status: ('A' for Active; 'I' for Inactive)
REMARK    1  A    between atoms: C6_6  and  N1_7 
REMARK    2  A    between atoms: N1_7  and  C7_8 
REMARK    3  A    between atoms: N4_12  and  C9_13 
REMARK    4  A    between atoms: C10_14  and  C11_15 
REMARK    5  A    between atoms: C12_16  and  C13_17 
REMARK    6  A    between atoms: C13_17  and  O1_18 
REMARK    7  A    between atoms: O1_18  and  C14_19 
ROOT
HETATM    1  C7  UNL     1      22.366   3.107  49.867  1.00  0.00     0.125 A 
HETATM    2  N2  UNL     1      22.173   2.332  48.828  1.00  0.00    -0.225 NA
HETATM    3  C8  UNL     1      21.468   1.121  49.005  1.00  0.00     0.257 A 
HETATM    4  N3  UNL     1      21.002   0.730  50.132  1.00  0.00    -0.166 NA
HETATM    5  N4  UNL     1      21.210   1.557  51.237  1.00  0.00    -0.272 N 
HETATM    6  C18 UNL     1      21.896   2.830  51.249  1.00  0.00     0.229 A 
ENDROOT
BRANCH   5   7
HETATM    7  C9  UNL     1      20.705   1.124  52.492  1.00  0.00     0.121 C 
HETATM    8  C10 UNL     1      21.204   0.510  53.527  1.00  0.00     0.083 C 
BRANCH   8   9
HETATM    9  C11 UNL     1      22.585   0.124  53.524  1.00  0.00    -0.075 C 
HETATM   10  C12 UNL     1      23.745  -0.190  53.513  1.00  0.00    -0.076 C 
BRANCH  10  11
HETATM   11  C13 UNL     1      25.157  -0.586  53.515  1.00  0.00     0.265 C 
BRANCH  11  12
HETATM   12  O1  UNL     1      25.947   0.456  53.938  1.00  0.00    -0.349 OA
BRANCH  12  13
HETATM   13  C14 UNL     1      27.010   0.688  53.059  1.00  0.00     0.264 C 
HETATM   14  C15 UNL     1      27.405   2.142  52.993  1.00  0.00     0.091 C 
HETATM   15  C16 UNL     1      28.773   2.262  53.644  1.00  0.00     0.277 C 
HETATM   16  N5  UNL     1      28.708   1.441  54.851  1.00  0.00     0.106 N 
HETATM   17  C17 UNL     1      28.788   0.072  54.402  1.00  0.00     0.440 C 
HETATM   18  H18 UNL     1      27.838   1.663  55.364  1.00  0.00     0.318 HD
HETATM   19  O2  UNL     1      28.069  -0.175  53.260  1.00  0.00    -0.332 OA
ENDBRANCH  12  13
ENDBRANCH  11  12
ENDBRANCH  10  11
ENDBRANCH   8   9
ENDBRANCH   5   7
BRANCH   1  20
HETATM   20  N1  UNL     1      23.079   4.297  49.601  1.00  0.00    -0.343 N 
HETATM   21  H7  UNL     1      22.540   5.208  49.543  1.00  0.00     0.167 HD
BRANCH  20  22
HETATM   22  C6  UNL     1      24.471   4.369  49.409  1.00  0.00     0.033 A 
HETATM   23  C5  UNL     1      25.384   3.379  49.677  1.00  0.00     0.029 A 
HETATM   24  C4  UNL     1      26.740   3.473  49.478  1.00  0.00     0.003 A 
HETATM   25  C3  UNL     1      27.264   4.632  48.973  1.00  0.00     0.007 A 
HETATM   26  C2  UNL     1      26.419   5.666  48.682  1.00  0.00    -0.060 A 
HETATM   27  C1  UNL     1      26.941   6.941  48.134  1.00  0.00     0.048 C 
HETATM   28  C19 UNL     1      25.067   5.521  48.899  1.00  0.00     0.036 A 
ENDBRANCH  20  22
ENDBRANCH   1  20
TORSDOF 7
ENDMDL
MODEL 2
REMARK VINA RESULT:      -7.8      1.856      5.934
REMARK  7 active torsions:
REMARK  status: ('A' for Active; 'I' for Inactive)
REMARK    1  A    between atoms: C6_6  and  N1_7 
REMARK    2  A    between atoms: N1_7  and  C7_8 
REMARK    3  A    between atoms: N4_12  and  C9_13 
REMARK    4  A    between atoms: C10_14  and  C11_15 
REMARK    5  A    between atoms: C12_16  and  C13_17 
REMARK    6  A    between atoms: C13_17  and  O1_18 
REMARK    7  A    between atoms: O1_18  and  C14_19 
ROOT
HETATM    1  C7  UNL     1      21.823   2.842  51.455  1.00  0.00     0.125 A 
HETATM    2  N2  UNL     1      21.786   3.871  52.267  1.00  0.00    -0.225 NA
HETATM    3  C8  UNL     1      22.813   4.837  52.188  1.00  0.00     0.257 A 
HETATM    4  N3  UNL     1      23.789   4.768  51.363  1.00  0.00    -0.166 NA
HETATM    5  N4  UNL     1      23.827   3.672  50.499  1.00  0.00    -0.272 N 
HETATM    6  C18 UNL     1      22.867   2.593  50.427  1.00  0.00     0.229 A 
ENDROOT
BRANCH   5   7
HETATM    7  C9  UNL     1      24.914   3.583  49.589  1.00  0.00     0.121 C 
HETATM    8  C10 UNL     1      26.165   3.230  49.675  1.00  0.00     0.083 C 
BRANCH   8   9
HETATM    9  C11 UNL     1      26.697   2.808  50.937  1.00  0.00    -0.075 C 
HETATM   10  C12 UNL     1      27.133   2.457  52.001  1.00  0.00    -0.076 C 
BRANCH  10  11
HETATM   11  C13 UNL     1      27.679   2.021  53.290  1.00  0.00     0.265 C 
BRANCH  11  12
HETATM   12  O1  UNL     1      28.324   0.815  53.155  1.00  0.00    -0.349 OA
BRANCH  12  13
HETATM   13  C14 UNL     1      27.900  -0.107  54.116  1.00  0.00     0.264 C 
HETATM   14  C15 UNL     1      26.622   0.311  54.801  1.00  0.00     0.091 C 
HETATM   15  C16 UNL     1      25.536  -0.650  54.344  1.00  0.00     0.277 C 
HETATM   16  N5  UNL     1      25.731  -0.809  52.905  1.00  0.00     0.106 N 
HETATM   17  C17 UNL     1      26.879  -1.671  52.754  1.00  0.00     0.440 C 
HETATM   18  H18 UNL     1      25.849   0.124  52.475  1.00  0.00     0.318 HD
HETATM   19  O2  UNL     1      27.887  -1.405  53.645  1.00  0.00    -0.332 OA
ENDBRANCH  12  13
ENDBRANCH  11  12
ENDBRANCH  10  11
ENDBRANCH   8   9
ENDBRANCH   5   7
BRANCH   1  20
HETATM   20  N1  UNL     1      20.759   1.926  51.601  1.00  0.00    -0.343 N 
HETATM   21  H7  UNL     1      19.885   2.067  51.018  1.00  0.00     0.167 HD
BRANCH  20  22
HETATM   22  C6  UNL     1      20.770   0.820  52.470  1.00  0.00     0.033 A 
HETATM   23  C5  UNL     1      21.832   0.385  53.223  1.00  0.00     0.029 A 
HETATM   24  C4  UNL     1      21.817  -0.698  54.068  1.00  0.00     0.003 A 
HETATM   25  C3  UNL     1      20.668  -1.430  54.198  1.00  0.00     0.007 A 
HETATM   26  C2  UNL     1      19.566  -1.060  53.480  1.00  0.00    -0.060 A 
HETATM   27  C1  UNL     1      18.299  -1.823  53.588  1.00  0.00     0.048 C 
HETATM   28  C19 UNL     1      19.633   0.034  52.647  1.00  0.00     0.036 A 
ENDBRANCH  20  22
ENDBRANCH   1  20
TORSDOF 7
ENDMDL
MODEL 3
REMARK VINA RESULT:      -7.8      1.444      2.255
REMARK  7 active torsions:
REMARK  status: ('A' for Active; 'I' for Inactive)
REMARK    1  A    between atoms: C6_6  and  N1_7 
REMARK    2  A    between atoms: N1_7  and  C7_8 
REMARK    3  A    between atoms: N4_12  and  C9_13 
REMARK    4  A    between atoms: C10_14  and  C11_15 
REMARK    5  A    between atoms: C12_16  and  C13_17 
REMARK    6  A    between atoms: C13_17  and  O1_18 
REMARK    7  A    between atoms: O1_18  and  C14_19 
ROOT
HETATM    1  C7  UNL     1      24.562   3.330  50.510  1.00  0.00     0.125 A 
HETATM    2  N2  UNL     1      24.479   4.385  51.284  1.00  0.00    -0.225 NA
HETATM    3  C8  UNL     1      23.508   4.399  52.309  1.00  0.00     0.257 A 
HETATM    4  N3  UNL     1      22.695   3.435  52.531  1.00  0.00    -0.166 NA
HETATM    5  N4  UNL     1      22.786   2.313  51.705  1.00  0.00    -0.272 N 
HETATM    6  C18 UNL     1      23.715   2.114  50.615  1.00  0.00     0.229 A 
ENDROOT
BRANCH   5   7
HETATM    7  C9  UNL     1      21.880   1.245  51.937  1.00  0.00     0.121 C 
HETATM    8  C10 UNL     1      21.913   0.137  52.622  1.00  0.00     0.083 C 
BRANCH   8   9
HETATM    9  C11 UNL     1      23.093  -0.203  53.363  1.00  0.00    -0.075 C 
HETATM   10  C12 UNL     1      24.087  -0.476  53.980  1.00  0.00    -0.076 C 
BRANCH  10  11
HETATM   11  C13 UNL     1      25.291  -0.825  54.741  1.00  0.00     0.265 C 
BRANCH  11  12
HETATM   12  O1  UNL     1      26.118   0.267  54.857  1.00  0.00    -0.349 OA
BRANCH  12  13
HETATM   13  C14 UNL     1      26.788   0.535  53.660  1.00  0.00     0.264 C 
HETATM   14  C15 UNL     1      26.968   2.012  53.411  1.00  0.00     0.091 C 
HETATM   15  C16 UNL     1      28.452   2.311  53.549  1.00  0.00     0.277 C 
HETATM   16  N5  UNL     1      28.892   1.577  54.733  1.00  0.00     0.106 N 
HETATM   17  C17 UNL     1      28.973   0.192  54.333  1.00  0.00     0.440 C 
HETATM   18  H18 UNL     1      28.226   1.750  55.506  1.00  0.00     0.318 HD
HETATM   19  O2  UNL     1      27.946  -0.205  53.516  1.00  0.00    -0.332 OA
ENDBRANCH  12  13
ENDBRANCH  11  12
ENDBRANCH  10  11
ENDBRANCH   8   9
ENDBRANCH   5   7
BRANCH   1  20
HETATM   20  N1  UNL     1      25.559   3.398  49.511  1.00  0.00    -0.343 N 
HETATM   21  H7  UNL     1      25.901   2.496  49.074  1.00  0.00     0.167 HD
BRANCH  20  22
HETATM   22  C6  UNL     1      26.139   4.591  49.042  1.00  0.00     0.033 A 
HETATM   23  C5  UNL     1      25.483   5.765  48.766  1.00  0.00     0.029 A 
HETATM   24  C4  UNL     1      26.073   6.918  48.310  1.00  0.00     0.003 A 
HETATM   25  C3  UNL     1      27.425   6.941  48.100  1.00  0.00     0.007 A 
HETATM   26  C2  UNL     1      28.150   5.810  48.352  1.00  0.00    -0.060 A 
HETATM   27  C1  UNL     1      29.618   5.787  48.139  1.00  0.00     0.048 C 
HETATM   28  C19 UNL     1      27.510   4.679  48.808  1.00  0.00     0.036 A 
ENDBRANCH  20  22
ENDBRANCH   1  20
TORSDOF 7
ENDMDL
MODEL 4
REMARK VINA RESULT:      -7.8      1.545      5.337
REMARK  7 active torsions:
REMARK  status: ('A' for Active; 'I' for Inactive)
REMARK    1  A    between atoms: C6_6  and  N1_7 
REMARK    2  A    between atoms: N1_7  and  C7_8 
REMARK    3  A    between atoms: N4_12  and  C9_13 
REMARK    4  A    between atoms: C10_14  and  C11_15 
REMARK    5  A    between atoms: C12_16  and  C13_17 
REMARK    6  A    between atoms: C13_17  and  O1_18 
REMARK    7  A    between atoms: O1_18  and  C14_19 
ROOT
HETATM    1  C7  UNL     1      22.011   3.222  50.854  1.00  0.00     0.125 A 
HETATM    2  N2  UNL     1      21.599   4.272  51.523  1.00  0.00    -0.225 NA
HETATM    3  C8  UNL     1      22.430   5.412  51.579  1.00  0.00     0.257 A 
HETATM    4  N3  UNL     1      23.575   5.483  51.010  1.00  0.00    -0.166 NA
HETATM    5  N4  UNL     1      24.012   4.364  50.298  1.00  0.00    -0.272 N 
HETATM    6  C18 UNL     1      23.301   3.118  50.124  1.00  0.00     0.229 A 
ENDROOT
BRANCH   5   7
HETATM    7  C9  UNL     1      25.286   4.433  49.674  1.00  0.00     0.121 C 
HETATM    8  C10 UNL     1      26.387   3.740  49.742  1.00  0.00     0.083 C 
BRANCH   8   9
HETATM    9  C11 UNL     1      26.460   2.610  50.622  1.00  0.00    -0.075 C 
HETATM   10  C12 UNL     1      26.515   1.656  51.351  1.00  0.00    -0.076 C 
BRANCH  10  11
HETATM   11  C13 UNL     1      26.594   0.501  52.251  1.00  0.00     0.265 C 
BRANCH  11  12
HETATM   12  O1  UNL     1      26.787   0.915  53.547  1.00  0.00    -0.349 OA
BRANCH  12  13
HETATM   13  C14 UNL     1      27.620   0.039  54.249  1.00  0.00     0.264 C 
HETATM   14  C15 UNL     1      28.424  -0.856  53.340  1.00  0.00     0.091 C 
HETATM   15  C16 UNL     1      29.876  -0.421  53.454  1.00  0.00     0.277 C 
HETATM   16  N5  UNL     1      29.852   1.040  53.425  1.00  0.00     0.106 N 
HETATM   17  C17 UNL     1      29.385   1.454  54.727  1.00  0.00     0.440 C 
HETATM   18  H18 UNL     1      29.248   1.353  52.646  1.00  0.00     0.318 HD
HETATM   19  O2  UNL     1      28.369   0.675  55.220  1.00  0.00    -0.332 OA
ENDBRANCH  12  13
ENDBRANCH  11  12
ENDBRANCH  10  11
ENDBRANCH   8   9
ENDBRANCH   5   7
BRANCH   1  20
HETATM   20  N1  UNL     1      21.119   2.128  50.850  1.00  0.00    -0.343 N 
HETATM   21  H7  UNL     1      20.448   2.024  50.036  1.00  0.00     0.167 HD
BRANCH  20  22
HETATM   22  C6  UNL     1      21.053   1.146  51.855  1.00  0.00     0.033 A 
HETATM   23  C5  UNL     1      19.917   0.535  52.326  1.00  0.00     0.029 A 
HETATM   24  C4  UNL     1      19.879  -0.424  53.309  1.00  0.00     0.003 A 
HETATM   25  C3  UNL     1      21.048  -0.831  53.893  1.00  0.00     0.007 A 
HETATM   26  C2  UNL     1      22.222  -0.267  53.479  1.00  0.00    -0.060 A 
HETATM   27  C1  UNL     1      23.514  -0.676  54.084  1.00  0.00     0.048 C 
HETATM   28  C19 UNL     1      22.207   0.690  52.490  1.00  0.00     0.036 A 
ENDBRANCH  20  22
ENDBRANCH   1  20
TORSDOF 7
ENDMDL
MODEL 5
REMARK VINA RESULT:      -7.7      1.415      2.063
REMARK  7 active torsions:
REMARK  status: ('A' for Active; 'I' for Inactive)
REMARK    1  A    between atoms: C6_6  and  N1_7 
REMARK    2  A    between atoms: N1_7  and  C7_8 
REMARK    3  A    between atoms: N4_12  and  C9_13 
REMARK    4  A    between atoms: C10_14  and  C11_15 
REMARK    5  A    between atoms: C12_16  and  C13_17 
REMARK    6  A    between atoms: C13_17  and  O1_18 
REMARK    7  A    between atoms: O1_18  and  C14_19 
ROOT
HETATM    1  C7  UNL     1      22.382   4.445  50.181  1.00  0.00     0.125 A 
HETATM    2  N2  UNL     1      22.401   5.054  51.342  1.00  0.00    -0.225 NA
HETATM    3  C8  UNL     1      21.579   4.563  52.380  1.00  0.00     0.257 A 
HETATM    4  N3  UNL     1      20.808   3.548  52.255  1.00  0.00    -0.166 NA
HETATM    5  N4  UNL     1      20.790   2.901  51.018  1.00  0.00    -0.272 N 
HETATM    6  C18 UNL     1      21.562   3.251  49.847  1.00  0.00     0.229 A 
ENDROOT
BRANCH   5   7
HETATM    7  C9  UNL     1      19.929   1.782  50.869  1.00  0.00     0.121 C 
HETATM    8  C10 UNL     1      19.961   0.535  51.242  1.00  0.00     0.083 C 
BRANCH   8   9
HETATM    9  C11 UNL     1      21.082   0.048  51.991  1.00  0.00    -0.075 C 
HETATM   10  C12 UNL     1      22.026  -0.368  52.609  1.00  0.00    -0.076 C 
BRANCH  10  11
HETATM   11  C13 UNL     1      23.174  -0.862  53.375  1.00  0.00     0.265 C 
BRANCH  11  12
HETATM   12  O1  UNL     1      24.128   0.120  53.496  1.00  0.00    -0.349 OA
BRANCH  12  13
HETATM   13  C14 UNL     1      25.394  -0.343  53.124  1.00  0.00     0.264 C 
HETATM   14  C15 UNL     1      26.118   0.612  52.207  1.00  0.00     0.091 C 
HETATM   15  C16 UNL     1      27.280   1.193  52.996  1.00  0.00     0.277 C 
HETATM   16  N5  UNL     1      26.741   1.508  54.316  1.00  0.00     0.106 N 
HETATM   17  C17 UNL     1      26.609   0.244  55.001  1.00  0.00     0.440 C 
HETATM   18  H18 UNL     1      25.849   2.018  54.204  1.00  0.00     0.318 HD
HETATM   19  O2  UNL     1      26.147  -0.769  54.201  1.00  0.00    -0.332 OA
ENDBRANCH  12  13
ENDBRANCH  11  12
ENDBRANCH  10  11
ENDBRANCH   8   9
ENDBRANCH   5   7
BRANCH   1  20
HETATM   20  N1  UNL     1      23.233   5.001  49.201  1.00  0.00    -0.343 N 
HETATM   21  H7  UNL     1      22.807   5.613  48.448  1.00  0.00     0.167 HD
BRANCH  20  22
HETATM   22  C6  UNL     1      24.625   4.806  49.147  1.00  0.00     0.033 A 
HETATM   23  C5  UNL     1      25.304   3.667  49.504  1.00  0.00     0.029 A 
HETATM   24  C4  UNL     1      26.666   3.501  49.441  1.00  0.00     0.003 A 
HETATM   25  C3  UNL     1      27.447   4.531  48.991  1.00  0.00     0.007 A 
HETATM   26  C2  UNL     1      26.845   5.700  48.618  1.00  0.00    -0.060 A 
HETATM   27  C1  UNL     1      27.650   6.844  48.125  1.00  0.00     0.048 C 
HETATM   28  C19 UNL     1      25.475   5.816  48.700  1.00  0.00     0.036 A 
ENDBRANCH  20  22
ENDBRANCH   1  20
TORSDOF 7
ENDMDL
MODEL 6
REMARK VINA RESULT:      -7.5      1.719      2.639
REMARK  7 active torsions:
REMARK  status: ('A' for Active; 'I' for Inactive)
REMARK    1  A    between atoms: C6_6  and  N1_7 
REMARK    2  A    between atoms: N1_7  and  C7_8 
REMARK    3  A    between atoms: N4_12  and  C9_13 
REMARK    4  A    between atoms: C10_14  and  C11_15 
REMARK    5  A    between atoms: C12_16  and  C13_17 
REMARK    6  A    between atoms: C13_17  and  O1_18 
REMARK    7  A    between atoms: O1_18  and  C14_19 
ROOT
HETATM    1  C7  UNL     1      23.708   5.384  49.983  1.00  0.00     0.125 A 
HETATM    2  N2  UNL     1      23.921   6.064  51.084  1.00  0.00    -0.225 NA
HETATM    3  C8  UNL     1      23.323   5.620  52.283  1.00  0.00     0.257 A 
HETATM    4  N3  UNL     1      22.577   4.583  52.362  1.00  0.00    -0.166 NA
HETATM    5  N4  UNL     1      22.350   3.861  51.189  1.00  0.00    -0.272 N 
HETATM    6  C18 UNL     1      22.880   4.155  49.877  1.00  0.00     0.229 A 
ENDROOT
BRANCH   5   7
HETATM    7  C9  UNL     1      21.514   2.716  51.268  1.00  0.00     0.121 C 
HETATM    8  C10 UNL     1      21.687   1.465  51.589  1.00  0.00     0.083 C 
BRANCH   8   9
HETATM    9  C11 UNL     1      22.989   1.006  51.974  1.00  0.00    -0.075 C 
HETATM   10  C12 UNL     1      24.084   0.632  52.303  1.00  0.00    -0.076 C 
BRANCH  10  11
HETATM   11  C13 UNL     1      25.414   0.159  52.698  1.00  0.00     0.265 C 
BRANCH  11  12
HETATM   12  O1  UNL     1      26.294   1.211  52.775  1.00  0.00    -0.349 OA
BRANCH  12  13
HETATM   13  C14 UNL     1      26.768   1.392  54.078  1.00  0.00     0.264 C 
HETATM   14  C15 UNL     1      27.400   0.146  54.647  1.00  0.00     0.091 C 
HETATM   15  C16 UNL     1      28.891   0.416  54.766  1.00  0.00     0.277 C 
HETATM   16  N5  UNL     1      29.270   1.083  53.523  1.00  0.00     0.106 N 
HETATM   17  C17 UNL     1      28.782   2.437  53.637  1.00  0.00     0.440 C 
HETATM   18  H18 UNL     1      28.871   0.561  52.724  1.00  0.00     0.318 HD
HETATM   19  O2  UNL     1      27.542   2.528  54.215  1.00  0.00    -0.332 OA
ENDBRANCH  12  13
ENDBRANCH  11  12
ENDBRANCH  10  11
ENDBRANCH   8   9
ENDBRANCH   5   7
BRANCH   1  20
HETATM   20  N1  UNL     1      24.343   5.897  48.830  1.00  0.00    -0.343 N 
HETATM   21  H7  UNL     1      23.741   6.314  48.063  1.00  0.00     0.167 HD
BRANCH  20  22
HETATM   22  C6  UNL     1      25.733   5.902  48.620  1.00  0.00     0.033 A 
HETATM   23  C5  UNL     1      26.606   4.880  48.904  1.00  0.00     0.029 A 
HETATM   24  C4  UNL     1      27.962   4.909  48.687  1.00  0.00     0.003 A 
HETATM   25  C3  UNL     1      28.530   6.030  48.145  1.00  0.00     0.007 A 
HETATM   26  C2  UNL     1      27.727   7.092  47.835  1.00  0.00    -0.060 A 
HETATM   27  C1  UNL     1      28.298   8.328  47.246  1.00  0.00     0.048 C 
HETATM   28  C19 UNL     1      26.373   7.013  48.072  1.00  0.00     0.036 A 
ENDBRANCH  20  22
ENDBRANCH   1  20
TORSDOF 7
ENDMDL
MODEL 7
REMARK VINA RESULT:      -7.3      1.638      5.901
REMARK  7 active torsions:
REMARK  status: ('A' for Active; 'I' for Inactive)
REMARK    1  A    between atoms: C6_6  and  N1_7 
REMARK    2  A    between atoms: N1_7  and  C7_8 
REMARK    3  A    between atoms: N4_12  and  C9_13 
REMARK    4  A    between atoms: C10_14  and  C11_15 
REMARK    5  A    between atoms: C12_16  and  C13_17 
REMARK    6  A    between atoms: C13_17  and  O1_18 
REMARK    7  A    between atoms: O1_18  and  C14_19 
ROOT
HETATM    1  C7  UNL     1      21.026   2.268  50.507  1.00  0.00     0.125 A 
HETATM    2  N2  UNL     1      20.967   1.252  49.680  1.00  0.00    -0.225 NA
HETATM    3  C8  UNL     1      21.776   1.270  48.523  1.00  0.00     0.257 A 
HETATM    4  N3  UNL     1      22.573   2.229  48.230  1.00  0.00    -0.166 NA
HETATM    5  N4  UNL     1      22.634   3.309  49.112  1.00  0.00    -0.272 N 
HETATM    6  C18 UNL     1      21.892   3.464  50.343  1.00  0.00     0.229 A 
ENDROOT
BRANCH   5   7
HETATM    7  C9  UNL     1      23.508   4.380  48.786  1.00  0.00     0.121 C 
HETATM    8  C10 UNL     1      24.727   4.709  49.107  1.00  0.00     0.083 C 
BRANCH   8   9
HETATM    9  C11 UNL     1      25.476   3.870  49.996  1.00  0.00    -0.075 C 
HETATM   10  C12 UNL     1      26.111   3.178  50.747  1.00  0.00    -0.076 C 
BRANCH  10  11
HETATM   11  C13 UNL     1      26.874   2.318  51.657  1.00  0.00     0.265 C 
BRANCH  11  12
HETATM   12  O1  UNL     1      26.155   1.188  51.965  1.00  0.00    -0.349 OA
BRANCH  12  13
HETATM   13  C14 UNL     1      25.504   1.311  53.197  1.00  0.00     0.264 C 
HETATM   14  C15 UNL     1      24.481   0.227  53.427  1.00  0.00     0.091 C 
HETATM   15  C16 UNL     1      25.017  -0.664  54.536  1.00  0.00     0.277 C 
HETATM   16  N5  UNL     1      26.431  -0.864  54.232  1.00  0.00     0.106 N 
HETATM   17  C17 UNL     1      27.091   0.369  54.589  1.00  0.00     0.440 C 
HETATM   18  H18 UNL     1      26.530  -1.117  53.234  1.00  0.00     0.318 HD
HETATM   19  O2  UNL     1      26.380   1.491  54.250  1.00  0.00    -0.332 OA
ENDBRANCH  12  13
ENDBRANCH  11  12
ENDBRANCH  10  11
ENDBRANCH   8   9
ENDBRANCH   5   7
BRANCH   1  20
HETATM   20  N1  UNL     1      20.185   2.169  51.637  1.00  0.00    -0.343 N 
HETATM   21  H7  UNL     1      19.805   3.060  52.066  1.00  0.00     0.167 HD
BRANCH  20  22
HETATM   22  C6  UNL     1      19.802   0.959  52.244  1.00  0.00     0.033 A 
HETATM   23  C5  UNL     1      18.600   0.313  52.090  1.00  0.00     0.029 A 
HETATM   24  C4  UNL     1      18.250  -0.870  52.693  1.00  0.00     0.003 A 
HETATM   25  C3  UNL     1      19.144  -1.489  53.524  1.00  0.00     0.007 A 
HETATM   26  C2  UNL     1      20.363  -0.907  53.730  1.00  0.00    -0.060 A 
HETATM   27  C1  UNL     1      21.365  -1.539  54.623  1.00  0.00     0.048 C 
HETATM   28  C19 UNL     1      20.666   0.281  53.101  1.00  0.00     0.036 A 
ENDBRANCH  20  22
ENDBRANCH   1  20
TORSDOF 7
ENDMDL
MODEL 8
REMARK VINA RESULT:      -7.3      2.548      5.344
REMARK  7 active torsions:
REMARK  status: ('A' for Active; 'I' for Inactive)
REMARK    1  A    between atoms: C6_6  and  N1_7 
REMARK    2  A    between atoms: N1_7  and  C7_8 
REMARK    3  A    between atoms: N4_12  and  C9_13 
REMARK    4  A    between atoms: C10_14  and  C11_15 
REMARK    5  A    between atoms: C12_16  and  C13_17 
REMARK    6  A    between atoms: C13_17  and  O1_18 
REMARK    7  A    between atoms: O1_18  and  C14_19 
ROOT
HETATM    1  C7  UNL     1      25.244   3.508  50.721  1.00  0.00     0.125 A 
HETATM    2  N2  UNL     1      24.219   4.163  51.210  1.00  0.00    -0.225 NA
HETATM    3  C8  UNL     1      23.835   3.923  52.548  1.00  0.00     0.257 A 
HETATM    4  N3  UNL     1      24.433   3.096  53.320  1.00  0.00    -0.166 NA
HETATM    5  N4  UNL     1      25.524   2.399  52.797  1.00  0.00    -0.272 N 
HETATM    6  C18 UNL     1      26.066   2.516  51.462  1.00  0.00     0.229 A 
ENDROOT
BRANCH   5   7
HETATM    7  C9  UNL     1      26.184   1.471  53.645  1.00  0.00     0.121 C 
HETATM    8  C10 UNL     1      25.872   0.327  54.185  1.00  0.00     0.083 C 
BRANCH   8   9
HETATM    9  C11 UNL     1      24.578  -0.241  53.943  1.00  0.00    -0.075 C 
HETATM   10  C12 UNL     1      23.489  -0.705  53.737  1.00  0.00    -0.076 C 
BRANCH  10  11
HETATM   11  C13 UNL     1      22.168  -1.290  53.487  1.00  0.00     0.265 C 
BRANCH  11  12
HETATM   12  O1  UNL     1      21.472  -0.531  52.577  1.00  0.00    -0.349 OA
BRANCH  12  13
HETATM   13  C14 UNL     1      20.522   0.282  53.203  1.00  0.00     0.264 C 
HETATM   14  C15 UNL     1      20.618   1.726  52.775  1.00  0.00     0.091 C 
HETATM   15  C16 UNL     1      19.378   2.030  51.950  1.00  0.00     0.277 C 
HETATM   16  N5  UNL     1      19.200   0.880  51.067  1.00  0.00     0.106 N 
HETATM   17  C17 UNL     1      18.671  -0.177  51.896  1.00  0.00     0.440 C 
HETATM   18  H18 UNL     1      20.107   0.650  50.625  1.00  0.00     0.318 HD
HETATM   19  O2  UNL     1      19.245  -0.239  53.140  1.00  0.00    -0.332 OA
ENDBRANCH  12  13
ENDBRANCH  11  12
ENDBRANCH  10  11
ENDBRANCH   8   9
ENDBRANCH   5   7
BRANCH   1  20
HETATM   20  N1  UNL     1      25.559   3.808  49.378  1.00  0.00    -0.343 N 
HETATM   21  H7  UNL     1      25.187   3.173  48.616  1.00  0.00     0.167 HD
BRANCH  20  22
HETATM   22  C6  UNL     1      26.339   4.904  48.966  1.00  0.00     0.033 A 
HETATM   23  C5  UNL     1      25.906   6.197  48.799  1.00  0.00     0.029 A 
HETATM   24  C4  UNL     1      26.688   7.252  48.397  1.00  0.00     0.003 A 
HETATM   25  C3  UNL     1      28.014   7.039  48.131  1.00  0.00     0.007 A 
HETATM   26  C2  UNL     1      28.520   5.778  48.272  1.00  0.00    -0.060 A 
HETATM   27  C1  UNL     1      29.951   5.500  47.994  1.00  0.00     0.048 C 
HETATM   28  C19 UNL     1      27.694   4.754  48.678  1.00  0.00     0.036 A 
ENDBRANCH  20  22
ENDBRANCH   1  20
TORSDOF 7
ENDMDL
MODEL 9
REMARK VINA RESULT:      -7.2      1.945      2.577
REMARK  7 active torsions:
REMARK  status: ('A' for Active; 'I' for Inactive)
REMARK    1  A    between atoms: C6_6  and  N1_7 
REMARK    2  A    between atoms: N1_7  and  C7_8 
REMARK    3  A    between atoms: N4_12  and  C9_13 
REMARK    4  A    between atoms: C10_14  and  C11_15 
REMARK    5  A    between atoms: C12_16  and  C13_17 
REMARK    6  A    between atoms: C13_17  and  O1_18 
REMARK    7  A    between atoms: O1_18  and  C14_19 
ROOT
HETATM    1  C7  UNL     1      23.631   4.361  51.387  1.00  0.00     0.125 A 
HETATM    2  N2  UNL     1      24.027   3.944  50.208  1.00  0.00    -0.225 NA
HETATM    3  C8  UNL     1      23.569   2.693  49.741  1.00  0.00     0.257 A 
HETATM    4  N3  UNL     1      22.782   1.932  50.406  1.00  0.00    -0.166 NA
HETATM    5  N4  UNL     1      22.362   2.378  51.660  1.00  0.00    -0.272 N 
HETATM    6  C18 UNL     1      22.716   3.626  52.298  1.00  0.00     0.229 A 
ENDROOT
BRANCH   5   7
HETATM    7  C9  UNL     1      21.498   1.534  52.407  1.00  0.00     0.121 C 
HETATM    8  C10 UNL     1      21.663   0.532  53.223  1.00  0.00     0.083 C 
BRANCH   8   9
HETATM    9  C11 UNL     1      22.988   0.072  53.522  1.00  0.00    -0.075 C 
HETATM   10  C12 UNL     1      24.102  -0.301  53.777  1.00  0.00    -0.076 C 
BRANCH  10  11
HETATM   11  C13 UNL     1      25.455  -0.775  54.085  1.00  0.00     0.265 C 
BRANCH  11  12
HETATM   12  O1  UNL     1      26.264   0.279  54.437  1.00  0.00    -0.349 OA
BRANCH  12  13
HETATM   13  C14 UNL     1      27.067   0.691  53.369  1.00  0.00     0.264 C 
HETATM   14  C15 UNL     1      27.305   2.181  53.359  1.00  0.00     0.091 C 
HETATM   15  C16 UNL     1      28.770   2.401  53.696  1.00  0.00     0.277 C 
HETATM   16  N5  UNL     1      29.062   1.489  54.799  1.00  0.00     0.106 N 
HETATM   17  C17 UNL     1      29.157   0.174  54.210  1.00  0.00     0.440 C 
HETATM   18  H18 UNL     1      28.320   1.574  55.514  1.00  0.00     0.318 HD
HETATM   19  O2  UNL     1      28.217  -0.063  53.240  1.00  0.00    -0.332 OA
ENDBRANCH  12  13
ENDBRANCH  11  12
ENDBRANCH  10  11
ENDBRANCH   8   9
ENDBRANCH   5   7
BRANCH   1  20
HETATM   20  N1  UNL     1      24.136   5.621  51.776  1.00  0.00    -0.343 N 
HETATM   21  H7  UNL     1      24.419   5.763  52.787  1.00  0.00     0.167 HD
BRANCH  20  22
HETATM   22  C6  UNL     1      24.298   6.719  50.911  1.00  0.00     0.033 A 
HETATM   23  C5  UNL     1      25.489   7.240  50.468  1.00  0.00     0.029 A 
HETATM   24  C4  UNL     1      25.622   8.313  49.621  1.00  0.00     0.003 A 
HETATM   25  C3  UNL     1      24.499   8.943  49.157  1.00  0.00     0.007 A 
HETATM   26  C2  UNL     1      23.274   8.484  49.554  1.00  0.00    -0.060 A 
HETATM   27  C1  UNL     1      22.029   9.135  49.078  1.00  0.00     0.048 C 
HETATM   28  C19 UNL     1      23.195   7.404  50.405  1.00  0.00     0.036 A 
ENDBRANCH  20  22
ENDBRANCH   1  20
TORSDOF 7
ENDMDL
