MODEL 1
REMARK VINA RESULT:      -9.5      0.000      0.000
REMARK  3 active torsions:
REMARK  status: ('A' for Active; 'I' for Inactive)
REMARK    1  A    between atoms: C2_2  and  C3_3 
REMARK    2  A    between atoms: C8_8  and  N1_9 
REMARK    3  A    between atoms: N2_12  and  C11_13 
ROOT
HETATM    1  C3  UNL     1      23.126  -0.076  53.548  1.00  0.00    -0.031 A 
HETATM    2  C4  UNL     1      21.769  -0.281  53.477  1.00  0.00     0.025 A 
HETATM    3  C5  UNL     1      21.093   0.349  52.455  1.00  0.00     0.022 A 
HETATM    4  C6  UNL     1      21.700   1.171  51.504  1.00  0.00    -0.041 A 
HETATM    5  C7  UNL     1      23.069   1.352  51.611  1.00  0.00     0.038 A 
HETATM    6  C8  UNL     1      23.772   0.725  52.635  1.00  0.00     0.037 A 
HETATM    7  C16 UNL     1      20.954   1.839  50.409  1.00  0.00     0.050 C 
HETATM    8  C17 UNL     1      19.775   2.646  50.899  1.00  0.00     0.036 C 
HETATM    9  C18 UNL     1      20.149   3.214  52.253  1.00  0.00     0.017 C 
HETATM   10  C19 UNL     1      18.525   1.794  51.032  1.00  0.00     0.025 C 
HETATM   11  C20 UNL     1      18.609   0.668  51.784  1.00  0.00     0.046 C 
HETATM   12  C21 UNL     1      19.666  -0.009  52.569  1.00  0.00     0.195 C 
HETATM   13  O2  UNL     1      19.278  -0.918  53.348  1.00  0.00    -0.287 OA
HETATM   14  C22 UNL     1      17.250   0.090  51.670  1.00  0.00    -0.014 A 
HETATM   15  C23 UNL     1      16.496  -0.988  51.694  1.00  0.00     0.012 A 
HETATM   16  C24 UNL     1      15.144  -0.447  51.441  1.00  0.00     0.021 A 
HETATM   17  C25 UNL     1      15.138   0.887  51.284  1.00  0.00     0.049 A 
HETATM   18  C26 UNL     1      13.993   1.704  51.018  1.00  0.00     0.097 C 
HETATM   19  N3  UNL     1      13.061   2.362  50.792  1.00  0.00    -0.192 NA
HETATM   20  C27 UNL     1      16.476   1.373  51.506  1.00  0.00     0.160 A 
HETATM   21  N4  UNL     1      17.214   1.996  50.451  1.00  0.00    -0.379 N 
HETATM   22  H30 UNL     1      17.207   2.489  49.525  1.00  0.00     0.160 HD
ENDROOT
BRANCH   1  23
HETATM   23  C2  UNL     1      23.945  -0.680  54.592  1.00  0.00     0.036 C 
HETATM   24  C1  UNL     1      22.996  -1.484  55.491  1.00  0.00     0.010 C 
ENDBRANCH   1  23
BRANCH   6  25
HETATM   25  N1  UNL     1      25.154   1.041  52.537  1.00  0.00    -0.377 N 
HETATM   26  C9  UNL     1      26.091   0.532  51.558  1.00  0.00     0.153 C 
HETATM   27  C10 UNL     1      27.237  -0.101  52.283  1.00  0.00     0.293 C 
HETATM   28  N2  UNL     1      27.276   0.204  53.685  1.00  0.00     0.100 N 
HETATM   29  C14 UNL     1      26.969   1.564  53.992  1.00  0.00     0.293 C 
HETATM   30  C15 UNL     1      25.606   1.967  53.525  1.00  0.00     0.153 C 
BRANCH  28  31
HETATM   31  C11 UNL     1      28.505  -0.250  54.224  1.00  0.00     0.270 C 
HETATM   32  C12 UNL     1      29.126  -1.400  53.463  1.00  0.00     0.205 C 
HETATM   33  O1  UNL     1      30.372  -0.890  53.871  1.00  0.00    -0.387 OA
HETATM   34  C13 UNL     1      29.779   0.393  53.804  1.00  0.00     0.205 C 
ENDBRANCH  28  31
ENDBRANCH   6  25
TORSDOF 3
ENDMDL
MODEL 2
REMARK VINA RESULT:      -9.4      6.698      9.808
REMARK  3 active torsions:
REMARK  status: ('A' for Active; 'I' for Inactive)
REMARK    1  A    between atoms: C2_2  and  C3_3 
REMARK    2  A    between atoms: C8_8  and  N1_9 
REMARK    3  A    between atoms: N2_12  and  C11_13 
ROOT
HETATM    1  C3  UNL     1      25.903   6.227  48.592  1.00  0.00    -0.031 A 
HETATM    2  C4  UNL     1      26.295   5.145  49.344  1.00  0.00     0.025 A 
HETATM    3  C5  UNL     1      25.298   4.341  49.850  1.00  0.00     0.022 A 
HETATM    4  C6  UNL     1      23.934   4.561  49.647  1.00  0.00    -0.041 A 
HETATM    5  C7  UNL     1      23.582   5.662  48.884  1.00  0.00     0.038 A 
HETATM    6  C8  UNL     1      24.572   6.488  48.362  1.00  0.00     0.037 A 
HETATM    7  C16 UNL     1      22.875   3.681  50.199  1.00  0.00     0.050 C 
HETATM    8  C17 UNL     1      22.997   3.467  51.689  1.00  0.00     0.036 C 
HETATM    9  C18 UNL     1      23.550   4.745  52.285  1.00  0.00     0.017 C 
HETATM   10  C19 UNL     1      23.924   2.310  52.018  1.00  0.00     0.025 C 
HETATM   11  C20 UNL     1      25.174   2.336  51.490  1.00  0.00     0.046 C 
HETATM   12  C21 UNL     1      25.938   3.253  50.614  1.00  0.00     0.195 C 
HETATM   13  O2  UNL     1      27.179   3.052  50.554  1.00  0.00    -0.287 OA
HETATM   14  C22 UNL     1      25.770   1.073  51.985  1.00  0.00    -0.014 A 
HETATM   15  C23 UNL     1      26.645   0.110  51.794  1.00  0.00     0.012 A 
HETATM   16  C24 UNL     1      26.428  -0.765  52.966  1.00  0.00     0.021 A 
HETATM   17  C25 UNL     1      25.468  -0.307  53.786  1.00  0.00     0.049 A 
HETATM   18  C26 UNL     1      25.019  -0.929  54.995  1.00  0.00     0.097 C 
HETATM   19  N3  UNL     1      24.650  -1.443  55.970  1.00  0.00    -0.192 NA
HETATM   20  C27 UNL     1      25.015   0.965  53.284  1.00  0.00     0.160 A 
HETATM   21  N4  UNL     1      23.671   1.135  52.826  1.00  0.00    -0.379 N 
HETATM   22  H30 UNL     1      22.677   0.801  52.827  1.00  0.00     0.160 HD
ENDROOT
BRANCH   1  23
HETATM   23  C2  UNL     1      26.867   7.156  48.015  1.00  0.00     0.036 C 
HETATM   24  C1  UNL     1      28.225   6.439  48.009  1.00  0.00     0.010 C 
ENDBRANCH   1  23
BRANCH   6  25
HETATM   25  N1  UNL     1      23.980   7.536  47.607  1.00  0.00    -0.377 N 
HETATM   26  C9  UNL     1      23.873   7.611  46.166  1.00  0.00     0.153 C 
HETATM   27  C10 UNL     1      24.502   8.889  45.708  1.00  0.00     0.293 C 
HETATM   28  N2  UNL     1      24.769   9.816  46.770  1.00  0.00     0.100 N 
HETATM   29  C14 UNL     1      23.725   9.903  47.740  1.00  0.00     0.293 C 
HETATM   30  C15 UNL     1      23.446   8.592  48.405  1.00  0.00     0.153 C 
BRANCH  28  31
HETATM   31  C11 UNL     1      25.149  11.062  46.214  1.00  0.00     0.270 C 
HETATM   32  C12 UNL     1      24.942  12.241  47.139  1.00  0.00     0.205 C 
HETATM   33  O1  UNL     1      26.041  12.836  46.494  1.00  0.00    -0.387 OA
HETATM   34  C13 UNL     1      26.557  11.528  46.337  1.00  0.00     0.205 C 
ENDBRANCH  28  31
ENDBRANCH   6  25
TORSDOF 3
ENDMDL
MODEL 3
REMARK VINA RESULT:      -9.4      5.537      9.886
REMARK  3 active torsions:
REMARK  status: ('A' for Active; 'I' for Inactive)
REMARK    1  A    between atoms: C2_2  and  C3_3 
REMARK    2  A    between atoms: C8_8  and  N1_9 
REMARK    3  A    between atoms: N2_12  and  C11_13 
ROOT
HETATM    1  C3  UNL     1      25.702   6.216  48.573  1.00  0.00    -0.031 A 
HETATM    2  C4  UNL     1      26.137   5.146  49.319  1.00  0.00     0.025 A 
HETATM    3  C5  UNL     1      25.171   4.327  49.861  1.00  0.00     0.022 A 
HETATM    4  C6  UNL     1      23.798   4.521  49.699  1.00  0.00    -0.041 A 
HETATM    5  C7  UNL     1      23.402   5.610  48.941  1.00  0.00     0.038 A 
HETATM    6  C8  UNL     1      24.360   6.450  48.382  1.00  0.00     0.037 A 
HETATM    7  C16 UNL     1      22.773   3.625  50.290  1.00  0.00     0.050 C 
HETATM    8  C17 UNL     1      22.946   3.424  51.778  1.00  0.00     0.036 C 
HETATM    9  C18 UNL     1      23.494   4.717  52.347  1.00  0.00     0.017 C 
HETATM   10  C19 UNL     1      23.905   2.287  52.084  1.00  0.00     0.025 C 
HETATM   11  C20 UNL     1      25.136   2.332  51.518  1.00  0.00     0.046 C 
HETATM   12  C21 UNL     1      25.856   3.257  50.612  1.00  0.00     0.195 C 
HETATM   13  O2  UNL     1      27.097   3.078  50.514  1.00  0.00    -0.287 OA
HETATM   14  C22 UNL     1      25.771   1.085  52.001  1.00  0.00    -0.014 A 
HETATM   15  C23 UNL     1      26.658   0.136  51.790  1.00  0.00     0.012 A 
HETATM   16  C24 UNL     1      26.494  -0.734  52.973  1.00  0.00     0.021 A 
HETATM   17  C25 UNL     1      25.551  -0.289  53.821  1.00  0.00     0.049 A 
HETATM   18  C26 UNL     1      25.152  -0.910  55.047  1.00  0.00     0.097 C 
HETATM   19  N3  UNL     1      24.823  -1.424  56.037  1.00  0.00    -0.192 NA
HETATM   20  C27 UNL     1      25.059   0.971  53.324  1.00  0.00     0.160 A 
HETATM   21  N4  UNL     1      23.698   1.113  52.907  1.00  0.00    -0.379 N 
HETATM   22  H30 UNL     1      22.711   0.761  52.943  1.00  0.00     0.160 HD
ENDROOT
BRANCH   1  23
HETATM   23  C2  UNL     1      26.630   7.157  47.959  1.00  0.00     0.036 C 
HETATM   24  C1  UNL     1      28.037   6.570  48.132  1.00  0.00     0.010 C 
ENDBRANCH   1  23
BRANCH   6  25
HETATM   25  N1  UNL     1      23.725   7.481  47.640  1.00  0.00    -0.377 N 
HETATM   26  C9  UNL     1      23.699   8.892  47.965  1.00  0.00     0.153 C 
HETATM   27  C10 UNL     1      22.272   9.337  48.036  1.00  0.00     0.293 C 
HETATM   28  N2  UNL     1      21.342   8.388  47.496  1.00  0.00     0.100 N 
HETATM   29  C14 UNL     1      21.781   7.766  46.288  1.00  0.00     0.293 C 
HETATM   30  C15 UNL     1      23.069   7.023  46.459  1.00  0.00     0.153 C 
BRANCH  28  31
HETATM   31  C11 UNL     1      20.063   8.991  47.406  1.00  0.00     0.270 C 
HETATM   32  C12 UNL     1      19.006   8.328  48.263  1.00  0.00     0.205 C 
HETATM   33  O1  UNL     1      18.410   9.598  48.366  1.00  0.00    -0.387 OA
HETATM   34  C13 UNL     1      19.720  10.131  48.298  1.00  0.00     0.205 C 
ENDBRANCH  28  31
ENDBRANCH   6  25
TORSDOF 3
ENDMDL
MODEL 4
REMARK VINA RESULT:      -9.3      2.312     10.112
REMARK  3 active torsions:
REMARK  status: ('A' for Active; 'I' for Inactive)
REMARK    1  A    between atoms: C2_2  and  C3_3 
REMARK    2  A    between atoms: C8_8  and  N1_9 
REMARK    3  A    between atoms: N2_12  and  C11_13 
ROOT
HETATM    1  C3  UNL     1      18.923   2.826  51.572  1.00  0.00    -0.031 A 
HETATM    2  C4  UNL     1      20.277   2.970  51.765  1.00  0.00     0.025 A 
HETATM    3  C5  UNL     1      21.012   1.817  51.926  1.00  0.00     0.022 A 
HETATM    4  C6  UNL     1      20.469   0.531  51.905  1.00  0.00    -0.041 A 
HETATM    5  C7  UNL     1      19.102   0.429  51.708  1.00  0.00     0.038 A 
HETATM    6  C8  UNL     1      18.338   1.581  51.542  1.00  0.00     0.037 A 
HETATM    7  C16 UNL     1      21.280  -0.700  52.077  1.00  0.00     0.050 C 
HETATM    8  C17 UNL     1      22.134  -0.679  53.323  1.00  0.00     0.036 C 
HETATM    9  C18 UNL     1      21.369   0.088  54.382  1.00  0.00     0.017 C 
HETATM   10  C19 UNL     1      23.473  -0.008  53.076  1.00  0.00     0.025 C 
HETATM   11  C20 UNL     1      23.463   1.242  52.550  1.00  0.00     0.046 C 
HETATM   12  C21 UNL     1      22.423   2.204  52.116  1.00  0.00     0.195 C 
HETATM   13  O2  UNL     1      22.813   3.383  51.913  1.00  0.00    -0.287 OA
HETATM   14  C22 UNL     1      24.904   1.562  52.424  1.00  0.00    -0.014 A 
HETATM   15  C23 UNL     1      25.839   2.240  51.795  1.00  0.00     0.012 A 
HETATM   16  C24 UNL     1      27.073   1.812  52.486  1.00  0.00     0.021 A 
HETATM   17  C25 UNL     1      26.839   0.928  53.470  1.00  0.00     0.049 A 
HETATM   18  C26 UNL     1      27.821   0.320  54.316  1.00  0.00     0.097 C 
HETATM   19  N3  UNL     1      28.624  -0.179  54.993  1.00  0.00    -0.192 NA
HETATM   20  C27 UNL     1      25.414   0.750  53.586  1.00  0.00     0.160 A 
HETATM   21  N4  UNL     1      24.809  -0.516  53.313  1.00  0.00    -0.379 N 
HETATM   22  H30 UNL     1      24.913  -1.555  53.220  1.00  0.00     0.160 HD
ENDROOT
BRANCH   1  23
HETATM   23  C2  UNL     1      18.041   3.974  51.402  1.00  0.00     0.036 C 
HETATM   24  C1  UNL     1      18.458   4.664  50.096  1.00  0.00     0.010 C 
ENDBRANCH   1  23
BRANCH   6  25
HETATM   25  N1  UNL     1      16.976   1.234  51.341  1.00  0.00    -0.377 N 
HETATM   26  C9  UNL     1      16.096   1.742  50.310  1.00  0.00     0.153 C 
HETATM   27  C10 UNL     1      14.886   2.330  50.967  1.00  0.00     0.293 C 
HETATM   28  N2  UNL     1      14.758   1.992  52.355  1.00  0.00     0.100 N 
HETATM   29  C14 UNL     1      15.078   0.633  52.654  1.00  0.00     0.293 C 
HETATM   30  C15 UNL     1      16.480   0.275  52.275  1.00  0.00     0.153 C 
BRANCH  28  31
HETATM   31  C11 UNL     1      13.484   2.404  52.818  1.00  0.00     0.270 C 
HETATM   32  C12 UNL     1      13.465   3.789  53.425  1.00  0.00     0.205 C 
HETATM   33  O1  UNL     1      12.138   3.882  52.969  1.00  0.00    -0.387 OA
HETATM   34  C13 UNL     1      12.538   3.069  51.882  1.00  0.00     0.205 C 
ENDBRANCH  28  31
ENDBRANCH   6  25
TORSDOF 3
ENDMDL
MODEL 5
REMARK VINA RESULT:      -9.3      3.756      4.929
REMARK  3 active torsions:
REMARK  status: ('A' for Active; 'I' for Inactive)
REMARK    1  A    between atoms: C2_2  and  C3_3 
REMARK    2  A    between atoms: C8_8  and  N1_9 
REMARK    3  A    between atoms: N2_12  and  C11_13 
ROOT
HETATM    1  C3  UNL     1      22.406   0.495  52.945  1.00  0.00    -0.031 A 
HETATM    2  C4  UNL     1      21.620   1.465  52.369  1.00  0.00     0.025 A 
HETATM    3  C5  UNL     1      22.268   2.538  51.798  1.00  0.00     0.022 A 
HETATM    4  C6  UNL     1      23.655   2.693  51.773  1.00  0.00    -0.041 A 
HETATM    5  C7  UNL     1      24.411   1.694  52.364  1.00  0.00     0.038 A 
HETATM    6  C8  UNL     1      23.778   0.600  52.946  1.00  0.00     0.037 A 
HETATM    7  C16 UNL     1      24.334   3.857  51.150  1.00  0.00     0.050 C 
HETATM    8  C17 UNL     1      23.821   5.185  51.656  1.00  0.00     0.036 C 
HETATM    9  C18 UNL     1      23.441   4.997  53.110  1.00  0.00     0.017 C 
HETATM   10  C19 UNL     1      22.611   5.657  50.870  1.00  0.00     0.025 C 
HETATM   11  C20 UNL     1      21.558   4.809  50.767  1.00  0.00     0.046 C 
HETATM   12  C21 UNL     1      21.242   3.443  51.247  1.00  0.00     0.195 C 
HETATM   13  O2  UNL     1      20.037   3.092  51.156  1.00  0.00    -0.287 OA
HETATM   14  C22 UNL     1      20.598   5.569  49.933  1.00  0.00    -0.014 A 
HETATM   15  C23 UNL     1      19.601   5.533  49.075  1.00  0.00     0.012 A 
HETATM   16  C24 UNL     1      19.339   6.965  48.819  1.00  0.00     0.021 A 
HETATM   17  C25 UNL     1      20.157   7.776  49.511  1.00  0.00     0.049 A 
HETATM   18  C26 UNL     1      20.161   9.207  49.474  1.00  0.00     0.097 C 
HETATM   19  N3  UNL     1      20.168  10.369  49.433  1.00  0.00    -0.192 NA
HETATM   20  C27 UNL     1      20.985   6.960  50.363  1.00  0.00     0.160 A 
HETATM   21  N4  UNL     1      22.402   6.912  50.178  1.00  0.00    -0.379 N 
HETATM   22  H30 UNL     1      23.269   7.358  49.792  1.00  0.00     0.160 HD
ENDROOT
BRANCH   1  23
HETATM   23  C2  UNL     1      21.834  -0.681  53.590  1.00  0.00     0.036 C 
HETATM   24  C1  UNL     1      21.226  -0.207  54.917  1.00  0.00     0.010 C 
ENDBRANCH   1  23
BRANCH   6  25
HETATM   25  N1  UNL     1      24.747  -0.296  53.471  1.00  0.00    -0.377 N 
HETATM   26  C9  UNL     1      25.018  -0.556  54.869  1.00  0.00     0.153 C 
HETATM   27  C10 UNL     1      26.469  -0.299  55.128  1.00  0.00     0.293 C 
HETATM   28  N2  UNL     1      27.255  -0.163  53.935  1.00  0.00     0.100 N 
HETATM   29  C14 UNL     1      26.921  -1.099  52.910  1.00  0.00     0.293 C 
HETATM   30  C15 UNL     1      25.494  -0.989  52.473  1.00  0.00     0.153 C 
BRANCH  28  31
HETATM   31  C11 UNL     1      28.628  -0.149  54.282  1.00  0.00     0.270 C 
HETATM   32  C12 UNL     1      29.475  -1.124  53.494  1.00  0.00     0.205 C 
HETATM   33  O1  UNL     1      30.532  -0.208  53.653  1.00  0.00    -0.387 OA
HETATM   34  C13 UNL     1      29.549   0.810  53.614  1.00  0.00     0.205 C 
ENDBRANCH  28  31
ENDBRANCH   6  25
TORSDOF 3
ENDMDL
MODEL 6
REMARK VINA RESULT:      -9.2      2.332      3.615
REMARK  3 active torsions:
REMARK  status: ('A' for Active; 'I' for Inactive)
REMARK    1  A    between atoms: C2_2  and  C3_3 
REMARK    2  A    between atoms: C8_8  and  N1_9 
REMARK    3  A    between atoms: N2_12  and  C11_13 
ROOT
HETATM    1  C3  UNL     1      22.511   1.926  50.565  1.00  0.00    -0.031 A 
HETATM    2  C4  UNL     1      21.264   1.353  50.473  1.00  0.00     0.025 A 
HETATM    3  C5  UNL     1      20.721   0.848  51.633  1.00  0.00     0.022 A 
HETATM    4  C6  UNL     1      21.356   0.884  52.877  1.00  0.00    -0.041 A 
HETATM    5  C7  UNL     1      22.610   1.469  52.926  1.00  0.00     0.038 A 
HETATM    6  C8  UNL     1      23.178   1.987  51.766  1.00  0.00     0.037 A 
HETATM    7  C16 UNL     1      20.752   0.335  54.116  1.00  0.00     0.050 C 
HETATM    8  C17 UNL     1      20.299  -1.098  53.973  1.00  0.00     0.036 C 
HETATM    9  C18 UNL     1      21.260  -1.783  53.024  1.00  0.00     0.017 C 
HETATM   10  C19 UNL     1      18.887  -1.190  53.420  1.00  0.00     0.025 C 
HETATM   11  C20 UNL     1      18.624  -0.544  52.256  1.00  0.00     0.046 C 
HETATM   12  C21 UNL     1      19.396   0.289  51.306  1.00  0.00     0.195 C 
HETATM   13  O2  UNL     1      18.853   0.499  50.191  1.00  0.00    -0.287 OA
HETATM   14  C22 UNL     1      17.185  -0.821  52.040  1.00  0.00    -0.014 A 
HETATM   15  C23 UNL     1      16.047  -0.428  51.511  1.00  0.00     0.012 A 
HETATM   16  C24 UNL     1      15.113  -1.502  51.909  1.00  0.00     0.021 A 
HETATM   17  C25 UNL     1      15.707  -2.466  52.634  1.00  0.00     0.049 A 
HETATM   18  C26 UNL     1      15.075  -3.631  53.175  1.00  0.00     0.097 C 
HETATM   19  N3  UNL     1      14.555  -4.570  53.621  1.00  0.00    -0.192 NA
HETATM   20  C27 UNL     1      17.115  -2.168  52.711  1.00  0.00     0.160 A 
HETATM   21  N4  UNL     1      17.733  -1.873  53.967  1.00  0.00    -0.379 N 
HETATM   22  H30 UNL     1      17.706  -1.936  55.013  1.00  0.00     0.160 HD
ENDROOT
BRANCH   1  23
HETATM   23  C2  UNL     1      23.192   2.484  49.403  1.00  0.00     0.036 C 
HETATM   24  C1  UNL     1      22.350   2.113  48.175  1.00  0.00     0.010 C 
ENDBRANCH   1  23
BRANCH   6  25
HETATM   25  N1  UNL     1      24.451   2.547  52.059  1.00  0.00    -0.377 N 
HETATM   26  C9  UNL     1      25.484   2.894  51.106  1.00  0.00     0.153 C 
HETATM   27  C10 UNL     1      26.742   2.178  51.488  1.00  0.00     0.293 C 
HETATM   28  N2  UNL     1      26.704   1.600  52.801  1.00  0.00     0.100 N 
HETATM   29  C14 UNL     1      26.092   2.433  53.785  1.00  0.00     0.293 C 
HETATM   30  C15 UNL     1      24.675   2.776  53.450  1.00  0.00     0.153 C 
BRANCH  28  31
HETATM   31  C11 UNL     1      28.001   1.149  53.147  1.00  0.00     0.270 C 
HETATM   32  C12 UNL     1      28.873   2.208  53.784  1.00  0.00     0.205 C 
HETATM   33  O1  UNL     1      29.492   1.160  54.489  1.00  0.00    -0.387 OA
HETATM   34  C13 UNL     1      28.233   0.512  54.472  1.00  0.00     0.205 C 
ENDBRANCH  28  31
ENDBRANCH   6  25
TORSDOF 3
ENDMDL
MODEL 7
REMARK VINA RESULT:      -9.2      7.943     12.837
REMARK  3 active torsions:
REMARK  status: ('A' for Active; 'I' for Inactive)
REMARK    1  A    between atoms: C2_2  and  C3_3 
REMARK    2  A    between atoms: C8_8  and  N1_9 
REMARK    3  A    between atoms: N2_12  and  C11_13 
ROOT
HETATM    1  C3  UNL     1      26.475   4.852  49.129  1.00  0.00    -0.031 A 
HETATM    2  C4  UNL     1      27.756   4.876  48.630  1.00  0.00     0.025 A 
HETATM    3  C5  UNL     1      28.317   6.113  48.407  1.00  0.00     0.022 A 
HETATM    4  C6  UNL     1      27.668   7.325  48.653  1.00  0.00    -0.041 A 
HETATM    5  C7  UNL     1      26.378   7.257  49.154  1.00  0.00     0.038 A 
HETATM    6  C8  UNL     1      25.791   6.017  49.389  1.00  0.00     0.037 A 
HETATM    7  C16 UNL     1      28.292   8.649  48.407  1.00  0.00     0.050 C 
HETATM    8  C17 UNL     1      28.836   8.798  47.006  1.00  0.00     0.036 C 
HETATM    9  C18 UNL     1      27.930   8.010  46.083  1.00  0.00     0.017 C 
HETATM   10  C19 UNL     1      30.257   8.273  46.896  1.00  0.00     0.025 C 
HETATM   11  C20 UNL     1      30.491   7.002  47.307  1.00  0.00     0.046 C 
HETATM   12  C21 UNL     1      29.679   5.903  47.879  1.00  0.00     0.195 C 
HETATM   13  O2  UNL     1      30.219   4.767  47.894  1.00  0.00    -0.287 OA
HETATM   14  C22 UNL     1      31.947   6.843  47.086  1.00  0.00    -0.014 A 
HETATM   15  C23 UNL     1      33.064   6.242  47.435  1.00  0.00     0.012 A 
HETATM   16  C24 UNL     1      34.059   6.849  46.526  1.00  0.00     0.021 A 
HETATM   17  C25 UNL     1      33.520   7.755  45.694  1.00  0.00     0.049 A 
HETATM   18  C26 UNL     1      34.218   8.520  44.706  1.00  0.00     0.097 C 
HETATM   19  N3  UNL     1      34.792   9.146  43.911  1.00  0.00    -0.192 NA
HETATM   20  C27 UNL     1      32.095   7.774  45.910  1.00  0.00     0.160 A 
HETATM   21  N4  UNL     1      31.446   8.944  46.413  1.00  0.00    -0.379 N 
HETATM   22  H30 UNL     1      31.465   9.982  46.565  1.00  0.00     0.160 HD
ENDROOT
BRANCH   1  23
HETATM   23  C2  UNL     1      25.773   3.602  49.394  1.00  0.00     0.036 C 
HETATM   24  C1  UNL     1      26.380   3.016  50.676  1.00  0.00     0.010 C 
ENDBRANCH   1  23
BRANCH   6  25
HETATM   25  N1  UNL     1      24.483   6.193  49.913  1.00  0.00    -0.377 N 
HETATM   26  C9  UNL     1      24.120   6.326  51.308  1.00  0.00     0.153 C 
HETATM   27  C10 UNL     1      23.108   5.274  51.637  1.00  0.00     0.293 C 
HETATM   28  N2  UNL     1      22.549   4.626  50.485  1.00  0.00     0.100 N 
HETATM   29  C14 UNL     1      22.254   5.513  49.406  1.00  0.00     0.293 C 
HETATM   30  C15 UNL     1      23.463   6.245  48.916  1.00  0.00     0.153 C 
BRANCH  28  31
HETATM   31  C11 UNL     1      21.456   3.821  50.890  1.00  0.00     0.270 C 
HETATM   32  C12 UNL     1      21.205   3.825  52.382  1.00  0.00     0.205 C 
HETATM   33  O1  UNL     1      19.848   3.625  52.072  1.00  0.00    -0.387 OA
HETATM   34  C13 UNL     1      20.083   4.393  50.906  1.00  0.00     0.205 C 
ENDBRANCH  28  31
ENDBRANCH   6  25
TORSDOF 3
ENDMDL
MODEL 8
REMARK VINA RESULT:      -9.1      2.408      9.696
REMARK  3 active torsions:
REMARK  status: ('A' for Active; 'I' for Inactive)
REMARK    1  A    between atoms: C2_2  and  C3_3 
REMARK    2  A    between atoms: C8_8  and  N1_9 
REMARK    3  A    between atoms: N2_12  and  C11_13 
ROOT
HETATM    1  C3  UNL     1      18.817   2.617  51.653  1.00  0.00    -0.031 A 
HETATM    2  C4  UNL     1      20.160   2.815  51.866  1.00  0.00     0.025 A 
HETATM    3  C5  UNL     1      20.944   1.691  52.004  1.00  0.00     0.022 A 
HETATM    4  C6  UNL     1      20.458   0.384  51.943  1.00  0.00    -0.041 A 
HETATM    5  C7  UNL     1      19.099   0.228  51.728  1.00  0.00     0.038 A 
HETATM    6  C8  UNL     1      18.287   1.349  51.584  1.00  0.00     0.037 A 
HETATM    7  C16 UNL     1      21.320  -0.815  52.092  1.00  0.00     0.050 C 
HETATM    8  C17 UNL     1      22.160  -0.790  53.348  1.00  0.00     0.036 C 
HETATM    9  C18 UNL     1      21.351  -0.086  54.418  1.00  0.00     0.017 C 
HETATM   10  C19 UNL     1      23.471  -0.055  53.134  1.00  0.00     0.025 C 
HETATM   11  C20 UNL     1      23.411   1.207  52.641  1.00  0.00     0.046 C 
HETATM   12  C21 UNL     1      22.335   2.134  52.221  1.00  0.00     0.195 C 
HETATM   13  O2  UNL     1      22.674   3.334  52.054  1.00  0.00    -0.287 OA
HETATM   14  C22 UNL     1      24.838   1.593  52.540  1.00  0.00    -0.014 A 
HETATM   15  C23 UNL     1      25.749   2.328  51.940  1.00  0.00     0.012 A 
HETATM   16  C24 UNL     1      26.994   1.936  52.633  1.00  0.00     0.021 A 
HETATM   17  C25 UNL     1      26.788   1.016  53.591  1.00  0.00     0.049 A 
HETATM   18  C26 UNL     1      27.788   0.429  54.431  1.00  0.00     0.097 C 
HETATM   19  N3  UNL     1      28.605  -0.053  55.104  1.00  0.00    -0.192 NA
HETATM   20  C27 UNL     1      25.371   0.773  53.686  1.00  0.00     0.160 A 
HETATM   21  N4  UNL     1      24.825  -0.511  53.372  1.00  0.00    -0.379 N 
HETATM   22  H30 UNL     1      24.976  -1.541  53.253  1.00  0.00     0.160 HD
ENDROOT
BRANCH   1  23
HETATM   23  C2  UNL     1      17.886   3.729  51.504  1.00  0.00     0.036 C 
HETATM   24  C1  UNL     1      18.068   4.271  50.079  1.00  0.00     0.010 C 
ENDBRANCH   1  23
BRANCH   6  25
HETATM   25  N1  UNL     1      16.944   0.948  51.358  1.00  0.00    -0.377 N 
HETATM   26  C9  UNL     1      15.844   1.040  52.295  1.00  0.00     0.153 C 
HETATM   27  C10 UNL     1      15.246  -0.321  52.461  1.00  0.00     0.293 C 
HETATM   28  N2  UNL     1      15.685  -1.271  51.479  1.00  0.00     0.100 N 
HETATM   29  C14 UNL     1      15.766  -0.741  50.156  1.00  0.00     0.293 C 
HETATM   30  C15 UNL     1      16.710   0.415  50.055  1.00  0.00     0.153 C 
BRANCH  28  31
HETATM   31  C11 UNL     1      14.901  -2.446  51.586  1.00  0.00     0.270 C 
HETATM   32  C12 UNL     1      15.425  -3.448  52.591  1.00  0.00     0.205 C 
HETATM   33  O1  UNL     1      14.085  -3.829  52.787  1.00  0.00    -0.387 OA
HETATM   34  C13 UNL     1      13.746  -2.480  52.524  1.00  0.00     0.205 C 
ENDBRANCH  28  31
ENDBRANCH   6  25
TORSDOF 3
ENDMDL
MODEL 9
REMARK VINA RESULT:      -9.0      2.056      3.239
REMARK  3 active torsions:
REMARK  status: ('A' for Active; 'I' for Inactive)
REMARK    1  A    between atoms: C2_2  and  C3_3 
REMARK    2  A    between atoms: C8_8  and  N1_9 
REMARK    3  A    between atoms: N2_12  and  C11_13 
ROOT
HETATM    1  C3  UNL     1      23.479   3.870  51.395  1.00  0.00    -0.031 A 
HETATM    2  C4  UNL     1      22.133   4.081  51.210  1.00  0.00     0.025 A 
HETATM    3  C5  UNL     1      21.278   3.098  51.656  1.00  0.00     0.022 A 
HETATM    4  C6  UNL     1      21.694   1.918  52.274  1.00  0.00    -0.041 A 
HETATM    5  C7  UNL     1      23.058   1.743  52.441  1.00  0.00     0.038 A 
HETATM    6  C8  UNL     1      23.941   2.723  52.000  1.00  0.00     0.037 A 
HETATM    7  C16 UNL     1      20.755   0.872  52.750  1.00  0.00     0.050 C 
HETATM    8  C17 UNL     1      19.790   0.410  51.684  1.00  0.00     0.036 C 
HETATM    9  C18 UNL     1      20.518   0.475  50.357  1.00  0.00     0.017 C 
HETATM   10  C19 UNL     1      18.552   1.288  51.629  1.00  0.00     0.025 C 
HETATM   11  C20 UNL     1      18.734   2.624  51.484  1.00  0.00     0.046 C 
HETATM   12  C21 UNL     1      19.899   3.530  51.358  1.00  0.00     0.195 C 
HETATM   13  O2  UNL     1      19.646   4.704  50.981  1.00  0.00    -0.287 OA
HETATM   14  C22 UNL     1      17.350   3.152  51.497  1.00  0.00    -0.014 A 
HETATM   15  C23 UNL     1      16.550   4.163  51.757  1.00  0.00     0.012 A 
HETATM   16  C24 UNL     1      15.219   3.625  51.408  1.00  0.00     0.021 A 
HETATM   17  C25 UNL     1      15.269   2.357  50.965  1.00  0.00     0.049 A 
HETATM   18  C26 UNL     1      14.155   1.556  50.558  1.00  0.00     0.097 C 
HETATM   19  N3  UNL     1      13.245   0.906  50.239  1.00  0.00    -0.192 NA
HETATM   20  C27 UNL     1      16.653   1.961  50.893  1.00  0.00     0.160 A 
HETATM   21  N4  UNL     1      17.157   0.909  51.720  1.00  0.00    -0.379 N 
HETATM   22  H30 UNL     1      16.962   0.062  52.308  1.00  0.00     0.160 HD
ENDROOT
BRANCH   1  23
HETATM   23  C2  UNL     1      24.480   4.833  50.954  1.00  0.00     0.036 C 
HETATM   24  C1  UNL     1      24.645   4.640  49.441  1.00  0.00     0.010 C 
ENDBRANCH   1  23
BRANCH   6  25
HETATM   25  N1  UNL     1      25.277   2.337  52.289  1.00  0.00    -0.377 N 
HETATM   26  C9  UNL     1      26.260   1.848  51.346  1.00  0.00     0.153 C 
HETATM   27  C10 UNL     1      26.755   0.518  51.823  1.00  0.00     0.293 C 
HETATM   28  N2  UNL     1      26.383   0.212  53.175  1.00  0.00     0.100 N 
HETATM   29  C14 UNL     1      26.490   1.318  54.071  1.00  0.00     0.293 C 
HETATM   30  C15 UNL     1      25.633   2.475  53.664  1.00  0.00     0.153 C 
BRANCH  28  31
HETATM   31  C11 UNL     1      27.079  -0.947  53.596  1.00  0.00     0.270 C 
HETATM   32  C12 UNL     1      27.039  -2.087  52.603  1.00  0.00     0.205 C 
HETATM   33  O1  UNL     1      28.301  -2.458  53.101  1.00  0.00    -0.387 OA
HETATM   34  C13 UNL     1      28.534  -1.078  53.314  1.00  0.00     0.205 C 
ENDBRANCH  28  31
ENDBRANCH   6  25
TORSDOF 3
ENDMDL
