MODEL 1
REMARK VINA RESULT:      -8.4      0.000      0.000
REMARK  8 active torsions:
REMARK  status: ('A' for Active; 'I' for Inactive)
REMARK    1  A    between atoms: N1_2  and  C3_4 
REMARK    2  A    between atoms: C3_4  and  C4_5 
REMARK    3  A    between atoms: C5_6  and  C6_7 
REMARK       I    between atoms: C6_7  and  N2_9 
REMARK    4  A    between atoms: N2_9  and  C7_10 
REMARK    5  A    between atoms: C12_16  and  N4_17 
REMARK    6  A    between atoms: C13_18  and  O2_19 
REMARK    7  A    between atoms: O2_19  and  C14_20 
REMARK    8  A    between atoms: C14_20  and  C15_21 
ROOT
HETATM    1  C7  UNL     1      24.007   3.059  49.697  1.00  0.00     0.036 A 
HETATM    2  C8  UNL     1      22.997   2.970  48.734  1.00  0.00     0.032 A 
HETATM    3  C9  UNL     1      21.848   2.215  48.953  1.00  0.00     0.035 A 
HETATM    4  C10 UNL     1      21.693   1.525  50.159  1.00  0.00     0.069 A 
HETATM    5  N3  UNL     1      20.619   0.780  50.437  1.00  0.00    -0.258 NA
HETATM    6  C11 UNL     1      20.499   0.120  51.624  1.00  0.00     0.149 A 
HETATM    7  C12 UNL     1      21.517   0.227  52.559  1.00  0.00     0.078 A 
HETATM    8  C13 UNL     1      22.650   1.000  52.288  1.00  0.00     0.109 A 
HETATM    9  C21 UNL     1      22.719   1.647  51.071  1.00  0.00     0.030 A 
HETATM   10  C22 UNL     1      23.862   2.389  50.872  1.00  0.00     0.046 A 
ENDROOT
BRANCH   1  11
HETATM   11  N2  UNL     1      25.065   3.886  49.228  1.00  0.00    -0.316 N 
HETATM   12  C6  UNL     1      26.441   3.677  49.443  1.00  0.00     0.301 C 
HETATM   13  O1  UNL     1      26.807   2.667  50.113  1.00  0.00    -0.258 OA
HETATM   14  H9  UNL     1      24.764   4.710  48.679  1.00  0.00     0.170 HD
BRANCH  12  15
HETATM   15  C5  UNL     1      27.422   4.594  48.913  1.00  0.00    -0.004 C 
HETATM   16  C4  UNL     1      28.237   5.356  48.449  1.00  0.00    -0.066 C 
BRANCH  16  17
HETATM   17  C3  UNL     1      29.217   6.281  47.863  1.00  0.00     0.365 C 
BRANCH  17  18
HETATM   18  N1  UNL     1      30.470   6.138  48.579  1.00  0.00     0.090 N 
HETATM   19  C1  UNL     1      30.958   7.466  48.883  1.00  0.00     0.310 C 
HETATM   20  C2  UNL     1      31.412   5.532  47.657  1.00  0.00     0.310 C 
ENDBRANCH  17  18
ENDBRANCH  16  17
ENDBRANCH  12  15
ENDBRANCH   1  11
BRANCH   8  21
HETATM   21  O2  UNL     1      23.633   1.051  53.296  1.00  0.00    -0.343 OA
BRANCH  21  22
HETATM   22  C14 UNL     1      24.543  -0.029  53.396  1.00  0.00     0.214 C 
BRANCH  22  23
HETATM   23  C15 UNL     1      25.962   0.401  53.460  1.00  0.00    -0.033 A 
HETATM   24  C16 UNL     1      26.202   1.779  53.520  1.00  0.00     0.009 A 
HETATM   25  C17 UNL     1      27.474   2.285  53.583  1.00  0.00     0.002 A 
HETATM   26  C18 UNL     1      28.558   1.426  53.590  1.00  0.00     0.019 A 
HETATM   27  C19 UNL     1      28.293   0.085  53.531  1.00  0.00     0.011 A 
HETATM   28 BR1  UNL     1      29.810  -1.076  53.542  1.00  0.00    -0.051 Br
HETATM   29  C20 UNL     1      27.041  -0.489  53.465  1.00  0.00     0.028 A 
ENDBRANCH  22  23
ENDBRANCH  21  22
ENDBRANCH   8  21
BRANCH   7  30
HETATM   30  N4  UNL     1      21.379  -0.474  53.810  1.00  0.00    -0.396 N 
HETATM   31  H13 UNL     1      22.272  -0.163  54.253  1.00  0.00     0.156 HD
HETATM   32  H14 UNL     1      20.495  -1.032  53.878  1.00  0.00     0.156 HD
ENDBRANCH   7  30
TORSDOF 8
ENDMDL
MODEL 2
REMARK VINA RESULT:      -8.1      2.614      4.751
REMARK  8 active torsions:
REMARK  status: ('A' for Active; 'I' for Inactive)
REMARK    1  A    between atoms: N1_2  and  C3_4 
REMARK    2  A    between atoms: C3_4  and  C4_5 
REMARK    3  A    between atoms: C5_6  and  C6_7 
REMARK       I    between atoms: C6_7  and  N2_9 
REMARK    4  A    between atoms: N2_9  and  C7_10 
REMARK    5  A    between atoms: C12_16  and  N4_17 
REMARK    6  A    between atoms: C13_18  and  O2_19 
REMARK    7  A    between atoms: O2_19  and  C14_20 
REMARK    8  A    between atoms: C14_20  and  C15_21 
ROOT
HETATM    1  C7  UNL     1      25.904   2.317  51.643  1.00  0.00     0.036 A 
HETATM    2  C8  UNL     1      26.689   1.226  52.030  1.00  0.00     0.032 A 
HETATM    3  C9  UNL     1      26.152   0.164  52.753  1.00  0.00     0.035 A 
HETATM    4  C10 UNL     1      24.800   0.182  53.106  1.00  0.00     0.069 A 
HETATM    5  N3  UNL     1      24.216  -0.801  53.799  1.00  0.00    -0.258 NA
HETATM    6  C11 UNL     1      22.894  -0.752  54.127  1.00  0.00     0.149 A 
HETATM    7  C12 UNL     1      22.142   0.343  53.729  1.00  0.00     0.078 A 
HETATM    8  C13 UNL     1      22.732   1.382  53.004  1.00  0.00     0.109 A 
HETATM    9  C21 UNL     1      24.074   1.281  52.699  1.00  0.00     0.030 A 
HETATM   10  C22 UNL     1      24.588   2.340  51.984  1.00  0.00     0.046 A 
ENDROOT
BRANCH   1  11
HETATM   11  N2  UNL     1      26.690   3.258  50.921  1.00  0.00    -0.316 N 
HETATM   12  C6  UNL     1      26.432   3.731  49.619  1.00  0.00     0.301 C 
HETATM   13  O1  UNL     1      25.413   3.299  49.004  1.00  0.00    -0.258 OA
HETATM   14  H9  UNL     1      27.522   3.612  51.425  1.00  0.00     0.170 HD
BRANCH  12  15
HETATM   15  C5  UNL     1      27.309   4.690  48.991  1.00  0.00    -0.004 C 
HETATM   16  C4  UNL     1      28.059   5.487  48.480  1.00  0.00    -0.066 C 
BRANCH  16  17
HETATM   17  C3  UNL     1      28.990   6.448  47.870  1.00  0.00     0.365 C 
BRANCH  17  18
HETATM   18  N1  UNL     1      30.283   6.306  48.512  1.00  0.00     0.090 N 
HETATM   19  C1  UNL     1      30.952   7.588  48.440  1.00  0.00     0.310 C 
HETATM   20  C2  UNL     1      31.049   5.373  47.707  1.00  0.00     0.310 C 
ENDBRANCH  17  18
ENDBRANCH  16  17
ENDBRANCH  12  15
ENDBRANCH   1  11
BRANCH   8  21
HETATM   21  O2  UNL     1      21.891   2.453  52.643  1.00  0.00    -0.343 OA
BRANCH  21  22
HETATM   22  C14 UNL     1      20.893   2.219  51.666  1.00  0.00     0.214 C 
BRANCH  22  23
HETATM   23  C15 UNL     1      21.372   2.421  50.276  1.00  0.00    -0.033 A 
HETATM   24  C16 UNL     1      21.457   1.283  49.465  1.00  0.00     0.009 A 
HETATM   25  C17 UNL     1      21.885   1.356  48.166  1.00  0.00     0.002 A 
HETATM   26  C18 UNL     1      22.244   2.577  47.626  1.00  0.00     0.019 A 
HETATM   27  C19 UNL     1      22.150   3.672  48.441  1.00  0.00     0.011 A 
HETATM   28 BR1  UNL     1      22.654   5.345  47.667  1.00  0.00    -0.051 Br
HETATM   29  C20 UNL     1      21.730   3.669  49.754  1.00  0.00     0.028 A 
ENDBRANCH  22  23
ENDBRANCH  21  22
ENDBRANCH   8  21
BRANCH   7  30
HETATM   30  N4  UNL     1      20.745   0.382  54.080  1.00  0.00    -0.396 N 
HETATM   31  H13 UNL     1      20.848   0.755  55.051  1.00  0.00     0.156 HD
HETATM   32  H14 UNL     1      20.114   0.050  53.313  1.00  0.00     0.156 HD
ENDBRANCH   7  30
TORSDOF 8
ENDMDL
MODEL 3
REMARK VINA RESULT:      -7.9      3.752      9.063
REMARK  8 active torsions:
REMARK  status: ('A' for Active; 'I' for Inactive)
REMARK    1  A    between atoms: N1_2  and  C3_4 
REMARK    2  A    between atoms: C3_4  and  C4_5 
REMARK    3  A    between atoms: C5_6  and  C6_7 
REMARK       I    between atoms: C6_7  and  N2_9 
REMARK    4  A    between atoms: N2_9  and  C7_10 
REMARK    5  A    between atoms: C12_16  and  N4_17 
REMARK    6  A    between atoms: C13_18  and  O2_19 
REMARK    7  A    between atoms: O2_19  and  C14_20 
REMARK    8  A    between atoms: C14_20  and  C15_21 
ROOT
HETATM    1  C7  UNL     1      22.509  -0.716  53.642  1.00  0.00     0.036 A 
HETATM    2  C8  UNL     1      22.686  -1.288  54.906  1.00  0.00     0.032 A 
HETATM    3  C9  UNL     1      23.914  -1.242  55.560  1.00  0.00     0.035 A 
HETATM    4  C10 UNL     1      25.001  -0.613  54.946  1.00  0.00     0.069 A 
HETATM    5  N3  UNL     1      26.209  -0.532  55.513  1.00  0.00    -0.258 NA
HETATM    6  C11 UNL     1      27.249   0.089  54.886  1.00  0.00     0.149 A 
HETATM    7  C12 UNL     1      27.043   0.646  53.633  1.00  0.00     0.078 A 
HETATM    8  C13 UNL     1      25.788   0.572  53.022  1.00  0.00     0.109 A 
HETATM    9  C21 UNL     1      24.771  -0.068  53.701  1.00  0.00     0.030 A 
HETATM   10  C22 UNL     1      23.564  -0.103  53.040  1.00  0.00     0.046 A 
ENDROOT
BRANCH   1  11
HETATM   11  N2  UNL     1      21.170  -0.901  53.200  1.00  0.00    -0.316 N 
HETATM   12  C6  UNL     1      20.249   0.119  52.892  1.00  0.00     0.301 C 
HETATM   13  O1  UNL     1      20.613   1.326  53.008  1.00  0.00    -0.258 OA
HETATM   14  H9  UNL     1      20.874  -1.888  53.104  1.00  0.00     0.170 HD
BRANCH  12  15
HETATM   15  C5  UNL     1      18.911  -0.199  52.451  1.00  0.00    -0.004 C 
HETATM   16  C4  UNL     1      17.787  -0.470  52.102  1.00  0.00    -0.066 C 
BRANCH  16  17
HETATM   17  C3  UNL     1      16.412  -0.803  51.701  1.00  0.00     0.365 C 
BRANCH  17  18
HETATM   18  N1  UNL     1      15.498  -0.220  52.665  1.00  0.00     0.090 N 
HETATM   19  C1  UNL     1      14.223  -0.890  52.523  1.00  0.00     0.310 C 
HETATM   20  C2  UNL     1      15.305   1.164  52.276  1.00  0.00     0.310 C 
ENDBRANCH  17  18
ENDBRANCH  16  17
ENDBRANCH  12  15
ENDBRANCH   1  11
BRANCH   8  21
HETATM   21  O2  UNL     1      25.671   1.166  51.750  1.00  0.00    -0.343 OA
BRANCH  21  22
HETATM   22  C14 UNL     1      25.287   2.527  51.681  1.00  0.00     0.214 C 
BRANCH  22  23
HETATM   23  C15 UNL     1      24.253   2.794  50.649  1.00  0.00    -0.033 A 
HETATM   24  C16 UNL     1      24.481   3.877  49.792  1.00  0.00     0.009 A 
HETATM   25  C17 UNL     1      23.594   4.211  48.804  1.00  0.00     0.002 A 
HETATM   26  C18 UNL     1      22.438   3.470  48.635  1.00  0.00     0.019 A 
HETATM   27  C19 UNL     1      22.242   2.417  49.488  1.00  0.00     0.011 A 
HETATM   28 BR1  UNL     1      20.638   1.412  49.230  1.00  0.00    -0.051 Br
HETATM   29  C20 UNL     1      23.092   2.028  50.500  1.00  0.00     0.028 A 
ENDBRANCH  22  23
ENDBRANCH  21  22
ENDBRANCH   8  21
BRANCH   7  30
HETATM   30  N4  UNL     1      28.149   1.301  52.981  1.00  0.00    -0.396 N 
HETATM   31  H13 UNL     1      27.601   1.990  52.419  1.00  0.00     0.156 HD
HETATM   32  H14 UNL     1      29.082   0.910  53.254  1.00  0.00     0.156 HD
ENDBRANCH   7  30
TORSDOF 8
ENDMDL
MODEL 4
REMARK VINA RESULT:      -7.8      2.136      2.548
REMARK  8 active torsions:
REMARK  status: ('A' for Active; 'I' for Inactive)
REMARK    1  A    between atoms: N1_2  and  C3_4 
REMARK    2  A    between atoms: C3_4  and  C4_5 
REMARK    3  A    between atoms: C5_6  and  C6_7 
REMARK       I    between atoms: C6_7  and  N2_9 
REMARK    4  A    between atoms: N2_9  and  C7_10 
REMARK    5  A    between atoms: C12_16  and  N4_17 
REMARK    6  A    between atoms: C13_18  and  O2_19 
REMARK    7  A    between atoms: O2_19  and  C14_20 
REMARK    8  A    between atoms: C14_20  and  C15_21 
ROOT
HETATM    1  C7  UNL     1      23.502   3.595  51.634  1.00  0.00     0.036 A 
HETATM    2  C8  UNL     1      22.191   3.963  51.314  1.00  0.00     0.032 A 
HETATM    3  C9  UNL     1      21.101   3.211  51.744  1.00  0.00     0.035 A 
HETATM    4  C10 UNL     1      21.312   2.062  52.511  1.00  0.00     0.069 A 
HETATM    5  N3  UNL     1      20.314   1.292  52.956  1.00  0.00    -0.258 NA
HETATM    6  C11 UNL     1      20.555   0.177  53.703  1.00  0.00     0.149 A 
HETATM    7  C12 UNL     1      21.865  -0.161  54.003  1.00  0.00     0.078 A 
HETATM    8  C13 UNL     1      22.924   0.629  53.547  1.00  0.00     0.109 A 
HETATM    9  C21 UNL     1      22.623   1.747  52.795  1.00  0.00     0.030 A 
HETATM   10  C22 UNL     1      23.713   2.478  52.380  1.00  0.00     0.046 A 
ENDROOT
BRANCH   1  11
HETATM   11  N2  UNL     1      24.425   4.524  51.076  1.00  0.00    -0.316 N 
HETATM   12  C6  UNL     1      25.148   4.359  49.879  1.00  0.00     0.301 C 
HETATM   13  O1  UNL     1      24.986   3.297  49.210  1.00  0.00    -0.258 OA
HETATM   14  H9  UNL     1      24.555   5.393  51.624  1.00  0.00     0.170 HD
BRANCH  12  15
HETATM   15  C5  UNL     1      26.059   5.379  49.417  1.00  0.00    -0.004 C 
HETATM   16  C4  UNL     1      26.820   6.225  49.010  1.00  0.00    -0.066 C 
BRANCH  16  17
HETATM   17  C3  UNL     1      27.743   7.245  48.493  1.00  0.00     0.365 C 
BRANCH  17  18
HETATM   18  N1  UNL     1      27.101   8.542  48.600  1.00  0.00     0.090 N 
HETATM   19  C1  UNL     1      27.856   9.475  47.791  1.00  0.00     0.310 C 
HETATM   20  C2  UNL     1      27.236   8.962  49.983  1.00  0.00     0.310 C 
ENDBRANCH  17  18
ENDBRANCH  16  17
ENDBRANCH  12  15
ENDBRANCH   1  11
BRANCH   8  21
HETATM   21  O2  UNL     1      24.221   0.209  53.900  1.00  0.00    -0.343 OA
BRANCH  21  22
HETATM   22  C14 UNL     1      24.933  -0.603  52.983  1.00  0.00     0.214 C 
BRANCH  22  23
HETATM   23  C15 UNL     1      26.405  -0.542  53.164  1.00  0.00    -0.033 A 
HETATM   24  C16 UNL     1      27.126  -1.705  52.870  1.00  0.00     0.009 A 
HETATM   25  C17 UNL     1      28.489  -1.758  53.000  1.00  0.00     0.002 A 
HETATM   26  C18 UNL     1      29.185  -0.643  53.431  1.00  0.00     0.019 A 
HETATM   27  C19 UNL     1      28.453   0.480  53.711  1.00  0.00     0.011 A 
HETATM   28 BR1  UNL     1      29.441   2.004  54.305  1.00  0.00    -0.051 Br
HETATM   29  C20 UNL     1      27.084   0.600  53.603  1.00  0.00     0.028 A 
ENDBRANCH  22  23
ENDBRANCH  21  22
ENDBRANCH   8  21
BRANCH   7  30
HETATM   30  N4  UNL     1      22.107  -1.342  54.794  1.00  0.00    -0.396 N 
HETATM   31  H13 UNL     1      22.468  -0.871  55.654  1.00  0.00     0.156 HD
HETATM   32  H14 UNL     1      21.864  -2.231  54.298  1.00  0.00     0.156 HD
ENDBRANCH   7  30
TORSDOF 8
ENDMDL
MODEL 5
REMARK VINA RESULT:      -7.8      2.576      5.182
REMARK  8 active torsions:
REMARK  status: ('A' for Active; 'I' for Inactive)
REMARK    1  A    between atoms: N1_2  and  C3_4 
REMARK    2  A    between atoms: C3_4  and  C4_5 
REMARK    3  A    between atoms: C5_6  and  C6_7 
REMARK       I    between atoms: C6_7  and  N2_9 
REMARK    4  A    between atoms: N2_9  and  C7_10 
REMARK    5  A    between atoms: C12_16  and  N4_17 
REMARK    6  A    between atoms: C13_18  and  O2_19 
REMARK    7  A    between atoms: O2_19  and  C14_20 
REMARK    8  A    between atoms: C14_20  and  C15_21 
ROOT
HETATM    1  C7  UNL     1      26.319   2.077  52.249  1.00  0.00     0.036 A 
HETATM    2  C8  UNL     1      27.375   1.532  52.988  1.00  0.00     0.032 A 
HETATM    3  C9  UNL     1      27.160   0.533  53.934  1.00  0.00     0.035 A 
HETATM    4  C10 UNL     1      25.864   0.059  54.157  1.00  0.00     0.069 A 
HETATM    5  N3  UNL     1      25.583  -0.896  55.049  1.00  0.00    -0.258 NA
HETATM    6  C11 UNL     1      24.306  -1.336  55.242  1.00  0.00     0.149 A 
HETATM    7  C12 UNL     1      23.282  -0.777  54.494  1.00  0.00     0.078 A 
HETATM    8  C13 UNL     1      23.553   0.224  53.557  1.00  0.00     0.109 A 
HETATM    9  C21 UNL     1      24.863   0.632  53.402  1.00  0.00     0.030 A 
HETATM   10  C22 UNL     1      25.056   1.619  52.463  1.00  0.00     0.046 A 
ENDROOT
BRANCH   1  11
HETATM   11  N2  UNL     1      26.804   3.074  51.358  1.00  0.00    -0.316 N 
HETATM   12  C6  UNL     1      26.190   3.487  50.160  1.00  0.00     0.301 C 
HETATM   13  O1  UNL     1      25.101   2.942  49.813  1.00  0.00    -0.258 OA
HETATM   14  H9  UNL     1      27.693   3.520  51.644  1.00  0.00     0.170 HD
BRANCH  12  15
HETATM   15  C5  UNL     1      26.785   4.515  49.338  1.00  0.00    -0.004 C 
HETATM   16  C4  UNL     1      27.284   5.387  48.667  1.00  0.00    -0.066 C 
BRANCH  16  17
HETATM   17  C3  UNL     1      27.897   6.460  47.871  1.00  0.00     0.365 C 
BRANCH  17  18
HETATM   18  N1  UNL     1      29.216   6.735  48.409  1.00  0.00     0.090 N 
HETATM   19  C1  UNL     1      29.698   7.951  47.790  1.00  0.00     0.310 C 
HETATM   20  C2  UNL     1      30.080   5.655  47.970  1.00  0.00     0.310 C 
ENDBRANCH  17  18
ENDBRANCH  16  17
ENDBRANCH  12  15
ENDBRANCH   1  11
BRANCH   8  21
HETATM   21  O2  UNL     1      22.451   0.734  52.843  1.00  0.00    -0.343 OA
BRANCH  21  22
HETATM   22  C14 UNL     1      21.888  -0.068  51.821  1.00  0.00     0.214 C 
BRANCH  22  23
HETATM   23  C15 UNL     1      21.244   0.721  50.742  1.00  0.00    -0.033 A 
HETATM   24  C16 UNL     1      19.849   0.827  50.782  1.00  0.00     0.009 A 
HETATM   25  C17 UNL     1      19.153   1.533  49.836  1.00  0.00     0.002 A 
HETATM   26  C18 UNL     1      19.832   2.164  48.810  1.00  0.00     0.019 A 
HETATM   27  C19 UNL     1      21.196   2.043  48.796  1.00  0.00     0.011 A 
HETATM   28 BR1  UNL     1      22.105   2.925  47.366  1.00  0.00    -0.051 Br
HETATM   29  C20 UNL     1      21.955   1.349  49.713  1.00  0.00     0.028 A 
ENDBRANCH  22  23
ENDBRANCH  21  22
ENDBRANCH   8  21
BRANCH   7  30
HETATM   30  N4  UNL     1      21.938  -1.250  54.707  1.00  0.00    -0.396 N 
HETATM   31  H13 UNL     1      21.521  -0.916  53.809  1.00  0.00     0.156 HD
HETATM   32  H14 UNL     1      21.810  -1.742  55.623  1.00  0.00     0.156 HD
ENDBRANCH   7  30
TORSDOF 8
ENDMDL
MODEL 6
REMARK VINA RESULT:      -7.7      3.445      8.889
REMARK  8 active torsions:
REMARK  status: ('A' for Active; 'I' for Inactive)
REMARK    1  A    between atoms: N1_2  and  C3_4 
REMARK    2  A    between atoms: C3_4  and  C4_5 
REMARK    3  A    between atoms: C5_6  and  C6_7 
REMARK       I    between atoms: C6_7  and  N2_9 
REMARK    4  A    between atoms: N2_9  and  C7_10 
REMARK    5  A    between atoms: C12_16  and  N4_17 
REMARK    6  A    between atoms: C13_18  and  O2_19 
REMARK    7  A    between atoms: O2_19  and  C14_20 
REMARK    8  A    between atoms: C14_20  and  C15_21 
ROOT
HETATM    1  C7  UNL     1      23.065   0.062  52.902  1.00  0.00     0.036 A 
HETATM    2  C8  UNL     1      23.262  -1.002  53.789  1.00  0.00     0.032 A 
HETATM    3  C9  UNL     1      24.452  -1.146  54.497  1.00  0.00     0.035 A 
HETATM    4  C10 UNL     1      25.479  -0.214  54.322  1.00  0.00     0.069 A 
HETATM    5  N3  UNL     1      26.647  -0.290  54.967  1.00  0.00    -0.258 NA
HETATM    6  C11 UNL     1      27.628   0.638  54.773  1.00  0.00     0.149 A 
HETATM    7  C12 UNL     1      27.403   1.680  53.887  1.00  0.00     0.078 A 
HETATM    8  C13 UNL     1      26.188   1.778  53.202  1.00  0.00     0.109 A 
HETATM    9  C21 UNL     1      25.231   0.812  53.436  1.00  0.00     0.030 A 
HETATM   10  C22 UNL     1      24.060   0.972  52.728  1.00  0.00     0.046 A 
ENDROOT
BRANCH   1  11
HETATM   11  N2  UNL     1      21.773  -0.022  52.311  1.00  0.00    -0.316 N 
HETATM   12  C6  UNL     1      20.552   0.299  52.934  1.00  0.00     0.301 C 
HETATM   13  O1  UNL     1      20.567   0.705  54.133  1.00  0.00    -0.258 OA
HETATM   14  H9  UNL     1      21.763  -0.353  51.330  1.00  0.00     0.170 HD
BRANCH  12  15
HETATM   15  C5  UNL     1      19.301   0.171  52.225  1.00  0.00    -0.004 C 
HETATM   16  C4  UNL     1      18.247   0.050  51.647  1.00  0.00    -0.066 C 
BRANCH  16  17
HETATM   17  C3  UNL     1      16.955  -0.107  50.963  1.00  0.00     0.365 C 
BRANCH  17  18
HETATM   18  N1  UNL     1      16.109  -0.964  51.772  1.00  0.00     0.090 N 
HETATM   19  C1  UNL     1      15.096  -1.526  50.904  1.00  0.00     0.310 C 
HETATM   20  C2  UNL     1      15.432  -0.104  52.725  1.00  0.00     0.310 C 
ENDBRANCH  17  18
ENDBRANCH  16  17
ENDBRANCH  12  15
ENDBRANCH   1  11
BRANCH   8  21
HETATM   21  O2  UNL     1      26.048   2.870  52.322  1.00  0.00    -0.343 OA
BRANCH  21  22
HETATM   22  C14 UNL     1      26.226   2.638  50.937  1.00  0.00     0.214 C 
BRANCH  22  23
HETATM   23  C15 UNL     1      25.445   3.564  50.081  1.00  0.00    -0.033 A 
HETATM   24  C16 UNL     1      24.152   3.160  49.728  1.00  0.00     0.009 A 
HETATM   25  C17 UNL     1      23.343   3.939  48.943  1.00  0.00     0.002 A 
HETATM   26  C18 UNL     1      23.801   5.160  48.480  1.00  0.00     0.019 A 
HETATM   27  C19 UNL     1      25.069   5.529  48.840  1.00  0.00     0.011 A 
HETATM   28 BR1  UNL     1      25.674   7.218  48.185  1.00  0.00    -0.051 Br
HETATM   29  C20 UNL     1      25.932   4.794  49.624  1.00  0.00     0.028 A 
ENDBRANCH  22  23
ENDBRANCH  21  22
ENDBRANCH   8  21
BRANCH   7  30
HETATM   30  N4  UNL     1      28.447   2.654  53.692  1.00  0.00    -0.396 N 
HETATM   31  H13 UNL     1      29.131   2.039  53.198  1.00  0.00     0.156 HD
HETATM   32  H14 UNL     1      28.210   3.599  54.077  1.00  0.00     0.156 HD
ENDBRANCH   7  30
TORSDOF 8
ENDMDL
MODEL 7
REMARK VINA RESULT:      -7.7      2.925      4.190
REMARK  8 active torsions:
REMARK  status: ('A' for Active; 'I' for Inactive)
REMARK    1  A    between atoms: N1_2  and  C3_4 
REMARK    2  A    between atoms: C3_4  and  C4_5 
REMARK    3  A    between atoms: C5_6  and  C6_7 
REMARK       I    between atoms: C6_7  and  N2_9 
REMARK    4  A    between atoms: N2_9  and  C7_10 
REMARK    5  A    between atoms: C12_16  and  N4_17 
REMARK    6  A    between atoms: C13_18  and  O2_19 
REMARK    7  A    between atoms: O2_19  and  C14_20 
REMARK    8  A    between atoms: C14_20  and  C15_21 
ROOT
HETATM    1  C7  UNL     1      26.078   6.463  49.296  1.00  0.00     0.036 A 
HETATM    2  C8  UNL     1      25.375   7.516  48.702  1.00  0.00     0.032 A 
HETATM    3  C9  UNL     1      24.015   7.705  48.935  1.00  0.00     0.035 A 
HETATM    4  C10 UNL     1      23.329   6.827  49.780  1.00  0.00     0.069 A 
HETATM    5  N3  UNL     1      22.025   6.946  50.048  1.00  0.00    -0.258 NA
HETATM    6  C11 UNL     1      21.387   6.072  50.877  1.00  0.00     0.149 A 
HETATM    7  C12 UNL     1      22.111   5.039  51.451  1.00  0.00     0.078 A 
HETATM    8  C13 UNL     1      23.475   4.894  51.183  1.00  0.00     0.109 A 
HETATM    9  C21 UNL     1      24.071   5.808  50.337  1.00  0.00     0.030 A 
HETATM   10  C22 UNL     1      25.415   5.605  50.118  1.00  0.00     0.046 A 
ENDROOT
BRANCH   1  11
HETATM   11  N2  UNL     1      27.443   6.493  48.895  1.00  0.00    -0.316 N 
HETATM   12  C6  UNL     1      28.231   5.378  48.550  1.00  0.00     0.301 C 
HETATM   13  O1  UNL     1      27.709   4.225  48.588  1.00  0.00    -0.258 OA
HETATM   14  H9  UNL     1      27.868   7.436  48.863  1.00  0.00     0.170 HD
BRANCH  12  15
HETATM   15  C5  UNL     1      29.612   5.540  48.158  1.00  0.00    -0.004 C 
HETATM   16  C4  UNL     1      30.765   5.656  47.819  1.00  0.00    -0.066 C 
BRANCH  16  17
HETATM   17  C3  UNL     1      32.166   5.780  47.392  1.00  0.00     0.365 C 
BRANCH  17  18
HETATM   18  N1  UNL     1      32.975   4.891  48.204  1.00  0.00     0.090 N 
HETATM   19  C1  UNL     1      34.362   5.257  48.009  1.00  0.00     0.310 C 
HETATM   20  C2  UNL     1      32.800   3.556  47.664  1.00  0.00     0.310 C 
ENDBRANCH  17  18
ENDBRANCH  16  17
ENDBRANCH  12  15
ENDBRANCH   1  11
BRANCH   8  21
HETATM   21  O2  UNL     1      24.130   3.815  51.810  1.00  0.00    -0.343 OA
BRANCH  21  22
HETATM   22  C14 UNL     1      24.187   2.579  51.122  1.00  0.00     0.214 C 
BRANCH  22  23
HETATM   23  C15 UNL     1      24.410   1.417  52.019  1.00  0.00    -0.033 A 
HETATM   24  C16 UNL     1      25.707   0.890  52.058  1.00  0.00     0.009 A 
HETATM   25  C17 UNL     1      26.024  -0.180  52.853  1.00  0.00     0.002 A 
HETATM   26  C18 UNL     1      25.050  -0.765  53.642  1.00  0.00     0.019 A 
HETATM   27  C19 UNL     1      23.793  -0.228  53.583  1.00  0.00     0.011 A 
HETATM   28 BR1  UNL     1      22.469  -1.058  54.684  1.00  0.00    -0.051 Br
HETATM   29  C20 UNL     1      23.407   0.843  52.807  1.00  0.00     0.028 A 
ENDBRANCH  22  23
ENDBRANCH  21  22
ENDBRANCH   8  21
BRANCH   7  30
HETATM   30  N4  UNL     1      21.425   4.122  52.326  1.00  0.00    -0.396 N 
HETATM   31  H13 UNL     1      21.759   4.510  53.237  1.00  0.00     0.156 HD
HETATM   32  H14 UNL     1      20.852   3.409  51.815  1.00  0.00     0.156 HD
ENDBRANCH   7  30
TORSDOF 8
ENDMDL
MODEL 8
REMARK VINA RESULT:      -7.7      2.782      4.762
REMARK  8 active torsions:
REMARK  status: ('A' for Active; 'I' for Inactive)
REMARK    1  A    between atoms: N1_2  and  C3_4 
REMARK    2  A    between atoms: C3_4  and  C4_5 
REMARK    3  A    between atoms: C5_6  and  C6_7 
REMARK       I    between atoms: C6_7  and  N2_9 
REMARK    4  A    between atoms: N2_9  and  C7_10 
REMARK    5  A    between atoms: C12_16  and  N4_17 
REMARK    6  A    between atoms: C13_18  and  O2_19 
REMARK    7  A    between atoms: O2_19  and  C14_20 
REMARK    8  A    between atoms: C14_20  and  C15_21 
ROOT
HETATM    1  C7  UNL     1      25.794   2.122  51.600  1.00  0.00     0.036 A 
HETATM    2  C8  UNL     1      26.580   1.246  52.356  1.00  0.00     0.032 A 
HETATM    3  C9  UNL     1      26.006   0.272  53.169  1.00  0.00     0.035 A 
HETATM    4  C10 UNL     1      24.615   0.161  53.238  1.00  0.00     0.069 A 
HETATM    5  N3  UNL     1      23.995  -0.749  53.996  1.00  0.00    -0.258 NA
HETATM    6  C11 UNL     1      22.634  -0.830  54.040  1.00  0.00     0.149 A 
HETATM    7  C12 UNL     1      21.883   0.052  53.279  1.00  0.00     0.078 A 
HETATM    8  C13 UNL     1      22.510   1.011  52.479  1.00  0.00     0.109 A 
HETATM    9  C21 UNL     1      23.890   1.049  52.473  1.00  0.00     0.030 A 
HETATM   10  C22 UNL     1      24.440   2.018  51.663  1.00  0.00     0.046 A 
ENDROOT
BRANCH   1  11
HETATM   11  N2  UNL     1      26.621   3.015  50.862  1.00  0.00    -0.316 N 
HETATM   12  C6  UNL     1      26.252   3.720  49.701  1.00  0.00     0.301 C 
HETATM   13  O1  UNL     1      25.081   3.570  49.241  1.00  0.00    -0.258 OA
HETATM   14  H9  UNL     1      27.577   3.137  51.240  1.00  0.00     0.170 HD
BRANCH  12  15
HETATM   15  C5  UNL     1      27.186   4.600  49.040  1.00  0.00    -0.004 C 
HETATM   16  C4  UNL     1      27.972   5.346  48.506  1.00  0.00    -0.066 C 
BRANCH  16  17
HETATM   17  C3  UNL     1      28.937   6.261  47.878  1.00  0.00     0.365 C 
BRANCH  17  18
HETATM   18  N1  UNL     1      30.209   6.128  48.562  1.00  0.00     0.090 N 
HETATM   19  C1  UNL     1      30.878   7.410  48.500  1.00  0.00     0.310 C 
HETATM   20  C2  UNL     1      31.002   5.189  47.791  1.00  0.00     0.310 C 
ENDBRANCH  17  18
ENDBRANCH  16  17
ENDBRANCH  12  15
ENDBRANCH   1  11
BRANCH   8  21
HETATM   21  O2  UNL     1      21.667   1.865  51.741  1.00  0.00    -0.343 OA
BRANCH  21  22
HETATM   22  C14 UNL     1      21.179   3.033  52.375  1.00  0.00     0.214 C 
BRANCH  22  23
HETATM   23  C15 UNL     1      21.447   4.274  51.607  1.00  0.00    -0.033 A 
HETATM   24  C16 UNL     1      20.411   4.749  50.793  1.00  0.00     0.009 A 
HETATM   25  C17 UNL     1      20.550   5.887  50.043  1.00  0.00     0.002 A 
HETATM   26  C18 UNL     1      21.737   6.596  50.080  1.00  0.00     0.019 A 
HETATM   27  C19 UNL     1      22.731   6.108  50.884  1.00  0.00     0.011 A 
HETATM   28 BR1  UNL     1      24.359   7.109  50.914  1.00  0.00    -0.051 Br
HETATM   29  C20 UNL     1      22.657   4.973  51.661  1.00  0.00     0.028 A 
ENDBRANCH  22  23
ENDBRANCH  21  22
ENDBRANCH   8  21
BRANCH   7  30
HETATM   30  N4  UNL     1      20.446  -0.045  53.334  1.00  0.00    -0.396 N 
HETATM   31  H13 UNL     1      20.317  -0.744  52.569  1.00  0.00     0.156 HD
HETATM   32  H14 UNL     1      20.015   0.568  54.065  1.00  0.00     0.156 HD
ENDBRANCH   7  30
TORSDOF 8
ENDMDL
MODEL 9
REMARK VINA RESULT:      -7.6      3.163      5.654
REMARK  8 active torsions:
REMARK  status: ('A' for Active; 'I' for Inactive)
REMARK    1  A    between atoms: N1_2  and  C3_4 
REMARK    2  A    between atoms: C3_4  and  C4_5 
REMARK    3  A    between atoms: C5_6  and  C6_7 
REMARK       I    between atoms: C6_7  and  N2_9 
REMARK    4  A    between atoms: N2_9  and  C7_10 
REMARK    5  A    between atoms: C12_16  and  N4_17 
REMARK    6  A    between atoms: C13_18  and  O2_19 
REMARK    7  A    between atoms: O2_19  and  C14_20 
REMARK    8  A    between atoms: C14_20  and  C15_21 
ROOT
HETATM    1  C7  UNL     1      26.413   2.130  52.165  1.00  0.00     0.036 A 
HETATM    2  C8  UNL     1      27.383   1.698  53.076  1.00  0.00     0.032 A 
HETATM    3  C9  UNL     1      27.097   0.734  54.039  1.00  0.00     0.035 A 
HETATM    4  C10 UNL     1      25.815   0.181  54.105  1.00  0.00     0.069 A 
HETATM    5  N3  UNL     1      25.469  -0.747  55.003  1.00  0.00    -0.258 NA
HETATM    6  C11 UNL     1      24.208  -1.266  55.039  1.00  0.00     0.149 A 
HETATM    7  C12 UNL     1      23.269  -0.817  54.124  1.00  0.00     0.078 A 
HETATM    8  C13 UNL     1      23.609   0.153  53.177  1.00  0.00     0.109 A 
HETATM    9  C21 UNL     1      24.900   0.644  53.184  1.00  0.00     0.030 A 
HETATM   10  C22 UNL     1      25.164   1.596  52.225  1.00  0.00     0.046 A 
ENDROOT
BRANCH   1  11
HETATM   11  N2  UNL     1      26.959   3.115  51.295  1.00  0.00    -0.316 N 
HETATM   12  C6  UNL     1      26.425   3.513  50.054  1.00  0.00     0.301 C 
HETATM   13  O1  UNL     1      25.360   2.965  49.643  1.00  0.00    -0.258 OA
HETATM   14  H9  UNL     1      27.828   3.563  51.632  1.00  0.00     0.170 HD
BRANCH  12  15
HETATM   15  C5  UNL     1      27.075   4.528  49.258  1.00  0.00    -0.004 C 
HETATM   16  C4  UNL     1      27.636   5.365  48.593  1.00  0.00    -0.066 C 
BRANCH  16  17
HETATM   17  C3  UNL     1      28.338   6.368  47.779  1.00  0.00     0.365 C 
BRANCH  17  18
HETATM   18  N1  UNL     1      29.623   6.642  48.394  1.00  0.00     0.090 N 
HETATM   19  C1  UNL     1      30.058   7.946  47.941  1.00  0.00     0.310 C 
HETATM   20  C2  UNL     1      30.557   5.667  47.865  1.00  0.00     0.310 C 
ENDBRANCH  17  18
ENDBRANCH  16  17
ENDBRANCH  12  15
ENDBRANCH   1  11
BRANCH   8  21
HETATM   21  O2  UNL     1      22.591   0.549  52.287  1.00  0.00    -0.343 OA
BRANCH  21  22
HETATM   22  C14 UNL     1      21.802   1.673  52.632  1.00  0.00     0.214 C 
BRANCH  22  23
HETATM   23  C15 UNL     1      20.409   1.590  52.127  1.00  0.00    -0.033 A 
HETATM   24  C16 UNL     1      19.946   0.322  51.755  1.00  0.00     0.009 A 
HETATM   25  C17 UNL     1      18.676   0.132  51.278  1.00  0.00     0.002 A 
HETATM   26  C18 UNL     1      17.817   1.210  51.155  1.00  0.00     0.019 A 
HETATM   27  C19 UNL     1      18.297   2.436  51.527  1.00  0.00     0.011 A 
HETATM   28 BR1  UNL     1      17.088   3.905  51.346  1.00  0.00    -0.051 Br
HETATM   29  C20 UNL     1      19.560   2.696  52.012  1.00  0.00     0.028 A 
ENDBRANCH  22  23
ENDBRANCH  21  22
ENDBRANCH   8  21
BRANCH   7  30
HETATM   30  N4  UNL     1      21.941  -1.374  54.172  1.00  0.00    -0.396 N 
HETATM   31  H13 UNL     1      21.851  -1.448  55.210  1.00  0.00     0.156 HD
HETATM   32  H14 UNL     1      21.516  -1.518  53.226  1.00  0.00     0.156 HD
ENDBRANCH   7  30
TORSDOF 8
ENDMDL
