MODEL 1
REMARK VINA RESULT:      -6.4      0.000      0.000
REMARK  6 active torsions:
REMARK  status: ('A' for Active; 'I' for Inactive)
REMARK    1  A    between atoms: O1_2  and  C2_3 
REMARK    2  A    between atoms: C2_3  and  N1_4 
REMARK    3  A    between atoms: N1_4  and  C3_5 
REMARK    4  A    between atoms: C5_10  and  N4_11 
REMARK    5  A    between atoms: N4_11  and  P1_12 
REMARK    6  A    between atoms: C8_15  and  O2_16 
ROOT
HETATM    1  C3  UNL     1      26.256  -0.148  54.282  1.00  0.00     0.742 A 
HETATM    2  N2  UNL     1      25.263  -0.819  54.934  1.00  0.00    -0.030 NA
HETATM    3  C4  UNL     1      24.024  -0.741  54.483  1.00  0.00     0.259 A 
HETATM    4 CL1  UNL     1      22.772  -1.618  55.345  1.00  0.00    -0.040 Cl
HETATM    5  N3  UNL     1      23.797  -0.002  53.398  1.00  0.00    -0.028 NA
HETATM    6  C5  UNL     1      24.740   0.678  52.722  1.00  0.00     0.766 A 
HETATM    7  N5  UNL     1      25.993   0.589  53.192  1.00  0.00     0.132 NA
ENDROOT
BRANCH   6   8
HETATM    8  N4  UNL     1      24.199   1.376  51.609  1.00  0.00    -0.067 NA
BRANCH   8   9
HETATM    9  P1  UNL     1      24.956   2.707  51.201  1.00  0.00     0.077 P 
HETATM   10  C6  UNL     1      26.317   2.609  50.325  1.00  0.00     0.037 A 
HETATM   11  C7  UNL     1      26.706   3.854  49.628  1.00  0.00     0.039 A 
HETATM   12  C8  UNL     1      26.020   4.959  49.701  1.00  0.00     0.068 A 
HETATM   13  C10 UNL     1      24.792   5.232  50.429  1.00  0.00     0.039 A 
HETATM   14  C11 UNL     1      24.162   4.332  51.166  1.00  0.00     0.037 A 
BRANCH  12  15
HETATM   15  O2  UNL     1      26.544   6.040  48.973  1.00  0.00    -0.356 OA
HETATM   16  C9  UNL     1      26.383   7.378  49.443  1.00  0.00     0.210 C 
ENDBRANCH  12  15
ENDBRANCH   8   9
ENDBRANCH   6   8
BRANCH   1  17
HETATM   17  N1  UNL     1      27.628  -0.102  54.632  1.00  0.00    -0.201 N 
HETATM   18  H6  UNL     1      27.645  -1.088  55.044  1.00  0.00     0.180 HD
BRANCH  17  19
HETATM   19  C2  UNL     1      28.866   0.637  54.661  1.00  0.00     0.308 C 
BRANCH  19  20
HETATM   20  O1  UNL     1      29.700   0.171  53.677  1.00  0.00    -0.376 OA
HETATM   21  C1  UNL     1      29.761  -1.205  53.552  1.00  0.00     0.203 C 
ENDBRANCH  19  20
ENDBRANCH  17  19
ENDBRANCH   1  17
TORSDOF 6
ENDMDL
MODEL 2
REMARK VINA RESULT:      -6.2      4.100      6.047
REMARK  6 active torsions:
REMARK  status: ('A' for Active; 'I' for Inactive)
REMARK    1  A    between atoms: O1_2  and  C2_3 
REMARK    2  A    between atoms: C2_3  and  N1_4 
REMARK    3  A    between atoms: N1_4  and  C3_5 
REMARK    4  A    between atoms: C5_10  and  N4_11 
REMARK    5  A    between atoms: N4_11  and  P1_12 
REMARK    6  A    between atoms: C8_15  and  O2_16 
ROOT
HETATM    1  C3  UNL     1      26.665   1.911  53.086  1.00  0.00     0.742 A 
HETATM    2  N2  UNL     1      27.094   2.296  51.850  1.00  0.00    -0.030 NA
HETATM    3  C4  UNL     1      26.219   2.769  50.980  1.00  0.00     0.259 A 
HETATM    4 CL1  UNL     1      26.805   3.257  49.398  1.00  0.00    -0.040 Cl
HETATM    5  N3  UNL     1      24.943   2.850  51.353  1.00  0.00    -0.028 NA
HETATM    6  C5  UNL     1      24.472   2.482  52.558  1.00  0.00     0.766 A 
HETATM    7  N5  UNL     1      25.372   2.004  53.431  1.00  0.00     0.132 NA
ENDROOT
BRANCH   6   8
HETATM    8  N4  UNL     1      23.070   2.683  52.666  1.00  0.00    -0.067 NA
BRANCH   8   9
HETATM    9  P1  UNL     1      22.190   1.365  52.698  1.00  0.00     0.077 P 
HETATM   10  C6  UNL     1      22.437   0.275  53.872  1.00  0.00     0.037 A 
HETATM   11  C7  UNL     1      21.323  -0.674  54.091  1.00  0.00     0.039 A 
HETATM   12  C8  UNL     1      20.218  -0.652  53.403  1.00  0.00     0.068 A 
HETATM   13  C10 UNL     1      19.825   0.240  52.325  1.00  0.00     0.039 A 
HETATM   14  C11 UNL     1      20.589   1.218  51.868  1.00  0.00     0.037 A 
BRANCH  12  15
HETATM   15  O2  UNL     1      19.274  -1.631  53.752  1.00  0.00    -0.356 OA
HETATM   16  C9  UNL     1      17.932  -1.550  53.272  1.00  0.00     0.210 C 
ENDBRANCH  12  15
ENDBRANCH   8   9
ENDBRANCH   6   8
BRANCH   1  17
HETATM   17  N1  UNL     1      27.452   1.367  54.131  1.00  0.00    -0.201 N 
HETATM   18  H6  UNL     1      26.791   1.683  54.910  1.00  0.00     0.180 HD
BRANCH  17  19
HETATM   19  C2  UNL     1      28.636   0.650  54.533  1.00  0.00     0.308 C 
BRANCH  19  20
HETATM   20  O1  UNL     1      28.509  -0.672  54.192  1.00  0.00    -0.376 OA
HETATM   21  C1  UNL     1      29.553  -1.197  53.454  1.00  0.00     0.203 C 
ENDBRANCH  19  20
ENDBRANCH  17  19
ENDBRANCH   1  17
TORSDOF 6
ENDMDL
MODEL 3
REMARK VINA RESULT:      -6.2      1.690      2.365
REMARK  6 active torsions:
REMARK  status: ('A' for Active; 'I' for Inactive)
REMARK    1  A    between atoms: O1_2  and  C2_3 
REMARK    2  A    between atoms: C2_3  and  N1_4 
REMARK    3  A    between atoms: N1_4  and  C3_5 
REMARK    4  A    between atoms: C5_10  and  N4_11 
REMARK    5  A    between atoms: N4_11  and  P1_12 
REMARK    6  A    between atoms: C8_15  and  O2_16 
ROOT
HETATM    1  C3  UNL     1      25.866   1.906  53.262  1.00  0.00     0.742 A 
HETATM    2  N2  UNL     1      25.084   0.844  53.610  1.00  0.00    -0.030 NA
HETATM    3  C4  UNL     1      23.968   0.616  52.941  1.00  0.00     0.259 A 
HETATM    4 CL1  UNL     1      22.986  -0.761  53.415  1.00  0.00    -0.040 Cl
HETATM    5  N3  UNL     1      23.653   1.442  51.945  1.00  0.00    -0.028 NA
HETATM    6  C5  UNL     1      24.390   2.501  51.565  1.00  0.00     0.766 A 
HETATM    7  N5  UNL     1      25.520   2.721  52.253  1.00  0.00     0.132 NA
ENDROOT
BRANCH   6   8
HETATM    8  N4  UNL     1      23.801   3.196  50.475  1.00  0.00    -0.067 NA
BRANCH   8   9
HETATM    9  P1  UNL     1      24.807   4.007  49.556  1.00  0.00     0.077 P 
HETATM   10  C6  UNL     1      24.453   5.536  49.151  1.00  0.00     0.037 A 
HETATM   11  C7  UNL     1      25.601   6.344  48.685  1.00  0.00     0.039 A 
HETATM   12  C8  UNL     1      26.815   5.879  48.600  1.00  0.00     0.068 A 
HETATM   13  C10 UNL     1      27.315   4.552  48.915  1.00  0.00     0.039 A 
HETATM   14  C11 UNL     1      26.551   3.568  49.362  1.00  0.00     0.037 A 
BRANCH  12  15
HETATM   15  O2  UNL     1      27.776   6.792  48.137  1.00  0.00    -0.356 OA
HETATM   16  C9  UNL     1      27.378   7.991  47.471  1.00  0.00     0.210 C 
ENDBRANCH  12  15
ENDBRANCH   8   9
ENDBRANCH   6   8
BRANCH   1  17
HETATM   17  N1  UNL     1      27.077   2.312  53.875  1.00  0.00    -0.201 N 
HETATM   18  H6  UNL     1      26.601   2.750  54.726  1.00  0.00     0.180 HD
BRANCH  17  19
HETATM   19  C2  UNL     1      28.517   2.373  53.832  1.00  0.00     0.308 C 
BRANCH  19  20
HETATM   20  O1  UNL     1      29.039   1.579  54.821  1.00  0.00    -0.376 OA
HETATM   21  C1  UNL     1      28.870   0.219  54.640  1.00  0.00     0.203 C 
ENDBRANCH  19  20
ENDBRANCH  17  19
ENDBRANCH   1  17
TORSDOF 6
ENDMDL
MODEL 4
REMARK VINA RESULT:      -6.0      1.954      2.369
REMARK  6 active torsions:
REMARK  status: ('A' for Active; 'I' for Inactive)
REMARK    1  A    between atoms: O1_2  and  C2_3 
REMARK    2  A    between atoms: C2_3  and  N1_4 
REMARK    3  A    between atoms: N1_4  and  C3_5 
REMARK    4  A    between atoms: C5_10  and  N4_11 
REMARK    5  A    between atoms: N4_11  and  P1_12 
REMARK    6  A    between atoms: C8_15  and  O2_16 
ROOT
HETATM    1  C3  UNL     1      24.997  -0.314  54.073  1.00  0.00     0.742 A 
HETATM    2  N2  UNL     1      23.861  -0.883  54.571  1.00  0.00    -0.030 NA
HETATM    3  C4  UNL     1      22.708  -0.661  53.966  1.00  0.00     0.259 A 
HETATM    4 CL1  UNL     1      21.266  -1.409  54.632  1.00  0.00    -0.040 Cl
HETATM    5  N3  UNL     1      22.706   0.117  52.885  1.00  0.00    -0.028 NA
HETATM    6  C5  UNL     1      23.797   0.699  52.357  1.00  0.00     0.766 A 
HETATM    7  N5  UNL     1      24.961   0.465  52.982  1.00  0.00     0.132 NA
ENDROOT
BRANCH   6   8
HETATM    8  N4  UNL     1      23.486   1.471  51.206  1.00  0.00    -0.067 NA
BRANCH   8   9
HETATM    9  P1  UNL     1      23.366   3.034  51.440  1.00  0.00     0.077 P 
HETATM   10  C6  UNL     1      24.503   4.016  50.831  1.00  0.00     0.037 A 
HETATM   11  C7  UNL     1      24.105   5.436  50.707  1.00  0.00     0.039 A 
HETATM   12  C8  UNL     1      22.934   5.883  51.057  1.00  0.00     0.068 A 
HETATM   13  C10 UNL     1      21.803   5.161  51.616  1.00  0.00     0.039 A 
HETATM   14  C11 UNL     1      21.813   3.861  51.860  1.00  0.00     0.037 A 
BRANCH  12  15
HETATM   15  O2  UNL     1      22.736   7.261  50.868  1.00  0.00    -0.356 OA
HETATM   16  C9  UNL     1      21.466   7.763  50.454  1.00  0.00     0.210 C 
ENDBRANCH  12  15
ENDBRANCH   8   9
ENDBRANCH   6   8
BRANCH   1  17
HETATM   17  N1  UNL     1      26.308  -0.426  54.599  1.00  0.00    -0.201 N 
HETATM   18  H6  UNL     1      26.064  -1.221  55.271  1.00  0.00     0.180 HD
BRANCH  17  19
HETATM   19  C2  UNL     1      27.674   0.035  54.604  1.00  0.00     0.308 C 
BRANCH  19  20
HETATM   20  O1  UNL     1      28.495  -0.958  54.134  1.00  0.00    -0.376 OA
HETATM   21  C1  UNL     1      29.750  -0.547  53.726  1.00  0.00     0.203 C 
ENDBRANCH  19  20
ENDBRANCH  17  19
ENDBRANCH   1  17
TORSDOF 6
ENDMDL
MODEL 5
REMARK VINA RESULT:      -5.9      4.173      7.374
REMARK  6 active torsions:
REMARK  status: ('A' for Active; 'I' for Inactive)
REMARK    1  A    between atoms: O1_2  and  C2_3 
REMARK    2  A    between atoms: C2_3  and  N1_4 
REMARK    3  A    between atoms: N1_4  and  C3_5 
REMARK    4  A    between atoms: C5_10  and  N4_11 
REMARK    5  A    between atoms: N4_11  and  P1_12 
REMARK    6  A    between atoms: C8_15  and  O2_16 
ROOT
HETATM    1  C3  UNL     1      25.405   7.545  50.440  1.00  0.00     0.742 A 
HETATM    2  N2  UNL     1      24.134   8.032  50.522  1.00  0.00    -0.030 NA
HETATM    3  C4  UNL     1      23.114   7.213  50.338  1.00  0.00     0.259 A 
HETATM    4 CL1  UNL     1      21.491   7.873  50.452  1.00  0.00    -0.040 Cl
HETATM    5  N3  UNL     1      23.376   5.934  50.077  1.00  0.00    -0.028 NA
HETATM    6  C5  UNL     1      24.610   5.407  49.985  1.00  0.00     0.766 A 
HETATM    7  N5  UNL     1      25.636   6.250  50.175  1.00  0.00     0.132 NA
ENDROOT
BRANCH   6   8
HETATM    8  N4  UNL     1      24.576   4.016  49.696  1.00  0.00    -0.067 NA
BRANCH   8   9
HETATM    9  P1  UNL     1      25.050   3.061  50.869  1.00  0.00     0.077 P 
HETATM   10  C6  UNL     1      26.600   2.590  50.930  1.00  0.00     0.037 A 
HETATM   11  C7  UNL     1      27.052   2.087  52.246  1.00  0.00     0.039 A 
HETATM   12  C8  UNL     1      26.277   2.019  53.290  1.00  0.00     0.068 A 
HETATM   13  C10 UNL     1      24.878   2.391  53.422  1.00  0.00     0.039 A 
HETATM   14  C11 UNL     1      24.154   2.882  52.430  1.00  0.00     0.037 A 
BRANCH  12  15
HETATM   15  O2  UNL     1      26.880   1.515  54.454  1.00  0.00    -0.356 OA
HETATM   16  C9  UNL     1      26.533   0.222  54.950  1.00  0.00     0.210 C 
ENDBRANCH  12  15
ENDBRANCH   8   9
ENDBRANCH   6   8
BRANCH   1  17
HETATM   17  N1  UNL     1      26.610   8.276  50.589  1.00  0.00    -0.201 N 
HETATM   18  H6  UNL     1      26.861   7.838  51.531  1.00  0.00     0.180 HD
BRANCH  17  19
HETATM   19  C2  UNL     1      27.530   9.252  50.060  1.00  0.00     0.308 C 
BRANCH  19  20
HETATM   20  O1  UNL     1      28.390   8.642  49.182  1.00  0.00    -0.376 OA
HETATM   21  C1  UNL     1      29.697   9.089  49.226  1.00  0.00     0.203 C 
ENDBRANCH  19  20
ENDBRANCH  17  19
ENDBRANCH   1  17
TORSDOF 6
ENDMDL
MODEL 6
REMARK VINA RESULT:      -5.9      3.844      6.396
REMARK  6 active torsions:
REMARK  status: ('A' for Active; 'I' for Inactive)
REMARK    1  A    between atoms: O1_2  and  C2_3 
REMARK    2  A    between atoms: C2_3  and  N1_4 
REMARK    3  A    between atoms: N1_4  and  C3_5 
REMARK    4  A    between atoms: C5_10  and  N4_11 
REMARK    5  A    between atoms: N4_11  and  P1_12 
REMARK    6  A    between atoms: C8_15  and  O2_16 
ROOT
HETATM    1  C3  UNL     1      26.763   2.222  51.587  1.00  0.00     0.742 A 
HETATM    2  N2  UNL     1      27.885   2.411  52.339  1.00  0.00    -0.030 NA
HETATM    3  C4  UNL     1      27.990   1.807  53.509  1.00  0.00     0.259 A 
HETATM    4 CL1  UNL     1      29.449   2.072  54.450  1.00  0.00    -0.040 Cl
HETATM    5  N3  UNL     1      26.984   1.031  53.907  1.00  0.00    -0.028 NA
HETATM    6  C5  UNL     1      25.858   0.814  53.204  1.00  0.00     0.766 A 
HETATM    7  N5  UNL     1      25.766   1.434  52.018  1.00  0.00     0.132 NA
ENDROOT
BRANCH   6   8
HETATM    8  N4  UNL     1      24.965  -0.057  53.882  1.00  0.00    -0.067 NA
BRANCH   8   9
HETATM    9  P1  UNL     1      23.470  -0.053  53.355  1.00  0.00     0.077 P 
HETATM   10  C6  UNL     1      22.468  -1.246  53.803  1.00  0.00     0.037 A 
HETATM   11  C7  UNL     1      21.028  -0.948  53.646  1.00  0.00     0.039 A 
HETATM   12  C8  UNL     1      20.577   0.183  53.183  1.00  0.00     0.068 A 
HETATM   13  C10 UNL     1      21.316   1.353  52.737  1.00  0.00     0.039 A 
HETATM   14  C11 UNL     1      22.637   1.431  52.741  1.00  0.00     0.037 A 
BRANCH  12  15
HETATM   15  O2  UNL     1      19.179   0.286  53.105  1.00  0.00    -0.356 OA
HETATM   16  C9  UNL     1      18.379  -0.868  52.847  1.00  0.00     0.210 C 
ENDBRANCH  12  15
ENDBRANCH   8   9
ENDBRANCH   6   8
BRANCH   1  17
HETATM   17  N1  UNL     1      26.472   2.800  50.327  1.00  0.00    -0.201 N 
HETATM   18  H6  UNL     1      26.207   1.872  49.865  1.00  0.00     0.180 HD
BRANCH  17  19
HETATM   19  C2  UNL     1      26.396   3.981  49.504  1.00  0.00     0.308 C 
BRANCH  19  20
HETATM   20  O1  UNL     1      27.600   4.181  48.877  1.00  0.00    -0.376 OA
HETATM   21  C1  UNL     1      27.844   5.477  48.462  1.00  0.00     0.203 C 
ENDBRANCH  19  20
ENDBRANCH  17  19
ENDBRANCH   1  17
TORSDOF 6
ENDMDL
MODEL 7
REMARK VINA RESULT:      -5.8      3.378      4.400
REMARK  6 active torsions:
REMARK  status: ('A' for Active; 'I' for Inactive)
REMARK    1  A    between atoms: O1_2  and  C2_3 
REMARK    2  A    between atoms: C2_3  and  N1_4 
REMARK    3  A    between atoms: N1_4  and  C3_5 
REMARK    4  A    between atoms: C5_10  and  N4_11 
REMARK    5  A    between atoms: N4_11  and  P1_12 
REMARK    6  A    between atoms: C8_15  and  O2_16 
ROOT
HETATM    1  C3  UNL     1      25.317  -0.592  53.837  1.00  0.00     0.742 A 
HETATM    2  N2  UNL     1      26.631  -0.915  54.014  1.00  0.00    -0.030 NA
HETATM    3  C4  UNL     1      27.555  -0.260  53.333  1.00  0.00     0.259 A 
HETATM    4 CL1  UNL     1      29.236  -0.700  53.586  1.00  0.00    -0.040 Cl
HETATM    5  N3  UNL     1      27.158   0.696  52.496  1.00  0.00    -0.028 NA
HETATM    6  C5  UNL     1      25.877   1.049  52.287  1.00  0.00     0.766 A 
HETATM    7  N5  UNL     1      24.950   0.376  52.985  1.00  0.00     0.132 NA
ENDROOT
BRANCH   6   8
HETATM    8  N4  UNL     1      25.761   2.099  51.337  1.00  0.00    -0.067 NA
BRANCH   8   9
HETATM    9  P1  UNL     1      24.347   2.812  51.272  1.00  0.00     0.077 P 
HETATM   10  C6  UNL     1      23.872   3.746  52.509  1.00  0.00     0.037 A 
HETATM   11  C7  UNL     1      22.784   4.698  52.195  1.00  0.00     0.039 A 
HETATM   12  C8  UNL     1      22.236   4.794  51.018  1.00  0.00     0.068 A 
HETATM   13  C10 UNL     1      22.526   4.050  49.805  1.00  0.00     0.039 A 
HETATM   14  C11 UNL     1      23.453   3.108  49.727  1.00  0.00     0.037 A 
BRANCH  12  15
HETATM   15  O2  UNL     1      21.217   5.755  50.908  1.00  0.00    -0.356 OA
HETATM   16  C9  UNL     1      21.534   7.143  50.811  1.00  0.00     0.210 C 
ENDBRANCH  12  15
ENDBRANCH   8   9
ENDBRANCH   6   8
BRANCH   1  17
HETATM   17  N1  UNL     1      24.199  -1.196  54.463  1.00  0.00    -0.201 N 
HETATM   18  H6  UNL     1      24.070  -1.943  53.709  1.00  0.00     0.180 HD
BRANCH  17  19
HETATM   19  C2  UNL     1      23.270  -1.218  55.566  1.00  0.00     0.308 C 
BRANCH  19  20
HETATM   20  O1  UNL     1      22.202  -2.018  55.249  1.00  0.00    -0.376 OA
HETATM   21  C1  UNL     1      21.255  -1.444  54.422  1.00  0.00     0.203 C 
ENDBRANCH  19  20
ENDBRANCH  17  19
ENDBRANCH   1  17
TORSDOF 6
ENDMDL
MODEL 8
REMARK VINA RESULT:      -5.7      4.399      6.034
REMARK  6 active torsions:
REMARK  status: ('A' for Active; 'I' for Inactive)
REMARK    1  A    between atoms: O1_2  and  C2_3 
REMARK    2  A    between atoms: C2_3  and  N1_4 
REMARK    3  A    between atoms: N1_4  and  C3_5 
REMARK    4  A    between atoms: C5_10  and  N4_11 
REMARK    5  A    between atoms: N4_11  and  P1_12 
REMARK    6  A    between atoms: C8_15  and  O2_16 
ROOT
HETATM    1  C3  UNL     1      26.159   2.410  51.289  1.00  0.00     0.742 A 
HETATM    2  N2  UNL     1      27.024   3.103  50.493  1.00  0.00    -0.030 NA
HETATM    3  C4  UNL     1      26.543   3.889  49.547  1.00  0.00     0.259 A 
HETATM    4 CL1  UNL     1      27.683   4.768  48.541  1.00  0.00    -0.040 Cl
HETATM    5  N3  UNL     1      25.220   3.971  49.411  1.00  0.00    -0.028 NA
HETATM    6  C5  UNL     1      24.329   3.308  50.169  1.00  0.00     0.766 A 
HETATM    7  N5  UNL     1      24.832   2.514  51.126  1.00  0.00     0.132 NA
ENDROOT
BRANCH   6   8
HETATM    8  N4  UNL     1      22.990   3.594  49.791  1.00  0.00    -0.067 NA
BRANCH   8   9
HETATM    9  P1  UNL     1      21.877   2.697  50.477  1.00  0.00     0.077 P 
HETATM   10  C6  UNL     1      21.726   1.145  50.035  1.00  0.00     0.037 A 
HETATM   11  C7  UNL     1      21.000   0.286  50.996  1.00  0.00     0.039 A 
HETATM   12  C8  UNL     1      20.509   0.726  52.119  1.00  0.00     0.068 A 
HETATM   13  C10 UNL     1      20.546   2.068  52.675  1.00  0.00     0.039 A 
HETATM   14  C11 UNL     1      21.124   3.095  52.072  1.00  0.00     0.037 A 
BRANCH  12  15
HETATM   15  O2  UNL     1      19.851  -0.235  52.904  1.00  0.00    -0.356 OA
HETATM   16  C9  UNL     1      18.471  -0.529  52.687  1.00  0.00     0.210 C 
ENDBRANCH  12  15
ENDBRANCH   8   9
ENDBRANCH   6   8
BRANCH   1  17
HETATM   17  N1  UNL     1      26.494   1.513  52.333  1.00  0.00    -0.201 N 
HETATM   18  H6  UNL     1      27.107   0.889  51.718  1.00  0.00     0.180 HD
BRANCH  17  19
HETATM   19  C2  UNL     1      26.364   1.134  53.719  1.00  0.00     0.308 C 
BRANCH  19  20
HETATM   20  O1  UNL     1      27.473   1.547  54.412  1.00  0.00    -0.376 OA
HETATM   21  C1  UNL     1      28.383   0.554  54.722  1.00  0.00     0.203 C 
ENDBRANCH  19  20
ENDBRANCH  17  19
ENDBRANCH   1  17
TORSDOF 6
ENDMDL
MODEL 9
REMARK VINA RESULT:      -5.5      3.785      4.693
REMARK  6 active torsions:
REMARK  status: ('A' for Active; 'I' for Inactive)
REMARK    1  A    between atoms: O1_2  and  C2_3 
REMARK    2  A    between atoms: C2_3  and  N1_4 
REMARK    3  A    between atoms: N1_4  and  C3_5 
REMARK    4  A    between atoms: C5_10  and  N4_11 
REMARK    5  A    between atoms: N4_11  and  P1_12 
REMARK    6  A    between atoms: C8_15  and  O2_16 
ROOT
HETATM    1  C3  UNL     1      26.718   1.736  52.517  1.00  0.00     0.742 A 
HETATM    2  N2  UNL     1      27.124   2.352  51.369  1.00  0.00    -0.030 NA
HETATM    3  C4  UNL     1      26.287   3.150  50.732  1.00  0.00     0.259 A 
HETATM    4 CL1  UNL     1      26.843   3.927  49.259  1.00  0.00    -0.040 Cl
HETATM    5  N3  UNL     1      25.069   3.320  51.244  1.00  0.00    -0.028 NA
HETATM    6  C5  UNL     1      24.622   2.735  52.370  1.00  0.00     0.766 A 
HETATM    7  N5  UNL     1      25.483   1.928  53.007  1.00  0.00     0.132 NA
ENDROOT
BRANCH   6   8
HETATM    8  N4  UNL     1      23.283   3.105  52.667  1.00  0.00    -0.067 NA
BRANCH   8   9
HETATM    9  P1  UNL     1      22.224   2.820  51.523  1.00  0.00     0.077 P 
HETATM   10  C6  UNL     1      21.517   4.068  50.767  1.00  0.00     0.037 A 
HETATM   11  C7  UNL     1      20.903   3.744  49.461  1.00  0.00     0.039 A 
HETATM   12  C8  UNL     1      20.917   2.551  48.940  1.00  0.00     0.068 A 
HETATM   13  C10 UNL     1      21.494   1.325  49.465  1.00  0.00     0.039 A 
HETATM   14  C11 UNL     1      22.128   1.252  50.624  1.00  0.00     0.037 A 
BRANCH  12  15
HETATM   15  O2  UNL     1      20.283   2.434  47.692  1.00  0.00    -0.356 OA
HETATM   16  C9  UNL     1      20.200   3.554  46.810  1.00  0.00     0.210 C 
ENDBRANCH  12  15
ENDBRANCH   8   9
ENDBRANCH   6   8
BRANCH   1  17
HETATM   17  N1  UNL     1      27.469   0.839  53.316  1.00  0.00    -0.201 N 
HETATM   18  H6  UNL     1      28.149   0.576  52.535  1.00  0.00     0.180 HD
BRANCH  17  19
HETATM   19  C2  UNL     1      27.672   0.207  54.596  1.00  0.00     0.308 C 
BRANCH  19  20
HETATM   20  O1  UNL     1      28.997  -0.113  54.744  1.00  0.00    -0.376 OA
HETATM   21  C1  UNL     1      29.610  -0.634  53.620  1.00  0.00     0.203 C 
ENDBRANCH  19  20
ENDBRANCH  17  19
ENDBRANCH   1  17
TORSDOF 6
ENDMDL
