MODEL 1
REMARK VINA RESULT:      -8.4      0.000      0.000
REMARK  5 active torsions:
REMARK  status: ('A' for Active; 'I' for Inactive)
REMARK    1  A    between atoms: O1_2  and  C2_3 
REMARK    2  A    between atoms: C6_9  and  N2_10 
REMARK    3  A    between atoms: N2_10  and  C7_11 
REMARK    4  A    between atoms: C16_23  and  O2_24 
REMARK    5  A    between atoms: O2_24  and  O3_25 
ROOT
HETATM    1  C2  UNL     1      21.350   0.777  51.703  1.00  0.00     0.102 C 
HETATM    2  C3  UNL     1      21.554   1.450  50.599  1.00  0.00     0.033 C 
HETATM    3  C4  UNL     1      22.545   2.493  50.714  1.00  0.00     0.115 A 
HETATM    4  S1  UNL     1      23.413   3.068  49.274  1.00  0.00    -0.108 SA
HETATM    5  C5  UNL     1      25.036   3.573  49.801  1.00  0.00     0.164 A 
HETATM    6  N1  UNL     1      25.453   3.422  51.009  1.00  0.00    -0.235 NA
HETATM    7  C6  UNL     1      24.668   2.857  52.048  1.00  0.00     0.151 A 
HETATM    8  C14 UNL     1      23.420   2.456  51.878  1.00  0.00     0.009 A 
HETATM    9  C15 UNL     1      23.032   1.699  53.096  1.00  0.00     0.055 C 
HETATM   10  C16 UNL     1      21.998   0.831  53.007  1.00  0.00     0.140 C 
ENDROOT
BRANCH   7  11
HETATM   11  N2  UNL     1      25.450   2.813  53.235  1.00  0.00    -0.169 N 
HETATM   12  H7  UNL     1      25.014   3.471  53.880  1.00  0.00     0.186 HD
BRANCH  11  13
HETATM   13  C7  UNL     1      26.598   1.995  53.425  1.00  0.00     0.747 A 
HETATM   14  N3  UNL     1      27.775   2.390  53.947  1.00  0.00     0.044 NA
HETATM   15  N4  UNL     1      28.793   1.572  54.089  1.00  0.00    -0.132 NA
HETATM   16  C8  UNL     1      28.660   0.277  53.700  1.00  0.00     0.109 A 
HETATM   17  C9  UNL     1      29.746  -0.582  53.855  1.00  0.00     0.036 A 
HETATM   18  C13 UNL     1      27.466  -0.183  53.154  1.00  0.00     0.106 A 
HETATM   19  C10 UNL     1      29.605  -1.906  53.453  1.00  0.00     0.003 A 
HETATM   20  C11 UNL     1      28.438  -2.396  52.909  1.00  0.00     0.002 A 
HETATM   21  C12 UNL     1      27.398  -1.502  52.779  1.00  0.00     0.035 A 
HETATM   22  N5  UNL     1      26.461   0.701  53.032  1.00  0.00    -0.059 NA
ENDBRANCH  11  13
ENDBRANCH   7  11
BRANCH  10  23
HETATM   23  O2  UNL     1      21.559   0.032  54.065  1.00  0.00    -0.197 OA
BRANCH  23  24
HETATM   24  O3  UNL     1      20.406   0.422  54.660  1.00  0.00    -0.245 OA
HETATM   25  H13 UNL     1      20.535   1.351  55.019  1.00  0.00     0.254 HD
ENDBRANCH  23  24
ENDBRANCH  10  23
BRANCH   1  26
HETATM   26  O1  UNL     1      20.351  -0.206  51.584  1.00  0.00    -0.353 OA
HETATM   27  C1  UNL     1      18.996   0.153  51.428  1.00  0.00     0.210 C 
ENDBRANCH   1  26
TORSDOF 5
ENDMDL
MODEL 2
REMARK VINA RESULT:      -8.1      5.211      7.070
REMARK  5 active torsions:
REMARK  status: ('A' for Active; 'I' for Inactive)
REMARK    1  A    between atoms: O1_2  and  C2_3 
REMARK    2  A    between atoms: C6_9  and  N2_10 
REMARK    3  A    between atoms: N2_10  and  C7_11 
REMARK    4  A    between atoms: C16_23  and  O2_24 
REMARK    5  A    between atoms: O2_24  and  O3_25 
ROOT
HETATM    1  C2  UNL     1      28.741   7.088  48.436  1.00  0.00     0.102 C 
HETATM    2  C3  UNL     1      27.728   7.836  48.792  1.00  0.00     0.033 C 
HETATM    3  C4  UNL     1      26.490   7.114  48.965  1.00  0.00     0.115 A 
HETATM    4  S1  UNL     1      25.212   7.764  50.017  1.00  0.00    -0.108 SA
HETATM    5  C5  UNL     1      24.346   6.375  50.716  1.00  0.00     0.164 A 
HETATM    6  N1  UNL     1      24.709   5.156  50.516  1.00  0.00    -0.235 NA
HETATM    7  C6  UNL     1      25.820   4.788  49.712  1.00  0.00     0.151 A 
HETATM    8  C14 UNL     1      26.572   5.664  49.068  1.00  0.00     0.009 A 
HETATM    9  C15 UNL     1      27.762   4.933  48.563  1.00  0.00     0.055 C 
HETATM   10  C16 UNL     1      28.871   5.648  48.262  1.00  0.00     0.140 C 
ENDROOT
BRANCH   7  11
HETATM   11  N2  UNL     1      25.949   3.372  49.740  1.00  0.00    -0.169 N 
HETATM   12  H7  UNL     1      25.987   3.078  48.764  1.00  0.00     0.186 HD
BRANCH  11  13
HETATM   13  C7  UNL     1      26.010   2.581  50.921  1.00  0.00     0.747 A 
HETATM   14  N3  UNL     1      24.984   1.909  51.478  1.00  0.00     0.044 NA
HETATM   15  N4  UNL     1      25.119   1.200  52.574  1.00  0.00    -0.132 NA
HETATM   16  C8  UNL     1      26.336   1.136  53.175  1.00  0.00     0.109 A 
HETATM   17  C9  UNL     1      26.468   0.380  54.338  1.00  0.00     0.036 A 
HETATM   18  C13 UNL     1      27.429   1.812  52.642  1.00  0.00     0.106 A 
HETATM   19  C10 UNL     1      27.716   0.319  54.949  1.00  0.00     0.003 A 
HETATM   20  C11 UNL     1      28.820   0.976  54.450  1.00  0.00     0.002 A 
HETATM   21  C12 UNL     1      28.631   1.708  53.298  1.00  0.00     0.035 A 
HETATM   22  N5  UNL     1      27.229   2.522  51.519  1.00  0.00    -0.059 NA
ENDBRANCH  11  13
ENDBRANCH   7  11
BRANCH  10  23
HETATM   23  O2  UNL     1      30.066   5.079  47.815  1.00  0.00    -0.197 OA
BRANCH  23  24
HETATM   24  O3  UNL     1      31.080   5.055  48.714  1.00  0.00    -0.245 OA
HETATM   25  H13 UNL     1      30.828   4.427  49.457  1.00  0.00     0.254 HD
ENDBRANCH  23  24
ENDBRANCH  10  23
BRANCH   1  26
HETATM   26  O1  UNL     1      29.928   7.814  48.229  1.00  0.00    -0.353 OA
HETATM   27  C1  UNL     1      30.453   8.648  49.238  1.00  0.00     0.210 C 
ENDBRANCH   1  26
TORSDOF 5
ENDMDL
MODEL 3
REMARK VINA RESULT:      -8.0      1.746      2.317
REMARK  5 active torsions:
REMARK  status: ('A' for Active; 'I' for Inactive)
REMARK    1  A    between atoms: O1_2  and  C2_3 
REMARK    2  A    between atoms: C6_9  and  N2_10 
REMARK    3  A    between atoms: N2_10  and  C7_11 
REMARK    4  A    between atoms: C16_23  and  O2_24 
REMARK    5  A    between atoms: O2_24  and  O3_25 
ROOT
HETATM    1  C2  UNL     1      18.915   0.173  51.736  1.00  0.00     0.102 C 
HETATM    2  C3  UNL     1      19.309   1.148  50.957  1.00  0.00     0.033 C 
HETATM    3  C4  UNL     1      20.605   1.690  51.294  1.00  0.00     0.115 A 
HETATM    4  S1  UNL     1      21.579   2.519  50.059  1.00  0.00    -0.108 SA
HETATM    5  C5  UNL     1      23.290   2.235  50.457  1.00  0.00     0.164 A 
HETATM    6  N1  UNL     1      23.662   1.473  51.425  1.00  0.00    -0.235 NA
HETATM    7  C6  UNL     1      22.757   0.795  52.284  1.00  0.00     0.151 A 
HETATM    8  C14 UNL     1      21.444   0.905  52.188  1.00  0.00     0.009 A 
HETATM    9  C15 UNL     1      20.851  -0.134  53.069  1.00  0.00     0.055 C 
HETATM   10  C16 UNL     1      19.577  -0.523  52.831  1.00  0.00     0.140 C 
ENDROOT
BRANCH   7  11
HETATM   11  N2  UNL     1      23.508   0.023  53.213  1.00  0.00    -0.169 N 
HETATM   12  H7  UNL     1      22.853  -0.650  53.609  1.00  0.00     0.186 HD
BRANCH  11  13
HETATM   13  C7  UNL     1      24.893   0.200  53.489  1.00  0.00     0.747 A 
HETATM   14  N3  UNL     1      25.453   1.277  54.072  1.00  0.00     0.044 NA
HETATM   15  N4  UNL     1      26.744   1.367  54.293  1.00  0.00    -0.132 NA
HETATM   16  C8  UNL     1      27.552   0.338  53.924  1.00  0.00     0.109 A 
HETATM   17  C9  UNL     1      28.921   0.444  54.162  1.00  0.00     0.036 A 
HETATM   18  C13 UNL     1      27.025  -0.798  53.317  1.00  0.00     0.106 A 
HETATM   19  C10 UNL     1      29.742  -0.611  53.782  1.00  0.00     0.003 A 
HETATM   20  C11 UNL     1      29.255  -1.751  53.179  1.00  0.00     0.002 A 
HETATM   21  C12 UNL     1      27.895  -1.801  52.967  1.00  0.00     0.035 A 
HETATM   22  N5  UNL     1      25.696  -0.831  53.117  1.00  0.00    -0.059 NA
ENDBRANCH  11  13
ENDBRANCH   7  11
BRANCH  10  23
HETATM   23  O2  UNL     1      18.918  -1.515  53.559  1.00  0.00    -0.197 OA
BRANCH  23  24
HETATM   24  O3  UNL     1      17.730  -1.156  54.105  1.00  0.00    -0.245 OA
HETATM   25  H13 UNL     1      17.017  -1.758  53.733  1.00  0.00     0.254 HD
ENDBRANCH  23  24
ENDBRANCH  10  23
BRANCH   1  26
HETATM   26  O1  UNL     1      17.634  -0.312  51.421  1.00  0.00    -0.353 OA
HETATM   27  C1  UNL     1      17.132  -0.235  50.105  1.00  0.00     0.210 C 
ENDBRANCH   1  26
TORSDOF 5
ENDMDL
MODEL 4
REMARK VINA RESULT:      -7.9      1.529      2.282
REMARK  5 active torsions:
REMARK  status: ('A' for Active; 'I' for Inactive)
REMARK    1  A    between atoms: O1_2  and  C2_3 
REMARK    2  A    between atoms: C6_9  and  N2_10 
REMARK    3  A    between atoms: N2_10  and  C7_11 
REMARK    4  A    between atoms: C16_23  and  O2_24 
REMARK    5  A    between atoms: O2_24  and  O3_25 
ROOT
HETATM    1  C2  UNL     1      20.148  -0.340  52.991  1.00  0.00     0.102 C 
HETATM    2  C3  UNL     1      19.919   0.215  51.827  1.00  0.00     0.033 C 
HETATM    3  C4  UNL     1      20.840   1.272  51.482  1.00  0.00     0.115 A 
HETATM    4  S1  UNL     1      21.117   1.700  49.779  1.00  0.00    -0.108 SA
HETATM    5  C5  UNL     1      22.798   2.269  49.644  1.00  0.00     0.164 A 
HETATM    6  N1  UNL     1      23.621   2.249  50.634  1.00  0.00    -0.235 NA
HETATM    7  C6  UNL     1      23.278   1.790  51.933  1.00  0.00     0.151 A 
HETATM    8  C14 UNL     1      22.069   1.365  52.257  1.00  0.00     0.009 A 
HETATM    9  C15 UNL     1      22.170   0.737  53.600  1.00  0.00     0.055 C 
HETATM   10  C16 UNL     1      21.211  -0.144  53.967  1.00  0.00     0.140 C 
ENDROOT
BRANCH   7  11
HETATM   11  N2  UNL     1      24.430   1.878  52.762  1.00  0.00    -0.169 N 
HETATM   12  H7  UNL     1      24.357   2.772  53.246  1.00  0.00     0.186 HD
BRANCH  11  13
HETATM   13  C7  UNL     1      25.444   0.884  52.857  1.00  0.00     0.747 A 
HETATM   14  N3  UNL     1      25.270  -0.443  52.703  1.00  0.00     0.044 NA
HETATM   15  N4  UNL     1      26.260  -1.299  52.807  1.00  0.00    -0.132 NA
HETATM   16  C8  UNL     1      27.509  -0.838  53.078  1.00  0.00     0.109 A 
HETATM   17  C9  UNL     1      28.552  -1.756  53.187  1.00  0.00     0.036 A 
HETATM   18  C13 UNL     1      27.744   0.523  53.247  1.00  0.00     0.106 A 
HETATM   19  C10 UNL     1      29.827  -1.278  53.466  1.00  0.00     0.003 A 
HETATM   20  C11 UNL     1      30.096   0.063  53.639  1.00  0.00     0.002 A 
HETATM   21  C12 UNL     1      29.028   0.924  53.521  1.00  0.00     0.035 A 
HETATM   22  N5  UNL     1      26.691   1.351  53.130  1.00  0.00    -0.059 NA
ENDBRANCH  11  13
ENDBRANCH   7  11
BRANCH  10  23
HETATM   23  O2  UNL     1      21.210  -0.830  55.183  1.00  0.00    -0.197 OA
BRANCH  23  24
HETATM   24  O3  UNL     1      21.756  -2.070  55.162  1.00  0.00    -0.245 OA
HETATM   25  H13 UNL     1      22.191  -2.238  56.052  1.00  0.00     0.254 HD
ENDBRANCH  23  24
ENDBRANCH  10  23
BRANCH   1  26
HETATM   26  O1  UNL     1      19.216  -1.337  53.329  1.00  0.00    -0.353 OA
HETATM   27  C1  UNL     1      17.829  -1.094  53.239  1.00  0.00     0.210 C 
ENDBRANCH   1  26
TORSDOF 5
ENDMDL
MODEL 5
REMARK VINA RESULT:      -7.8      3.004      7.017
REMARK  5 active torsions:
REMARK  status: ('A' for Active; 'I' for Inactive)
REMARK    1  A    between atoms: O1_2  and  C2_3 
REMARK    2  A    between atoms: C6_9  and  N2_10 
REMARK    3  A    between atoms: N2_10  and  C7_11 
REMARK    4  A    between atoms: C16_23  and  O2_24 
REMARK    5  A    between atoms: O2_24  and  O3_25 
ROOT
HETATM    1  C2  UNL     1      26.720  -0.134  53.390  1.00  0.00     0.102 C 
HETATM    2  C3  UNL     1      27.135   0.613  52.399  1.00  0.00     0.033 C 
HETATM    3  C4  UNL     1      26.077   1.270  51.668  1.00  0.00     0.115 A 
HETATM    4  S1  UNL     1      26.408   2.759  50.755  1.00  0.00    -0.108 SA
HETATM    5  C5  UNL     1      24.921   3.736  50.781  1.00  0.00     0.164 A 
HETATM    6  N1  UNL     1      23.874   3.393  51.447  1.00  0.00    -0.235 NA
HETATM    7  C6  UNL     1      23.785   2.201  52.213  1.00  0.00     0.151 A 
HETATM    8  C14 UNL     1      24.763   1.315  52.293  1.00  0.00     0.009 A 
HETATM    9  C15 UNL     1      24.402   0.359  53.372  1.00  0.00     0.055 C 
HETATM   10  C16 UNL     1      25.393  -0.362  53.946  1.00  0.00     0.140 C 
ENDROOT
BRANCH   7  11
HETATM   11  N2  UNL     1      22.508   2.158  52.837  1.00  0.00    -0.169 N 
HETATM   12  H7  UNL     1      22.643   2.538  53.773  1.00  0.00     0.186 HD
BRANCH  11  13
HETATM   13  C7  UNL     1      21.318   1.673  52.226  1.00  0.00     0.747 A 
HETATM   14  N3  UNL     1      20.838   2.042  51.023  1.00  0.00     0.044 NA
HETATM   15  N4  UNL     1      19.728   1.548  50.526  1.00  0.00    -0.132 NA
HETATM   16  C8  UNL     1      19.032   0.629  51.246  1.00  0.00     0.109 A 
HETATM   17  C9  UNL     1      17.855   0.111  50.709  1.00  0.00     0.036 A 
HETATM   18  C13 UNL     1      19.483   0.213  52.494  1.00  0.00     0.106 A 
HETATM   19  C10 UNL     1      17.147  -0.829  51.450  1.00  0.00     0.003 A 
HETATM   20  C11 UNL     1      17.564  -1.264  52.690  1.00  0.00     0.002 A 
HETATM   21  C12 UNL     1      18.734  -0.718  53.171  1.00  0.00     0.035 A 
HETATM   22  N5  UNL     1      20.625   0.755  52.951  1.00  0.00    -0.059 NA
ENDBRANCH  11  13
ENDBRANCH   7  11
BRANCH  10  23
HETATM   23  O2  UNL     1      25.193  -1.263  54.993  1.00  0.00    -0.197 OA
BRANCH  23  24
HETATM   24  O3  UNL     1      25.692  -0.891  56.196  1.00  0.00    -0.245 OA
HETATM   25  H13 UNL     1      25.585   0.104  56.288  1.00  0.00     0.254 HD
ENDBRANCH  23  24
ENDBRANCH  10  23
BRANCH   1  26
HETATM   26  O1  UNL     1      27.760  -0.801  54.063  1.00  0.00    -0.353 OA
HETATM   27  C1  UNL     1      28.825  -0.082  54.646  1.00  0.00     0.210 C 
ENDBRANCH   1  26
TORSDOF 5
ENDMDL
MODEL 6
REMARK VINA RESULT:      -7.8      3.878      5.190
REMARK  5 active torsions:
REMARK  status: ('A' for Active; 'I' for Inactive)
REMARK    1  A    between atoms: O1_2  and  C2_3 
REMARK    2  A    between atoms: C6_9  and  N2_10 
REMARK    3  A    between atoms: N2_10  and  C7_11 
REMARK    4  A    between atoms: C16_23  and  O2_24 
REMARK    5  A    between atoms: O2_24  and  O3_25 
ROOT
HETATM    1  C2  UNL     1      25.932   5.958  49.232  1.00  0.00     0.102 C 
HETATM    2  C3  UNL     1      24.773   6.434  49.610  1.00  0.00     0.033 C 
HETATM    3  C4  UNL     1      23.833   5.429  50.047  1.00  0.00     0.115 A 
HETATM    4  S1  UNL     1      22.512   5.858  51.156  1.00  0.00    -0.108 SA
HETATM    5  C5  UNL     1      22.173   4.424  52.154  1.00  0.00     0.164 A 
HETATM    6  N1  UNL     1      22.872   3.346  52.083  1.00  0.00    -0.235 NA
HETATM    7  C6  UNL     1      23.970   3.177  51.199  1.00  0.00     0.151 A 
HETATM    8  C14 UNL     1      24.362   4.105  50.343  1.00  0.00     0.009 A 
HETATM    9  C15 UNL     1      25.671   3.670  49.793  1.00  0.00     0.055 C 
HETATM   10  C16 UNL     1      26.480   4.608  49.249  1.00  0.00     0.140 C 
ENDROOT
BRANCH   7  11
HETATM   11  N2  UNL     1      24.527   1.885  51.409  1.00  0.00    -0.169 N 
HETATM   12  H7  UNL     1      23.977   1.249  50.833  1.00  0.00     0.186 HD
BRANCH  11  13
HETATM   13  C7  UNL     1      25.630   1.602  52.263  1.00  0.00     0.747 A 
HETATM   14  N3  UNL     1      26.103   2.402  53.237  1.00  0.00     0.044 NA
HETATM   15  N4  UNL     1      27.131   2.070  53.984  1.00  0.00    -0.132 NA
HETATM   16  C8  UNL     1      27.742   0.875  53.774  1.00  0.00     0.109 A 
HETATM   17  C9  UNL     1      28.832   0.532  54.572  1.00  0.00     0.036 A 
HETATM   18  C13 UNL     1      27.293   0.010  52.780  1.00  0.00     0.106 A 
HETATM   19  C10 UNL     1      29.454  -0.692  54.352  1.00  0.00     0.003 A 
HETATM   20  C11 UNL     1      29.037  -1.573  53.377  1.00  0.00     0.002 A 
HETATM   21  C12 UNL     1      27.956  -1.181  52.618  1.00  0.00     0.035 A 
HETATM   22  N5  UNL     1      26.239   0.407  52.047  1.00  0.00    -0.059 NA
ENDBRANCH  11  13
ENDBRANCH   7  11
BRANCH  10  23
HETATM   23  O2  UNL     1      27.749   4.338  48.733  1.00  0.00    -0.197 OA
BRANCH  23  24
HETATM   24  O3  UNL     1      28.756   5.112  49.206  1.00  0.00    -0.245 OA
HETATM   25  H13 UNL     1      29.529   5.048  48.567  1.00  0.00     0.254 HD
ENDBRANCH  23  24
ENDBRANCH  10  23
BRANCH   1  26
HETATM   26  O1  UNL     1      26.819   6.946  48.769  1.00  0.00    -0.353 OA
HETATM   27  C1  UNL     1      26.598   8.310  49.051  1.00  0.00     0.210 C 
ENDBRANCH   1  26
TORSDOF 5
ENDMDL
MODEL 7
REMARK VINA RESULT:      -7.8      5.892      8.084
REMARK  5 active torsions:
REMARK  status: ('A' for Active; 'I' for Inactive)
REMARK    1  A    between atoms: O1_2  and  C2_3 
REMARK    2  A    between atoms: C6_9  and  N2_10 
REMARK    3  A    between atoms: N2_10  and  C7_11 
REMARK    4  A    between atoms: C16_23  and  O2_24 
REMARK    5  A    between atoms: O2_24  and  O3_25 
ROOT
HETATM    1  C2  UNL     1      30.369   7.038  48.495  1.00  0.00     0.102 C 
HETATM    2  C3  UNL     1      29.615   8.069  48.782  1.00  0.00     0.033 C 
HETATM    3  C4  UNL     1      28.197   7.811  48.685  1.00  0.00     0.115 A 
HETATM    4  S1  UNL     1      27.041   8.798  49.606  1.00  0.00    -0.108 SA
HETATM    5  C5  UNL     1      25.654   7.756  50.001  1.00  0.00     0.164 A 
HETATM    6  N1  UNL     1      25.623   6.501  49.717  1.00  0.00    -0.235 NA
HETATM    7  C6  UNL     1      26.674   5.820  49.048  1.00  0.00     0.151 A 
HETATM    8  C14 UNL     1      27.775   6.418  48.629  1.00  0.00     0.009 A 
HETATM    9  C15 UNL     1      28.726   5.352  48.223  1.00  0.00     0.055 C 
HETATM   10  C16 UNL     1      30.044   5.656  48.174  1.00  0.00     0.140 C 
ENDROOT
BRANCH   7  11
HETATM   11  N2  UNL     1      26.320   4.448  48.929  1.00  0.00    -0.169 N 
HETATM   12  H7  UNL     1      26.157   4.288  47.935  1.00  0.00     0.186 HD
BRANCH  11  13
HETATM   13  C7  UNL     1      26.230   3.531  50.014  1.00  0.00     0.747 A 
HETATM   14  N3  UNL     1      27.249   3.128  50.797  1.00  0.00     0.044 NA
HETATM   15  N4  UNL     1      27.085   2.275  51.781  1.00  0.00    -0.132 NA
HETATM   16  C8  UNL     1      25.845   1.778  52.027  1.00  0.00     0.109 A 
HETATM   17  C9  UNL     1      25.683   0.873  53.074  1.00  0.00     0.036 A 
HETATM   18  C13 UNL     1      24.758   2.160  51.248  1.00  0.00     0.106 A 
HETATM   19  C10 UNL     1      24.412   0.366  53.319  1.00  0.00     0.003 A 
HETATM   20  C11 UNL     1      23.312   0.723  52.569  1.00  0.00     0.002 A 
HETATM   21  C12 UNL     1      23.532   1.619  51.546  1.00  0.00     0.035 A 
HETATM   22  N5  UNL     1      24.988   3.035  50.254  1.00  0.00    -0.059 NA
ENDBRANCH  11  13
ENDBRANCH   7  11
BRANCH  10  23
HETATM   23  O2  UNL     1      31.043   4.736  47.846  1.00  0.00    -0.197 OA
BRANCH  23  24
HETATM   24  O3  UNL     1      31.981   4.518  48.799  1.00  0.00    -0.245 OA
HETATM   25  H13 UNL     1      31.829   5.172  49.547  1.00  0.00     0.254 HD
ENDBRANCH  23  24
ENDBRANCH  10  23
BRANCH   1  26
HETATM   26  O1  UNL     1      31.746   7.320  48.552  1.00  0.00    -0.353 OA
HETATM   27  C1  UNL     1      32.312   8.337  47.756  1.00  0.00     0.210 C 
ENDBRANCH   1  26
TORSDOF 5
ENDMDL
MODEL 8
REMARK VINA RESULT:      -7.5      3.467      6.680
REMARK  5 active torsions:
REMARK  status: ('A' for Active; 'I' for Inactive)
REMARK    1  A    between atoms: O1_2  and  C2_3 
REMARK    2  A    between atoms: C6_9  and  N2_10 
REMARK    3  A    between atoms: N2_10  and  C7_11 
REMARK    4  A    between atoms: C16_23  and  O2_24 
REMARK    5  A    between atoms: O2_24  and  O3_25 
ROOT
HETATM    1  C2  UNL     1      25.652  -0.006  53.632  1.00  0.00     0.102 C 
HETATM    2  C3  UNL     1      24.471  -0.457  53.292  1.00  0.00     0.033 C 
HETATM    3  C4  UNL     1      23.463   0.567  53.152  1.00  0.00     0.115 A 
HETATM    4  S1  UNL     1      22.041   0.290  52.122  1.00  0.00    -0.108 SA
HETATM    5  C5  UNL     1      21.557   1.867  51.454  1.00  0.00     0.164 A 
HETATM    6  N1  UNL     1      22.231   2.944  51.656  1.00  0.00    -0.235 NA
HETATM    7  C6  UNL     1      23.414   2.997  52.439  1.00  0.00     0.151 A 
HETATM    8  C14 UNL     1      23.921   1.946  53.059  1.00  0.00     0.009 A 
HETATM    9  C15 UNL     1      25.271   2.332  53.545  1.00  0.00     0.055 C 
HETATM   10  C16 UNL     1      26.159   1.347  53.815  1.00  0.00     0.140 C 
ENDROOT
BRANCH   7  11
HETATM   11  N2  UNL     1      23.910   4.330  52.421  1.00  0.00    -0.169 N 
HETATM   12  H7  UNL     1      23.713   4.712  53.345  1.00  0.00     0.186 HD
BRANCH  11  13
HETATM   13  C7  UNL     1      24.545   4.948  51.308  1.00  0.00     0.747 A 
HETATM   14  N3  UNL     1      25.271   4.322  50.361  1.00  0.00     0.044 NA
HETATM   15  N4  UNL     1      25.829   4.965  49.362  1.00  0.00    -0.132 NA
HETATM   16  C8  UNL     1      25.672   6.312  49.271  1.00  0.00     0.109 A 
HETATM   17  C9  UNL     1      26.269   6.985  48.207  1.00  0.00     0.036 A 
HETATM   18  C13 UNL     1      24.933   7.008  50.222  1.00  0.00     0.106 A 
HETATM   19  C10 UNL     1      26.106   8.363  48.120  1.00  0.00     0.003 A 
HETATM   20  C11 UNL     1      25.380   9.084  49.043  1.00  0.00     0.002 A 
HETATM   21  C12 UNL     1      24.814   8.368  50.074  1.00  0.00     0.035 A 
HETATM   22  N5  UNL     1      24.387   6.295  51.223  1.00  0.00    -0.059 NA
ENDBRANCH  11  13
ENDBRANCH   7  11
BRANCH  10  23
HETATM   23  O2  UNL     1      27.469   1.576  54.240  1.00  0.00    -0.197 OA
BRANCH  23  24
HETATM   24  O3  UNL     1      27.902   2.858  54.155  1.00  0.00    -0.245 OA
HETATM   25  H13 UNL     1      27.612   3.344  54.985  1.00  0.00     0.254 HD
ENDBRANCH  23  24
ENDBRANCH  10  23
BRANCH   1  26
HETATM   26  O1  UNL     1      26.610  -1.021  53.807  1.00  0.00    -0.353 OA
HETATM   27  C1  UNL     1      27.071  -1.780  52.711  1.00  0.00     0.210 C 
ENDBRANCH   1  26
TORSDOF 5
ENDMDL
MODEL 9
REMARK VINA RESULT:      -7.5      3.863      7.504
REMARK  5 active torsions:
REMARK  status: ('A' for Active; 'I' for Inactive)
REMARK    1  A    between atoms: O1_2  and  C2_3 
REMARK    2  A    between atoms: C6_9  and  N2_10 
REMARK    3  A    between atoms: N2_10  and  C7_11 
REMARK    4  A    between atoms: C16_23  and  O2_24 
REMARK    5  A    between atoms: O2_24  and  O3_25 
ROOT
HETATM    1  C2  UNL     1      27.736   0.433  53.545  1.00  0.00     0.102 C 
HETATM    2  C3  UNL     1      26.735  -0.406  53.640  1.00  0.00     0.033 C 
HETATM    3  C4  UNL     1      25.449   0.226  53.826  1.00  0.00     0.115 A 
HETATM    4  S1  UNL     1      23.958  -0.619  53.351  1.00  0.00    -0.108 SA
HETATM    5  C5  UNL     1      22.786   0.623  52.850  1.00  0.00     0.164 A 
HETATM    6  N1  UNL     1      23.082   1.873  52.783  1.00  0.00    -0.235 NA
HETATM    7  C6  UNL     1      24.359   2.398  53.113  1.00  0.00     0.151 A 
HETATM    8  C14 UNL     1      25.360   1.652  53.549  1.00  0.00     0.009 A 
HETATM    9  C15 UNL     1      26.579   2.501  53.535  1.00  0.00     0.055 C 
HETATM   10  C16 UNL     1      27.785   1.888  53.511  1.00  0.00     0.140 C 
ENDROOT
BRANCH   7  11
HETATM   11  N2  UNL     1      24.342   3.803  52.894  1.00  0.00    -0.169 N 
HETATM   12  H7  UNL     1      24.530   4.228  53.801  1.00  0.00     0.186 HD
BRANCH  11  13
HETATM   13  C7  UNL     1      24.107   4.429  51.638  1.00  0.00     0.747 A 
HETATM   14  N3  UNL     1      24.533   3.986  50.440  1.00  0.00     0.044 NA
HETATM   15  N4  UNL     1      24.275   4.624  49.321  1.00  0.00    -0.132 NA
HETATM   16  C8  UNL     1      23.551   5.773  49.366  1.00  0.00     0.109 A 
HETATM   17  C9  UNL     1      23.284   6.441  48.173  1.00  0.00     0.036 A 
HETATM   18  C13 UNL     1      23.087   6.275  50.578  1.00  0.00     0.106 A 
HETATM   19  C10 UNL     1      22.544   7.617  48.225  1.00  0.00     0.003 A 
HETATM   20  C11 UNL     1      22.068   8.144  49.407  1.00  0.00     0.002 A 
HETATM   21  C12 UNL     1      22.363   7.441  50.555  1.00  0.00     0.035 A 
HETATM   22  N5  UNL     1      23.384   5.579  51.689  1.00  0.00    -0.059 NA
ENDBRANCH  11  13
ENDBRANCH   7  11
BRANCH  10  23
HETATM   23  O2  UNL     1      29.003   2.568  53.458  1.00  0.00    -0.197 OA
BRANCH  23  24
HETATM   24  O3  UNL     1      29.770   2.493  54.572  1.00  0.00    -0.245 OA
HETATM   25  H13 UNL     1      30.280   1.628  54.546  1.00  0.00     0.254 HD
ENDBRANCH  23  24
ENDBRANCH  10  23
BRANCH   1  26
HETATM   26  O1  UNL     1      28.984  -0.201  53.407  1.00  0.00    -0.353 OA
HETATM   27  C1  UNL     1      29.081  -1.605  53.326  1.00  0.00     0.210 C 
ENDBRANCH   1  26
TORSDOF 5
ENDMDL
