MODEL 1
REMARK VINA RESULT:      -8.4      0.000      0.000
REMARK  3 active torsions:
REMARK  status: ('A' for Active; 'I' for Inactive)
REMARK       I    between atoms: C1_2  and  N1_3 
REMARK    1  A    between atoms: C1_2  and  C8_14 
REMARK    2  A    between atoms: N1_3  and  S1_4 
REMARK    3  A    between atoms: S1_4  and  C2_7 
ROOT
HETATM    1  O1  UNL     1      25.135   2.982  51.283  1.00  0.00    -0.271 OA
HETATM    2  C1  UNL     1      25.349   1.788  51.637  1.00  0.00     0.242 C 
HETATM    3  N1  UNL     1      24.181   1.042  51.942  1.00  0.00    -0.249 N 
HETATM    4  H1  UNL     1      24.294   0.049  52.241  1.00  0.00     0.182 HD
ENDROOT
BRANCH   3   5
HETATM    5  S1  UNL     1      22.655   1.857  51.792  1.00  0.00     0.265 S 
HETATM    6  O2  UNL     1      22.452   2.318  50.389  1.00  0.00    -0.200 OA
HETATM    7  O3  UNL     1      22.667   3.086  52.665  1.00  0.00    -0.200 OA
BRANCH   5   8
HETATM    8  C2  UNL     1      21.362   0.825  52.337  1.00  0.00     0.080 A 
HETATM    9  C3  UNL     1      21.501  -0.036  53.427  1.00  0.00     0.027 A 
HETATM   10  C4  UNL     1      20.476  -0.848  53.851  1.00  0.00     0.025 A 
HETATM   11  C5  UNL     1      19.271  -0.828  53.197  1.00  0.00     0.034 A 
HETATM   12 CL1  UNL     1      17.912  -1.820  53.661  1.00  0.00    -0.084 Cl
HETATM   13  C6  UNL     1      19.106   0.011  52.119  1.00  0.00     0.025 A 
HETATM   14  C7  UNL     1      20.143   0.822  51.702  1.00  0.00     0.027 A 
ENDBRANCH   5   8
ENDBRANCH   3   5
BRANCH   2  15
HETATM   15  C8  UNL     1      26.720   1.182  51.733  1.00  0.00     0.123 C 
HETATM   16  C9  UNL     1      27.569   1.901  52.706  1.00  0.00    -0.011 C 
HETATM   17  C10 UNL     1      28.360   1.800  53.768  1.00  0.00    -0.004 C 
HETATM   18  C11 UNL     1      28.949   0.861  54.732  1.00  0.00     0.198 C 
HETATM   19  O4  UNL     1      28.506  -0.445  54.588  1.00  0.00    -0.350 OA
HETATM   20  C12 UNL     1      28.674  -0.972  53.322  1.00  0.00     0.330 C 
HETATM   21  F1  UNL     1      29.194  -2.250  53.462  1.00  0.00    -0.215 F 
HETATM   22  C13 UNL     1      27.330  -1.134  52.702  1.00  0.00     0.035 C 
HETATM   23  C14 UNL     1      26.557  -0.257  52.066  1.00  0.00    -0.008 C 
ENDBRANCH   2  15
TORSDOF 3
ENDMDL
MODEL 2
REMARK VINA RESULT:      -8.0      4.825      6.785
REMARK  3 active torsions:
REMARK  status: ('A' for Active; 'I' for Inactive)
REMARK       I    between atoms: C1_2  and  N1_3 
REMARK    1  A    between atoms: C1_2  and  C8_14 
REMARK    2  A    between atoms: N1_3  and  S1_4 
REMARK    3  A    between atoms: S1_4  and  C2_7 
ROOT
HETATM    1  O1  UNL     1      23.732   3.192  52.410  1.00  0.00    -0.271 OA
HETATM    2  C1  UNL     1      24.932   2.796  52.412  1.00  0.00     0.242 C 
HETATM    3  N1  UNL     1      25.744   3.356  51.392  1.00  0.00    -0.249 N 
HETATM    4  H1  UNL     1      26.745   3.066  51.343  1.00  0.00     0.182 HD
ENDROOT
BRANCH   3   5
HETATM    5  S1  UNL     1      24.990   4.481  50.305  1.00  0.00     0.265 S 
HETATM    6  O2  UNL     1      24.134   5.437  51.064  1.00  0.00    -0.200 OA
HETATM    7  O3  UNL     1      24.086   3.725  49.365  1.00  0.00    -0.200 OA
BRANCH   5   8
HETATM    8  C2  UNL     1      26.196   5.298  49.349  1.00  0.00     0.080 A 
HETATM    9  C3  UNL     1      27.406   4.697  49.000  1.00  0.00     0.027 A 
HETATM   10  C4  UNL     1      28.354   5.348  48.244  1.00  0.00     0.025 A 
HETATM   11  C5  UNL     1      28.122   6.628  47.811  1.00  0.00     0.034 A 
HETATM   12 CL1  UNL     1      29.261   7.535  46.849  1.00  0.00    -0.084 Cl
HETATM   13  C6  UNL     1      26.937   7.245  48.141  1.00  0.00     0.025 A 
HETATM   14  C7  UNL     1      25.993   6.581  48.900  1.00  0.00     0.027 A 
ENDBRANCH   5   8
ENDBRANCH   3   5
BRANCH   2  15
HETATM   15  C8  UNL     1      25.481   1.812  53.407  1.00  0.00     0.123 C 
HETATM   16  C9  UNL     1      25.205   0.417  53.006  1.00  0.00    -0.011 C 
HETATM   17  C10 UNL     1      25.713  -0.791  52.786  1.00  0.00    -0.004 C 
HETATM   18  C11 UNL     1      26.949  -1.585  52.796  1.00  0.00     0.198 C 
HETATM   19  O4  UNL     1      28.090  -0.846  53.068  1.00  0.00    -0.350 OA
HETATM   20  C12 UNL     1      28.040  -0.122  54.243  1.00  0.00     0.330 C 
HETATM   21  F1  UNL     1      29.244  -0.306  54.905  1.00  0.00    -0.215 F 
HETATM   22  C13 UNL     1      27.970   1.325  53.897  1.00  0.00     0.035 C 
HETATM   23  C14 UNL     1      26.934   2.088  53.563  1.00  0.00    -0.008 C 
ENDBRANCH   2  15
TORSDOF 3
ENDMDL
MODEL 3
REMARK VINA RESULT:      -8.0      3.438      3.952
REMARK  3 active torsions:
REMARK  status: ('A' for Active; 'I' for Inactive)
REMARK       I    between atoms: C1_2  and  N1_3 
REMARK    1  A    between atoms: C1_2  and  C8_14 
REMARK    2  A    between atoms: N1_3  and  S1_4 
REMARK    3  A    between atoms: S1_4  and  C2_7 
ROOT
HETATM    1  O1  UNL     1      25.500   3.452  51.099  1.00  0.00    -0.271 OA
HETATM    2  C1  UNL     1      25.551   2.267  51.535  1.00  0.00     0.242 C 
HETATM    3  N1  UNL     1      24.295   1.716  51.900  1.00  0.00    -0.249 N 
HETATM    4  H1  UNL     1      24.273   0.739  52.268  1.00  0.00     0.182 HD
ENDROOT
BRANCH   3   5
HETATM    5  S1  UNL     1      22.896   2.725  51.702  1.00  0.00     0.265 S 
HETATM    6  O2  UNL     1      23.058   3.990  52.473  1.00  0.00    -0.200 OA
HETATM    7  O3  UNL     1      21.693   2.013  52.267  1.00  0.00    -0.200 OA
BRANCH   5   8
HETATM    8  C2  UNL     1      22.599   3.021  50.011  1.00  0.00     0.080 A 
HETATM    9  C3  UNL     1      22.444   4.308  49.493  1.00  0.00     0.027 A 
HETATM   10  C4  UNL     1      22.211   4.534  48.157  1.00  0.00     0.025 A 
HETATM   11  C5  UNL     1      22.123   3.476  47.289  1.00  0.00     0.034 A 
HETATM   12 CL1  UNL     1      21.829   3.662  45.579  1.00  0.00    -0.084 Cl
HETATM   13  C6  UNL     1      22.271   2.196  47.773  1.00  0.00     0.025 A 
HETATM   14  C7  UNL     1      22.506   1.982  49.116  1.00  0.00     0.027 A 
ENDBRANCH   5   8
ENDBRANCH   3   5
BRANCH   2  15
HETATM   15  C8  UNL     1      26.825   1.482  51.666  1.00  0.00     0.123 C 
HETATM   16  C9  UNL     1      27.710   2.045  52.706  1.00  0.00    -0.011 C 
HETATM   17  C10 UNL     1      28.427   1.801  53.798  1.00  0.00    -0.004 C 
HETATM   18  C11 UNL     1      28.840   0.757  54.745  1.00  0.00     0.198 C 
HETATM   19  O4  UNL     1      28.239  -0.473  54.524  1.00  0.00    -0.350 OA
HETATM   20  C12 UNL     1      28.400  -0.970  53.245  1.00  0.00     0.330 C 
HETATM   21  F1  UNL     1      28.742  -2.309  53.352  1.00  0.00    -0.215 F 
HETATM   22  C13 UNL     1      27.079  -0.929  52.559  1.00  0.00     0.035 C 
HETATM   23  C14 UNL     1      26.460   0.065  51.928  1.00  0.00    -0.008 C 
ENDBRANCH   2  15
TORSDOF 3
ENDMDL
MODEL 4
REMARK VINA RESULT:      -8.0      5.253      7.397
REMARK  3 active torsions:
REMARK  status: ('A' for Active; 'I' for Inactive)
REMARK       I    between atoms: C1_2  and  N1_3 
REMARK    1  A    between atoms: C1_2  and  C8_14 
REMARK    2  A    between atoms: N1_3  and  S1_4 
REMARK    3  A    between atoms: S1_4  and  C2_7 
ROOT
HETATM    1  O1  UNL     1      23.789   4.184  50.820  1.00  0.00    -0.271 OA
HETATM    2  C1  UNL     1      24.963   4.382  50.398  1.00  0.00     0.242 C 
HETATM    3  N1  UNL     1      25.948   3.530  50.963  1.00  0.00    -0.249 N 
HETATM    4  H1  UNL     1      26.937   3.646  50.653  1.00  0.00     0.182 HD
ENDROOT
BRANCH   3   5
HETATM    5  S1  UNL     1      25.412   2.361  52.131  1.00  0.00     0.265 S 
HETATM    6  O2  UNL     1      24.295   1.548  51.572  1.00  0.00    -0.200 OA
HETATM    7  O3  UNL     1      24.872   3.086  53.337  1.00  0.00    -0.200 OA
BRANCH   5   8
HETATM    8  C2  UNL     1      26.747   1.372  52.652  1.00  0.00     0.080 A 
HETATM    9  C3  UNL     1      27.915   1.915  53.189  1.00  0.00     0.027 A 
HETATM   10  C4  UNL     1      28.966   1.127  53.599  1.00  0.00     0.025 A 
HETATM   11  C5  UNL     1      28.884  -0.237  53.484  1.00  0.00     0.034 A 
HETATM   12 CL1  UNL     1      30.162  -1.318  53.976  1.00  0.00    -0.084 Cl
HETATM   13  C6  UNL     1      27.743  -0.799  52.958  1.00  0.00     0.025 A 
HETATM   14  C7  UNL     1      26.695   0.002  52.550  1.00  0.00     0.027 A 
ENDBRANCH   5   8
ENDBRANCH   3   5
BRANCH   2  15
HETATM   15  C8  UNL     1      25.316   5.428  49.379  1.00  0.00     0.123 C 
HETATM   16  C9  UNL     1      25.201   6.793  49.933  1.00  0.00    -0.011 C 
HETATM   17  C10 UNL     1      25.798   7.965  50.118  1.00  0.00    -0.004 C 
HETATM   18  C11 UNL     1      27.034   8.724  49.883  1.00  0.00     0.198 C 
HETATM   19  O4  UNL     1      28.050   7.979  49.304  1.00  0.00    -0.350 OA
HETATM   20  C12 UNL     1      27.702   7.354  48.122  1.00  0.00     0.330 C 
HETATM   21  F1  UNL     1      28.732   7.560  47.217  1.00  0.00    -0.215 F 
HETATM   22  C13 UNL     1      27.648   5.887  48.368  1.00  0.00     0.035 C 
HETATM   23  C14 UNL     1      26.682   5.127  48.874  1.00  0.00    -0.008 C 
ENDBRANCH   2  15
TORSDOF 3
ENDMDL
MODEL 5
REMARK VINA RESULT:      -7.6      3.056      3.616
REMARK  3 active torsions:
REMARK  status: ('A' for Active; 'I' for Inactive)
REMARK       I    between atoms: C1_2  and  N1_3 
REMARK    1  A    between atoms: C1_2  and  C8_14 
REMARK    2  A    between atoms: N1_3  and  S1_4 
REMARK    3  A    between atoms: S1_4  and  C2_7 
ROOT
HETATM    1  O1  UNL     1      24.591   1.635  50.818  1.00  0.00    -0.271 OA
HETATM    2  C1  UNL     1      25.190   1.123  51.806  1.00  0.00     0.242 C 
HETATM    3  N1  UNL     1      24.351   0.795  52.903  1.00  0.00    -0.249 N 
HETATM    4  H1  UNL     1      24.790   0.368  53.748  1.00  0.00     0.182 HD
ENDROOT
BRANCH   3   5
HETATM    5  S1  UNL     1      22.657   1.139  52.739  1.00  0.00     0.265 S 
HETATM    6  O2  UNL     1      21.935   0.782  53.993  1.00  0.00    -0.200 OA
HETATM    7  O3  UNL     1      22.087   0.280  51.639  1.00  0.00    -0.200 OA
BRANCH   5   8
HETATM    8  C2  UNL     1      22.419   2.806  52.296  1.00  0.00     0.080 A 
HETATM    9  C3  UNL     1      23.280   3.822  52.716  1.00  0.00     0.027 A 
HETATM   10  C4  UNL     1      23.085   5.137  52.362  1.00  0.00     0.025 A 
HETATM   11  C5  UNL     1      22.018   5.483  51.574  1.00  0.00     0.034 A 
HETATM   12 CL1  UNL     1      21.689   7.122  51.073  1.00  0.00    -0.084 Cl
HETATM   13  C6  UNL     1      21.154   4.501  51.146  1.00  0.00     0.025 A 
HETATM   14  C7  UNL     1      21.359   3.185  51.507  1.00  0.00     0.027 A 
ENDBRANCH   5   8
ENDBRANCH   3   5
BRANCH   2  15
HETATM   15  C8  UNL     1      26.670   0.868  51.840  1.00  0.00     0.123 C 
HETATM   16  C9  UNL     1      27.399   1.968  52.505  1.00  0.00    -0.011 C 
HETATM   17  C10 UNL     1      28.279   2.303  53.443  1.00  0.00    -0.004 C 
HETATM   18  C11 UNL     1      29.156   1.778  54.497  1.00  0.00     0.198 C 
HETATM   19  O4  UNL     1      29.032   0.412  54.704  1.00  0.00    -0.350 OA
HETATM   20  C12 UNL     1      29.214  -0.360  53.573  1.00  0.00     0.330 C 
HETATM   21  F1  UNL     1      30.038  -1.421  53.915  1.00  0.00    -0.215 F 
HETATM   22  C13 UNL     1      27.902  -0.953  53.196  1.00  0.00     0.035 C 
HETATM   23  C14 UNL     1      26.889  -0.446  52.499  1.00  0.00    -0.008 C 
ENDBRANCH   2  15
TORSDOF 3
ENDMDL
MODEL 6
REMARK VINA RESULT:      -7.6      4.770      6.916
REMARK  3 active torsions:
REMARK  status: ('A' for Active; 'I' for Inactive)
REMARK       I    between atoms: C1_2  and  N1_3 
REMARK    1  A    between atoms: C1_2  and  C8_14 
REMARK    2  A    between atoms: N1_3  and  S1_4 
REMARK    3  A    between atoms: S1_4  and  C2_7 
ROOT
HETATM    1  O1  UNL     1      23.985   3.282  52.706  1.00  0.00    -0.271 OA
HETATM    2  C1  UNL     1      23.418   2.553  51.843  1.00  0.00     0.242 C 
HETATM    3  N1  UNL     1      23.085   3.216  50.633  1.00  0.00    -0.249 N 
HETATM    4  H1  UNL     1      22.614   2.665  49.882  1.00  0.00     0.182 HD
ENDROOT
BRANCH   3   5
HETATM    5  S1  UNL     1      23.492   4.899  50.511  1.00  0.00     0.265 S 
HETATM    6  O2  UNL     1      23.393   5.552  51.848  1.00  0.00    -0.200 OA
HETATM    7  O3  UNL     1      22.495   5.581  49.609  1.00  0.00    -0.200 OA
BRANCH   5   8
HETATM    8  C2  UNL     1      25.073   5.089  49.804  1.00  0.00     0.080 A 
HETATM    9  C3  UNL     1      25.557   6.325  49.374  1.00  0.00     0.027 A 
HETATM   10  C4  UNL     1      26.806   6.467  48.817  1.00  0.00     0.025 A 
HETATM   11  C5  UNL     1      27.618   5.372  48.669  1.00  0.00     0.034 A 
HETATM   12 CL1  UNL     1      29.217   5.452  47.974  1.00  0.00    -0.084 Cl
HETATM   13  C6  UNL     1      27.166   4.140  49.084  1.00  0.00     0.025 A 
HETATM   14  C7  UNL     1      25.910   4.010  49.642  1.00  0.00     0.027 A 
ENDBRANCH   5   8
ENDBRANCH   3   5
BRANCH   2  15
HETATM   15  C8  UNL     1      23.111   1.097  52.056  1.00  0.00     0.123 C 
HETATM   16  C9  UNL     1      24.233   0.391  52.706  1.00  0.00    -0.011 C 
HETATM   17  C10 UNL     1      24.611  -0.401  53.704  1.00  0.00    -0.004 C 
HETATM   18  C11 UNL     1      24.141  -1.139  54.884  1.00  0.00     0.198 C 
HETATM   19  O4  UNL     1      22.804  -0.930  55.184  1.00  0.00    -0.350 OA
HETATM   20  C12 UNL     1      21.934  -1.192  54.143  1.00  0.00     0.330 C 
HETATM   21  F1  UNL     1      20.874  -1.925  54.654  1.00  0.00    -0.215 F 
HETATM   22  C13 UNL     1      21.362   0.100  53.675  1.00  0.00     0.035 C 
HETATM   23  C14 UNL     1      21.848   1.010  52.835  1.00  0.00    -0.008 C 
ENDBRANCH   2  15
TORSDOF 3
ENDMDL
MODEL 7
REMARK VINA RESULT:      -7.5      4.317      5.875
REMARK  3 active torsions:
REMARK  status: ('A' for Active; 'I' for Inactive)
REMARK       I    between atoms: C1_2  and  N1_3 
REMARK    1  A    between atoms: C1_2  and  C8_14 
REMARK    2  A    between atoms: N1_3  and  S1_4 
REMARK    3  A    between atoms: S1_4  and  C2_7 
ROOT
HETATM    1  O1  UNL     1      24.516   3.460  53.292  1.00  0.00    -0.271 OA
HETATM    2  C1  UNL     1      24.956   2.352  52.871  1.00  0.00     0.242 C 
HETATM    3  N1  UNL     1      24.665   2.078  51.509  1.00  0.00    -0.249 N 
HETATM    4  H1  UNL     1      25.003   1.177  51.104  1.00  0.00     0.182 HD
ENDROOT
BRANCH   3   5
HETATM    5  S1  UNL     1      23.764   3.276  50.632  1.00  0.00     0.265 S 
HETATM    6  O2  UNL     1      22.627   3.773  51.458  1.00  0.00    -0.200 OA
HETATM    7  O3  UNL     1      23.173   2.639  49.400  1.00  0.00    -0.200 OA
BRANCH   5   8
HETATM    8  C2  UNL     1      24.815   4.566  50.118  1.00  0.00     0.080 A 
HETATM    9  C3  UNL     1      24.615   5.892  50.504  1.00  0.00     0.027 A 
HETATM   10  C4  UNL     1      25.449   6.906  50.095  1.00  0.00     0.025 A 
HETATM   11  C5  UNL     1      26.516   6.627  49.280  1.00  0.00     0.034 A 
HETATM   12 CL1  UNL     1      27.629   7.844  48.709  1.00  0.00    -0.084 Cl
HETATM   13  C6  UNL     1      26.737   5.328  48.883  1.00  0.00     0.025 A 
HETATM   14  C7  UNL     1      25.893   4.318  49.301  1.00  0.00     0.027 A 
ENDBRANCH   5   8
ENDBRANCH   3   5
BRANCH   2  15
HETATM   15  C8  UNL     1      25.729   1.386  53.723  1.00  0.00     0.123 C 
HETATM   16  C9  UNL     1      25.452  -0.016  53.349  1.00  0.00    -0.011 C 
HETATM   17  C10 UNL     1      25.970  -1.193  53.011  1.00  0.00    -0.004 C 
HETATM   18  C11 UNL     1      27.223  -1.920  52.773  1.00  0.00     0.198 C 
HETATM   19  O4  UNL     1      28.357  -1.126  52.845  1.00  0.00    -0.350 OA
HETATM   20  C12 UNL     1      28.491  -0.421  54.025  1.00  0.00     0.330 C 
HETATM   21  F1  UNL     1      29.805  -0.550  54.448  1.00  0.00    -0.215 F 
HETATM   22  C13 UNL     1      28.287   1.025  53.732  1.00  0.00     0.035 C 
HETATM   23  C14 UNL     1      27.169   1.736  53.613  1.00  0.00    -0.008 C 
ENDBRANCH   2  15
TORSDOF 3
ENDMDL
MODEL 8
REMARK VINA RESULT:      -7.4      5.276      7.494
REMARK  3 active torsions:
REMARK  status: ('A' for Active; 'I' for Inactive)
REMARK       I    between atoms: C1_2  and  N1_3 
REMARK    1  A    between atoms: C1_2  and  C8_14 
REMARK    2  A    between atoms: N1_3  and  S1_4 
REMARK    3  A    between atoms: S1_4  and  C2_7 
ROOT
HETATM    1  O1  UNL     1      22.690   4.054  51.011  1.00  0.00    -0.271 OA
HETATM    2  C1  UNL     1      23.779   3.780  51.591  1.00  0.00     0.242 C 
HETATM    3  N1  UNL     1      24.927   4.376  51.007  1.00  0.00    -0.249 N 
HETATM    4  H1  UNL     1      25.857   4.186  51.442  1.00  0.00     0.182 HD
ENDROOT
BRANCH   3   5
HETATM    5  S1  UNL     1      24.681   5.376  49.609  1.00  0.00     0.265 S 
HETATM    6  O2  UNL     1      23.855   6.565  49.964  1.00  0.00    -0.200 OA
HETATM    7  O3  UNL     1      23.909   4.593  48.577  1.00  0.00    -0.200 OA
BRANCH   5   8
HETATM    8  C2  UNL     1      26.211   5.825  48.909  1.00  0.00     0.080 A 
HETATM    9  C3  UNL     1      26.436   7.082  48.346  1.00  0.00     0.027 A 
HETATM   10  C4  UNL     1      27.648   7.429  47.796  1.00  0.00     0.025 A 
HETATM   11  C5  UNL     1      28.680   6.527  47.788  1.00  0.00     0.034 A 
HETATM   12 CL1  UNL     1      30.251   6.875  47.114  1.00  0.00    -0.084 Cl
HETATM   13  C6  UNL     1      28.486   5.280  48.337  1.00  0.00     0.025 A 
HETATM   14  C7  UNL     1      27.265   4.942  48.887  1.00  0.00     0.027 A 
ENDBRANCH   5   8
ENDBRANCH   3   5
BRANCH   2  15
HETATM   15  C8  UNL     1      23.877   2.897  52.802  1.00  0.00     0.123 C 
HETATM   16  C9  UNL     1      22.748   1.948  52.881  1.00  0.00    -0.011 C 
HETATM   17  C10 UNL     1      22.377   0.679  53.017  1.00  0.00    -0.004 C 
HETATM   18  C11 UNL     1      22.868  -0.694  53.189  1.00  0.00     0.198 C 
HETATM   19  O4  UNL     1      24.248  -0.810  53.133  1.00  0.00    -0.350 OA
HETATM   20  C12 UNL     1      24.929  -0.001  54.021  1.00  0.00     0.330 C 
HETATM   21  F1  UNL     1      25.916  -0.768  54.620  1.00  0.00    -0.215 F 
HETATM   22  C13 UNL     1      25.635   1.055  53.243  1.00  0.00     0.035 C 
HETATM   23  C14 UNL     1      25.198   2.215  52.760  1.00  0.00    -0.008 C 
ENDBRANCH   2  15
TORSDOF 3
ENDMDL
MODEL 9
REMARK VINA RESULT:      -7.4      5.551      7.544
REMARK  3 active torsions:
REMARK  status: ('A' for Active; 'I' for Inactive)
REMARK       I    between atoms: C1_2  and  N1_3 
REMARK    1  A    between atoms: C1_2  and  C8_14 
REMARK    2  A    between atoms: N1_3  and  S1_4 
REMARK    3  A    between atoms: S1_4  and  C2_7 
ROOT
HETATM    1  O1  UNL     1      24.025   3.214  50.255  1.00  0.00    -0.271 OA
HETATM    2  C1  UNL     1      25.182   2.935  50.680  1.00  0.00     0.242 C 
HETATM    3  N1  UNL     1      26.153   3.948  50.464  1.00  0.00    -0.249 N 
HETATM    4  H1  UNL     1      27.128   3.774  50.793  1.00  0.00     0.182 HD
ENDROOT
BRANCH   3   5
HETATM    5  S1  UNL     1      25.627   5.395  49.663  1.00  0.00     0.265 S 
HETATM    6  O2  UNL     1      25.092   6.370  50.657  1.00  0.00    -0.200 OA
HETATM    7  O3  UNL     1      24.497   5.054  48.725  1.00  0.00    -0.200 OA
BRANCH   5   8
HETATM    8  C2  UNL     1      26.925   6.069  48.717  1.00  0.00     0.080 A 
HETATM    9  C3  UNL     1      26.808   7.288  48.048  1.00  0.00     0.027 A 
HETATM   10  C4  UNL     1      27.838   7.814  47.303  1.00  0.00     0.025 A 
HETATM   11  C5  UNL     1      29.024   7.134  47.200  1.00  0.00     0.034 A 
HETATM   12 CL1  UNL     1      30.386   7.719  46.279  1.00  0.00    -0.084 Cl
HETATM   13  C6  UNL     1      29.167   5.929  47.850  1.00  0.00     0.025 A 
HETATM   14  C7  UNL     1      28.126   5.412  48.595  1.00  0.00     0.027 A 
ENDBRANCH   5   8
ENDBRANCH   3   5
BRANCH   2  15
HETATM   15  C8  UNL     1      25.528   1.642  51.363  1.00  0.00     0.123 C 
HETATM   16  C9  UNL     1      26.935   1.620  51.813  1.00  0.00    -0.011 C 
HETATM   17  C10 UNL     1      27.768   1.413  52.827  1.00  0.00    -0.004 C 
HETATM   18  C11 UNL     1      27.850   1.050  54.248  1.00  0.00     0.198 C 
HETATM   19  O4  UNL     1      26.617   0.914  54.866  1.00  0.00    -0.350 OA
HETATM   20  C12 UNL     1      25.758   0.027  54.248  1.00  0.00     0.330 C 
HETATM   21  F1  UNL     1      25.189  -0.766  55.232  1.00  0.00    -0.215 F 
HETATM   22  C13 UNL     1      24.642   0.803  53.640  1.00  0.00     0.035 C 
HETATM   23  C14 UNL     1      24.565   1.447  52.479  1.00  0.00    -0.008 C 
ENDBRANCH   2  15
TORSDOF 3
ENDMDL
