MODEL 1
REMARK VINA RESULT:      -7.7      0.000      0.000
REMARK  6 active torsions:
REMARK  status: ('A' for Active; 'I' for Inactive)
REMARK    1  A    between atoms: N1_1  and  C1_2 
REMARK    2  A    between atoms: C1_2  and  N2_4 
REMARK    3  A    between atoms: N2_4  and  N3_5 
REMARK    4  A    between atoms: C2_6  and  C3_7 
REMARK    5  A    between atoms: C2_6  and  C11_15 
REMARK    6  A    between atoms: C4_8  and  C5_9 
ROOT
HETATM    1  N3  UNL     1      24.491   2.246  53.024  1.00  0.00    -0.172 NA
HETATM    2  C2  UNL     1      23.787   1.173  52.962  1.00  0.00     0.087 C 
ENDROOT
BRANCH   2   3
HETATM    3  C3  UNL     1      24.848   0.208  53.222  1.00  0.00     0.035 C 
HETATM    4  C4  UNL     1      26.063   0.395  52.748  1.00  0.00     0.014 C 
BRANCH   4   5
HETATM    5  C5  UNL     1      27.204  -0.493  52.939  1.00  0.00    -0.036 A 
HETATM    6  C6  UNL     1      27.147  -1.845  52.674  1.00  0.00     0.011 A 
HETATM    7  C7  UNL     1      28.222  -2.688  52.854  1.00  0.00     0.001 A 
HETATM    8  C8  UNL     1      29.429  -2.205  53.316  1.00  0.00     0.000 A 
HETATM    9  C9  UNL     1      29.533  -0.858  53.595  1.00  0.00     0.001 A 
HETATM   10  C10 UNL     1      28.428  -0.055  53.398  1.00  0.00     0.011 A 
ENDBRANCH   4   5
ENDBRANCH   2   3
BRANCH   2  11
HETATM   11  C11 UNL     1      22.409   0.771  52.731  1.00  0.00    -0.006 A 
HETATM   12  C12 UNL     1      21.901   0.760  51.450  1.00  0.00     0.015 A 
HETATM   13  C13 UNL     1      20.598   0.368  51.336  1.00  0.00     0.024 A 
HETATM   14  C14 UNL     1      19.778  -0.007  52.379  1.00  0.00     0.034 A 
HETATM   15 CL1  UNL     1      18.103  -0.498  52.111  1.00  0.00    -0.084 Cl
HETATM   16  C15 UNL     1      20.303   0.010  53.655  1.00  0.00     0.024 A 
HETATM   17  C16 UNL     1      21.629   0.406  53.804  1.00  0.00     0.015 A 
ENDBRANCH   2  11
BRANCH   1  18
HETATM   18  N2  UNL     1      23.882   3.476  52.830  1.00  0.00    -0.253 N 
HETATM   19  H3  UNL     1      23.426   3.558  53.781  1.00  0.00     0.191 HD
BRANCH  18  20
HETATM   20  C1  UNL     1      24.239   3.870  51.489  1.00  0.00     0.185 C 
HETATM   21  S1  UNL     1      22.817   4.365  50.836  1.00  0.00    -0.040 SA
BRANCH  20  22
HETATM   22  N1  UNL     1      25.642   3.683  51.264  1.00  0.00    -0.375 N 
HETATM   23  H1  UNL     1      26.285   4.513  51.210  1.00  0.00     0.158 HD
HETATM   24  H2  UNL     1      25.615   2.629  51.211  1.00  0.00     0.158 HD
ENDBRANCH  20  22
ENDBRANCH  18  20
ENDBRANCH   1  18
TORSDOF 6
ENDMDL
MODEL 2
REMARK VINA RESULT:      -7.6      1.116      1.871
REMARK  6 active torsions:
REMARK  status: ('A' for Active; 'I' for Inactive)
REMARK    1  A    between atoms: N1_1  and  C1_2 
REMARK    2  A    between atoms: C1_2  and  N2_4 
REMARK    3  A    between atoms: N2_4  and  N3_5 
REMARK    4  A    between atoms: C2_6  and  C3_7 
REMARK    5  A    between atoms: C2_6  and  C11_15 
REMARK    6  A    between atoms: C4_8  and  C5_9 
ROOT
HETATM    1  N3  UNL     1      23.944   2.135  52.772  1.00  0.00    -0.172 NA
HETATM    2  C2  UNL     1      23.490   0.988  53.132  1.00  0.00     0.087 C 
ENDROOT
BRANCH   2   3
HETATM    3  C3  UNL     1      24.759   0.354  53.468  1.00  0.00     0.035 C 
HETATM    4  C4  UNL     1      25.857   0.640  52.797  1.00  0.00     0.014 C 
BRANCH   4   5
HETATM    5  C5  UNL     1      27.180   0.076  53.037  1.00  0.00    -0.036 A 
HETATM    6  C6  UNL     1      28.258   0.846  53.421  1.00  0.00     0.011 A 
HETATM    7  C7  UNL     1      29.510   0.318  53.647  1.00  0.00     0.001 A 
HETATM    8  C8  UNL     1      29.745  -1.032  53.498  1.00  0.00     0.000 A 
HETATM    9  C9  UNL     1      28.696  -1.842  53.115  1.00  0.00     0.001 A 
HETATM   10  C10 UNL     1      27.461  -1.267  52.900  1.00  0.00     0.011 A 
ENDBRANCH   4   5
ENDBRANCH   2   3
BRANCH   2  11
HETATM   11  C11 UNL     1      22.217   0.297  53.259  1.00  0.00    -0.006 A 
HETATM   12  C12 UNL     1      22.056  -0.678  54.218  1.00  0.00     0.015 A 
HETATM   13  C13 UNL     1      20.825  -1.268  54.257  1.00  0.00     0.024 A 
HETATM   14  C14 UNL     1      19.764  -0.967  53.431  1.00  0.00     0.034 A 
HETATM   15 CL1  UNL     1      18.212  -1.799  53.575  1.00  0.00    -0.084 Cl
HETATM   16  C15 UNL     1      19.942   0.012  52.476  1.00  0.00     0.024 A 
HETATM   17  C16 UNL     1      21.187   0.632  52.411  1.00  0.00     0.015 A 
ENDBRANCH   2  11
BRANCH   1  18
HETATM   18  N2  UNL     1      23.063   3.117  52.349  1.00  0.00    -0.253 N 
HETATM   19  H3  UNL     1      22.182   2.532  52.365  1.00  0.00     0.191 HD
BRANCH  18  20
HETATM   20  C1  UNL     1      23.872   4.296  52.154  1.00  0.00     0.185 C 
HETATM   21  S1  UNL     1      24.577   4.050  50.694  1.00  0.00    -0.040 SA
BRANCH  20  22
HETATM   22  N1  UNL     1      23.745   5.185  53.271  1.00  0.00    -0.375 N 
HETATM   23  H1  UNL     1      23.623   6.218  53.114  1.00  0.00     0.158 HD
HETATM   24  H2  UNL     1      23.822   4.447  54.021  1.00  0.00     0.158 HD
ENDBRANCH  20  22
ENDBRANCH  18  20
ENDBRANCH   1  18
TORSDOF 6
ENDMDL
MODEL 3
REMARK VINA RESULT:      -7.5      2.783      6.656
REMARK  6 active torsions:
REMARK  status: ('A' for Active; 'I' for Inactive)
REMARK    1  A    between atoms: N1_1  and  C1_2 
REMARK    2  A    between atoms: C1_2  and  N2_4 
REMARK    3  A    between atoms: N2_4  and  N3_5 
REMARK    4  A    between atoms: C2_6  and  C3_7 
REMARK    5  A    between atoms: C2_6  and  C11_15 
REMARK    6  A    between atoms: C4_8  and  C5_9 
ROOT
HETATM    1  N3  UNL     1      23.667   2.446  52.637  1.00  0.00    -0.172 NA
HETATM    2  C2  UNL     1      24.188   1.311  52.935  1.00  0.00     0.087 C 
ENDROOT
BRANCH   2   3
HETATM    3  C3  UNL     1      22.958   0.537  53.055  1.00  0.00     0.035 C 
HETATM    4  C4  UNL     1      21.846   0.942  52.476  1.00  0.00     0.014 C 
BRANCH   4   5
HETATM    5  C5  UNL     1      20.558   0.260  52.521  1.00  0.00    -0.036 A 
HETATM    6  C6  UNL     1      20.183  -0.553  53.570  1.00  0.00     0.011 A 
HETATM    7  C7  UNL     1      18.968  -1.200  53.617  1.00  0.00     0.001 A 
HETATM    8  C8  UNL     1      18.053  -1.060  52.594  1.00  0.00     0.000 A 
HETATM    9  C9  UNL     1      18.385  -0.257  51.523  1.00  0.00     0.001 A 
HETATM   10  C10 UNL     1      19.614   0.371  51.522  1.00  0.00     0.011 A 
ENDBRANCH   4   5
ENDBRANCH   2   3
BRANCH   2  11
HETATM   11  C11 UNL     1      25.501   0.722  53.146  1.00  0.00    -0.006 A 
HETATM   12  C12 UNL     1      26.312   1.193  54.155  1.00  0.00     0.015 A 
HETATM   13  C13 UNL     1      27.524   0.576  54.273  1.00  0.00     0.024 A 
HETATM   14  C14 UNL     1      27.982  -0.453  53.479  1.00  0.00     0.034 A 
HETATM   15 CL1  UNL     1      29.575  -1.176  53.725  1.00  0.00    -0.084 Cl
HETATM   16  C15 UNL     1      27.158  -0.912  52.473  1.00  0.00     0.024 A 
HETATM   17  C16 UNL     1      25.914  -0.303  52.327  1.00  0.00     0.015 A 
ENDBRANCH   2  11
BRANCH   1  18
HETATM   18  N2  UNL     1      24.489   3.541  52.419  1.00  0.00    -0.253 N 
HETATM   19  H3  UNL     1      25.403   3.016  52.335  1.00  0.00     0.191 HD
BRANCH  18  20
HETATM   20  C1  UNL     1      23.612   4.686  52.441  1.00  0.00     0.185 C 
HETATM   21  S1  UNL     1      22.688   4.497  51.099  1.00  0.00    -0.040 SA
BRANCH  20  22
HETATM   22  N1  UNL     1      23.882   5.507  53.584  1.00  0.00    -0.375 N 
HETATM   23  H1  UNL     1      24.847   5.895  53.741  1.00  0.00     0.158 HD
HETATM   24  H2  UNL     1      22.907   5.478  53.986  1.00  0.00     0.158 HD
ENDBRANCH  20  22
ENDBRANCH  18  20
ENDBRANCH   1  18
TORSDOF 6
ENDMDL
MODEL 4
REMARK VINA RESULT:      -7.4      2.879      4.055
REMARK  6 active torsions:
REMARK  status: ('A' for Active; 'I' for Inactive)
REMARK    1  A    between atoms: N1_1  and  C1_2 
REMARK    2  A    between atoms: C1_2  and  N2_4 
REMARK    3  A    between atoms: N2_4  and  N3_5 
REMARK    4  A    between atoms: C2_6  and  C3_7 
REMARK    5  A    between atoms: C2_6  and  C11_15 
REMARK    6  A    between atoms: C4_8  and  C5_9 
ROOT
HETATM    1  N3  UNL     1      22.515   0.206  53.788  1.00  0.00    -0.172 NA
HETATM    2  C2  UNL     1      23.355   0.791  53.011  1.00  0.00     0.087 C 
ENDROOT
BRANCH   2   3
HETATM    3  C3  UNL     1      24.522  -0.032  53.304  1.00  0.00     0.035 C 
HETATM    4  C4  UNL     1      25.663   0.164  52.674  1.00  0.00     0.014 C 
BRANCH   4   5
HETATM    5  C5  UNL     1      26.896  -0.588  52.877  1.00  0.00    -0.036 A 
HETATM    6  C6  UNL     1      26.986  -1.945  52.644  1.00  0.00     0.011 A 
HETATM    7  C7  UNL     1      28.148  -2.659  52.835  1.00  0.00     0.001 A 
HETATM    8  C8  UNL     1      29.296  -2.037  53.278  1.00  0.00     0.000 A 
HETATM    9  C9  UNL     1      29.253  -0.680  53.526  1.00  0.00     0.001 A 
HETATM   10  C10 UNL     1      28.066  -0.008  53.318  1.00  0.00     0.011 A 
ENDBRANCH   4   5
ENDBRANCH   2   3
BRANCH   2  11
HETATM   11  C11 UNL     1      23.399   1.897  52.069  1.00  0.00    -0.006 A 
HETATM   12  C12 UNL     1      23.782   3.150  52.495  1.00  0.00     0.015 A 
HETATM   13  C13 UNL     1      23.792   4.121  51.537  1.00  0.00     0.024 A 
HETATM   14  C14 UNL     1      23.456   3.945  50.212  1.00  0.00     0.034 A 
HETATM   15 CL1  UNL     1      23.506   5.281  49.057  1.00  0.00    -0.084 Cl
HETATM   16  C15 UNL     1      23.075   2.685  49.801  1.00  0.00     0.024 A 
HETATM   17  C16 UNL     1      23.055   1.671  50.756  1.00  0.00     0.015 A 
ENDBRANCH   2  11
BRANCH   1  18
HETATM   18  N2  UNL     1      21.208   0.663  53.851  1.00  0.00    -0.253 N 
HETATM   19  H3  UNL     1      21.423   1.679  54.054  1.00  0.00     0.191 HD
BRANCH  18  20
HETATM   20  C1  UNL     1      20.387  -0.498  53.606  1.00  0.00     0.185 C 
HETATM   21  S1  UNL     1      19.393  -0.024  52.389  1.00  0.00    -0.040 SA
BRANCH  20  22
HETATM   22  N1  UNL     1      20.749  -1.568  54.488  1.00  0.00    -0.375 N 
HETATM   23  H1  UNL     1      20.115  -1.835  55.284  1.00  0.00     0.158 HD
HETATM   24  H2  UNL     1      21.664  -1.805  54.019  1.00  0.00     0.158 HD
ENDBRANCH  20  22
ENDBRANCH  18  20
ENDBRANCH   1  18
TORSDOF 6
ENDMDL
MODEL 5
REMARK VINA RESULT:      -7.4      3.027      6.361
REMARK  6 active torsions:
REMARK  status: ('A' for Active; 'I' for Inactive)
REMARK    1  A    between atoms: N1_1  and  C1_2 
REMARK    2  A    between atoms: C1_2  and  N2_4 
REMARK    3  A    between atoms: N2_4  and  N3_5 
REMARK    4  A    between atoms: C2_6  and  C3_7 
REMARK    5  A    between atoms: C2_6  and  C11_15 
REMARK    6  A    between atoms: C4_8  and  C5_9 
ROOT
HETATM    1  N3  UNL     1      25.529   2.822  51.163  1.00  0.00    -0.172 NA
HETATM    2  C2  UNL     1      25.727   1.726  51.803  1.00  0.00     0.087 C 
ENDROOT
BRANCH   2   3
HETATM    3  C3  UNL     1      24.344   1.270  51.875  1.00  0.00     0.035 C 
HETATM    4  C4  UNL     1      23.867   0.730  52.979  1.00  0.00     0.014 C 
BRANCH   4   5
HETATM    5  C5  UNL     1      22.509   0.239  53.175  1.00  0.00    -0.036 A 
HETATM    6  C6  UNL     1      22.202  -0.761  54.075  1.00  0.00     0.011 A 
HETATM    7  C7  UNL     1      20.920  -1.229  54.263  1.00  0.00     0.001 A 
HETATM    8  C8  UNL     1      19.865  -0.707  53.545  1.00  0.00     0.000 A 
HETATM    9  C9  UNL     1      20.124   0.294  52.632  1.00  0.00     0.001 A 
HETATM   10  C10 UNL     1      21.424   0.730  52.480  1.00  0.00     0.011 A 
ENDBRANCH   4   5
ENDBRANCH   2   3
BRANCH   2  11
HETATM   11  C11 UNL     1      26.828   0.968  52.375  1.00  0.00    -0.006 A 
HETATM   12  C12 UNL     1      27.845   1.622  53.034  1.00  0.00     0.015 A 
HETATM   13  C13 UNL     1      28.832   0.824  53.536  1.00  0.00     0.024 A 
HETATM   14  C14 UNL     1      28.883  -0.549  53.434  1.00  0.00     0.034 A 
HETATM   15 CL1  UNL     1      30.215  -1.482  54.125  1.00  0.00    -0.084 Cl
HETATM   16  C15 UNL     1      27.857  -1.189  52.770  1.00  0.00     0.024 A 
HETATM   17  C16 UNL     1      26.835  -0.402  52.247  1.00  0.00     0.015 A 
ENDBRANCH   2  11
BRANCH   1  18
HETATM   18  N2  UNL     1      26.606   3.636  50.850  1.00  0.00    -0.253 N 
HETATM   19  H3  UNL     1      27.266   3.292  51.601  1.00  0.00     0.191 HD
BRANCH  18  20
HETATM   20  C1  UNL     1      26.171   4.427  49.724  1.00  0.00     0.185 C 
HETATM   21  S1  UNL     1      24.550   4.563  49.945  1.00  0.00    -0.040 SA
BRANCH  20  22
HETATM   22  N1  UNL     1      27.283   4.771  48.888  1.00  0.00    -0.375 N 
HETATM   23  H1  UNL     1      27.128   5.021  47.878  1.00  0.00     0.158 HD
HETATM   24  H2  UNL     1      28.027   4.658  49.626  1.00  0.00     0.158 HD
ENDBRANCH  20  22
ENDBRANCH  18  20
ENDBRANCH   1  18
TORSDOF 6
ENDMDL
MODEL 6
REMARK VINA RESULT:      -7.4      3.225      5.568
REMARK  6 active torsions:
REMARK  status: ('A' for Active; 'I' for Inactive)
REMARK    1  A    between atoms: N1_1  and  C1_2 
REMARK    2  A    between atoms: C1_2  and  N2_4 
REMARK    3  A    between atoms: N2_4  and  N3_5 
REMARK    4  A    between atoms: C2_6  and  C3_7 
REMARK    5  A    between atoms: C2_6  and  C11_15 
REMARK    6  A    between atoms: C4_8  and  C5_9 
ROOT
HETATM    1  N3  UNL     1      26.881   1.351  52.126  1.00  0.00    -0.172 NA
HETATM    2  C2  UNL     1      25.608   1.523  52.092  1.00  0.00     0.087 C 
ENDROOT
BRANCH   2   3
HETATM    3  C3  UNL     1      25.587   2.813  51.413  1.00  0.00     0.035 C 
HETATM    4  C4  UNL     1      26.352   3.037  50.363  1.00  0.00     0.014 C 
BRANCH   4   5
HETATM    5  C5  UNL     1      26.420   4.278  49.601  1.00  0.00    -0.036 A 
HETATM    6  C6  UNL     1      25.334   5.112  49.439  1.00  0.00     0.011 A 
HETATM    7  C7  UNL     1      25.394   6.285  48.719  1.00  0.00     0.001 A 
HETATM    8  C8  UNL     1      26.567   6.685  48.116  1.00  0.00     0.000 A 
HETATM    9  C9  UNL     1      27.681   5.882  48.250  1.00  0.00     0.001 A 
HETATM   10  C10 UNL     1      27.571   4.717  48.982  1.00  0.00     0.011 A 
ENDBRANCH   4   5
ENDBRANCH   2   3
BRANCH   2  11
HETATM   11  C11 UNL     1      24.392   0.842  52.507  1.00  0.00    -0.006 A 
HETATM   12  C12 UNL     1      23.213   1.067  51.831  1.00  0.00     0.015 A 
HETATM   13  C13 UNL     1      22.128   0.381  52.296  1.00  0.00     0.024 A 
HETATM   14  C14 UNL     1      22.127  -0.495  53.359  1.00  0.00     0.034 A 
HETATM   15 CL1  UNL     1      20.657  -1.330  53.872  1.00  0.00    -0.084 Cl
HETATM   16  C15 UNL     1      23.316  -0.709  54.025  1.00  0.00     0.024 A 
HETATM   17  C16 UNL     1      24.441  -0.023  53.575  1.00  0.00     0.015 A 
ENDBRANCH   2  11
BRANCH   1  18
HETATM   18  N2  UNL     1      27.400   0.205  52.708  1.00  0.00    -0.253 N 
HETATM   19  H3  UNL     1      27.103  -0.481  51.959  1.00  0.00     0.191 HD
BRANCH  18  20
HETATM   20  C1  UNL     1      28.008   0.646  53.940  1.00  0.00     0.185 C 
HETATM   21  S1  UNL     1      28.680   2.091  53.549  1.00  0.00    -0.040 SA
BRANCH  20  22
HETATM   22  N1  UNL     1      27.793  -0.315  54.981  1.00  0.00    -0.375 N 
HETATM   23  H1  UNL     1      28.013  -1.331  54.818  1.00  0.00     0.158 HD
HETATM   24  H2  UNL     1      27.430   0.366  55.700  1.00  0.00     0.158 HD
ENDBRANCH  20  22
ENDBRANCH  18  20
ENDBRANCH   1  18
TORSDOF 6
ENDMDL
MODEL 7
REMARK VINA RESULT:      -7.2      4.578      6.445
REMARK  6 active torsions:
REMARK  status: ('A' for Active; 'I' for Inactive)
REMARK    1  A    between atoms: N1_1  and  C1_2 
REMARK    2  A    between atoms: C1_2  and  N2_4 
REMARK    3  A    between atoms: N2_4  and  N3_5 
REMARK    4  A    between atoms: C2_6  and  C3_7 
REMARK    5  A    between atoms: C2_6  and  C11_15 
REMARK    6  A    between atoms: C4_8  and  C5_9 
ROOT
HETATM    1  N3  UNL     1      24.663   3.829  50.493  1.00  0.00    -0.172 NA
HETATM    2  C2  UNL     1      25.822   4.033  49.979  1.00  0.00     0.087 C 
ENDROOT
BRANCH   2   3
HETATM    3  C3  UNL     1      26.468   2.802  50.415  1.00  0.00     0.035 C 
HETATM    4  C4  UNL     1      26.479   2.458  51.688  1.00  0.00     0.014 C 
BRANCH   4   5
HETATM    5  C5  UNL     1      27.089   1.257  52.246  1.00  0.00    -0.036 A 
HETATM    6  C6  UNL     1      28.229   1.293  53.021  1.00  0.00     0.011 A 
HETATM    7  C7  UNL     1      28.809   0.161  53.551  1.00  0.00     0.001 A 
HETATM    8  C8  UNL     1      28.262  -1.085  53.324  1.00  0.00     0.000 A 
HETATM    9  C9  UNL     1      27.121  -1.170  52.554  1.00  0.00     0.001 A 
HETATM   10  C10 UNL     1      26.577  -0.008  52.046  1.00  0.00     0.011 A 
ENDBRANCH   4   5
ENDBRANCH   2   3
BRANCH   2  11
HETATM   11  C11 UNL     1      26.518   5.042  49.195  1.00  0.00    -0.006 A 
HETATM   12  C12 UNL     1      25.867   6.200  48.832  1.00  0.00     0.015 A 
HETATM   13  C13 UNL     1      26.604   7.085  48.098  1.00  0.00     0.024 A 
HETATM   14  C14 UNL     1      27.913   6.907  47.705  1.00  0.00     0.034 A 
HETATM   15 CL1  UNL     1      28.769   8.125  46.754  1.00  0.00    -0.084 Cl
HETATM   16  C15 UNL     1      28.549   5.742  48.077  1.00  0.00     0.024 A 
HETATM   17  C16 UNL     1      27.824   4.819  48.827  1.00  0.00     0.015 A 
ENDBRANCH   2  11
BRANCH   1  18
HETATM   18  N2  UNL     1      23.666   4.778  50.332  1.00  0.00    -0.253 N 
HETATM   19  H3  UNL     1      23.625   4.761  49.275  1.00  0.00     0.191 HD
BRANCH  18  20
HETATM   20  C1  UNL     1      23.310   5.188  51.669  1.00  0.00     0.185 C 
HETATM   21  S1  UNL     1      22.037   4.225  52.048  1.00  0.00    -0.040 SA
BRANCH  20  22
HETATM   22  N1  UNL     1      24.177   6.235  52.123  1.00  0.00    -0.375 N 
HETATM   23  H1  UNL     1      24.817   6.074  52.942  1.00  0.00     0.158 HD
HETATM   24  H2  UNL     1      23.881   6.953  51.409  1.00  0.00     0.158 HD
ENDBRANCH  20  22
ENDBRANCH  18  20
ENDBRANCH   1  18
TORSDOF 6
ENDMDL
MODEL 8
REMARK VINA RESULT:      -7.2      3.736      6.650
REMARK  6 active torsions:
REMARK  status: ('A' for Active; 'I' for Inactive)
REMARK    1  A    between atoms: N1_1  and  C1_2 
REMARK    2  A    between atoms: C1_2  and  N2_4 
REMARK    3  A    between atoms: N2_4  and  N3_5 
REMARK    4  A    between atoms: C2_6  and  C3_7 
REMARK    5  A    between atoms: C2_6  and  C11_15 
REMARK    6  A    between atoms: C4_8  and  C5_9 
ROOT
HETATM    1  N3  UNL     1      26.005   1.288  52.002  1.00  0.00    -0.172 NA
HETATM    2  C2  UNL     1      25.351   2.181  51.349  1.00  0.00     0.087 C 
ENDROOT
BRANCH   2   3
HETATM    3  C3  UNL     1      24.003   1.690  51.610  1.00  0.00     0.035 C 
HETATM    4  C4  UNL     1      23.777   0.808  52.562  1.00  0.00     0.014 C 
BRANCH   4   5
HETATM    5  C5  UNL     1      22.481   0.245  52.919  1.00  0.00    -0.036 A 
HETATM    6  C6  UNL     1      21.323   0.551  52.235  1.00  0.00     0.011 A 
HETATM    7  C7  UNL     1      20.096   0.022  52.569  1.00  0.00     0.001 A 
HETATM    8  C8  UNL     1      19.969  -0.856  53.625  1.00  0.00     0.000 A 
HETATM    9  C9  UNL     1      21.100  -1.192  54.339  1.00  0.00     0.001 A 
HETATM   10  C10 UNL     1      22.306  -0.636  53.965  1.00  0.00     0.011 A 
ENDBRANCH   4   5
ENDBRANCH   2   3
BRANCH   2  11
HETATM   11  C11 UNL     1      25.607   3.365  50.545  1.00  0.00    -0.006 A 
HETATM   12  C12 UNL     1      24.744   4.437  50.606  1.00  0.00     0.015 A 
HETATM   13  C13 UNL     1      25.070   5.501  49.815  1.00  0.00     0.024 A 
HETATM   14  C14 UNL     1      26.167   5.579  48.985  1.00  0.00     0.034 A 
HETATM   15 CL1  UNL     1      26.489   7.012  48.005  1.00  0.00    -0.084 Cl
HETATM   16  C15 UNL     1      27.021   4.496  48.936  1.00  0.00     0.024 A 
HETATM   17  C16 UNL     1      26.716   3.395  49.731  1.00  0.00     0.015 A 
ENDBRANCH   2  11
BRANCH   1  18
HETATM   18  N2  UNL     1      27.389   1.345  52.041  1.00  0.00    -0.253 N 
HETATM   19  H3  UNL     1      27.558   1.385  50.998  1.00  0.00     0.191 HD
BRANCH  18  20
HETATM   20  C1  UNL     1      27.731   1.316  53.443  1.00  0.00     0.185 C 
HETATM   21  S1  UNL     1      28.288  -0.209  53.679  1.00  0.00    -0.040 SA
BRANCH  20  22
HETATM   22  N1  UNL     1      27.461   2.584  54.055  1.00  0.00    -0.375 N 
HETATM   23  H1  UNL     1      27.954   3.450  53.719  1.00  0.00     0.158 HD
HETATM   24  H2  UNL     1      26.753   2.231  54.754  1.00  0.00     0.158 HD
ENDBRANCH  20  22
ENDBRANCH  18  20
ENDBRANCH   1  18
TORSDOF 6
ENDMDL
MODEL 9
REMARK VINA RESULT:      -7.2      3.808      6.777
REMARK  6 active torsions:
REMARK  status: ('A' for Active; 'I' for Inactive)
REMARK    1  A    between atoms: N1_1  and  C1_2 
REMARK    2  A    between atoms: C1_2  and  N2_4 
REMARK    3  A    between atoms: N2_4  and  N3_5 
REMARK    4  A    between atoms: C2_6  and  C3_7 
REMARK    5  A    between atoms: C2_6  and  C11_15 
REMARK    6  A    between atoms: C4_8  and  C5_9 
ROOT
HETATM    1  N3  UNL     1      23.868   1.055  52.444  1.00  0.00    -0.172 NA
HETATM    2  C2  UNL     1      25.138   1.229  52.351  1.00  0.00     0.087 C 
ENDROOT
BRANCH   2   3
HETATM    3  C3  UNL     1      25.126   2.511  51.658  1.00  0.00     0.035 C 
HETATM    4  C4  UNL     1      25.929   2.735  50.637  1.00  0.00     0.014 C 
BRANCH   4   5
HETATM    5  C5  UNL     1      26.010   3.969  49.864  1.00  0.00    -0.036 A 
HETATM    6  C6  UNL     1      24.932   4.813  49.694  1.00  0.00     0.011 A 
HETATM    7  C7  UNL     1      25.004   5.979  48.965  1.00  0.00     0.001 A 
HETATM    8  C8  UNL     1      26.182   6.362  48.359  1.00  0.00     0.000 A 
HETATM    9  C9  UNL     1      27.288   5.549  48.501  1.00  0.00     0.001 A 
HETATM   10  C10 UNL     1      27.166   4.392  49.242  1.00  0.00     0.011 A 
ENDBRANCH   4   5
ENDBRANCH   2   3
BRANCH   2  11
HETATM   11  C11 UNL     1      26.372   0.553  52.717  1.00  0.00    -0.006 A 
HETATM   12  C12 UNL     1      26.589  -0.747  52.319  1.00  0.00     0.015 A 
HETATM   13  C13 UNL     1      27.776  -1.294  52.711  1.00  0.00     0.024 A 
HETATM   14  C14 UNL     1      28.746  -0.658  53.455  1.00  0.00     0.034 A 
HETATM   15 CL1  UNL     1      30.250  -1.467  53.905  1.00  0.00    -0.084 Cl
HETATM   16  C15 UNL     1      28.513   0.644  53.846  1.00  0.00     0.024 A 
HETATM   17  C16 UNL     1      27.310   1.230  53.461  1.00  0.00     0.015 A 
ENDBRANCH   2  11
BRANCH   1  18
HETATM   18  N2  UNL     1      23.377  -0.085  53.061  1.00  0.00    -0.253 N 
HETATM   19  H3  UNL     1      24.210  -0.712  52.882  1.00  0.00     0.191 HD
BRANCH  18  20
HETATM   20  C1  UNL     1      22.069   0.281  53.551  1.00  0.00     0.185 C 
HETATM   21  S1  UNL     1      21.765  -0.830  54.719  1.00  0.00    -0.040 SA
BRANCH  20  22
HETATM   22  N1  UNL     1      21.570   1.427  52.851  1.00  0.00    -0.375 N 
HETATM   23  H1  UNL     1      22.014   1.730  51.946  1.00  0.00     0.158 HD
HETATM   24  H2  UNL     1      20.804   1.663  53.537  1.00  0.00     0.158 HD
ENDBRANCH  20  22
ENDBRANCH  18  20
ENDBRANCH   1  18
TORSDOF 6
ENDMDL
