MODEL 1
REMARK VINA RESULT:      -9.2      0.000      0.000
REMARK  2 active torsions:
REMARK  status: ('A' for Active; 'I' for Inactive)
REMARK    1  A    between atoms: C8_8  and  C9_9 
REMARK    2  A    between atoms: C15_19  and  O1_20 
ROOT
HETATM    1  C1  UNL     1      23.434  -0.862  52.999  1.00  0.00     0.044 C 
HETATM    2  C2  UNL     1      24.485   0.183  52.875  1.00  0.00    -0.074 C 
HETATM    3  C3  UNL     1      24.123   1.335  53.465  1.00  0.00     0.003 C 
HETATM    4  C4  UNL     1      25.118   2.363  53.837  1.00  0.00    -0.002 C 
HETATM    5  C5  UNL     1      26.459   2.386  53.951  1.00  0.00     0.002 C 
HETATM    6  C6  UNL     1      27.206   1.179  53.530  1.00  0.00     0.152 C 
HETATM    7  C7  UNL     1      26.778   0.751  52.105  1.00  0.00     0.082 C 
HETATM    8  C8  UNL     1      26.793   2.086  51.587  1.00  0.00     0.069 C 
HETATM    9  N1  UNL     1      27.881   2.599  52.153  1.00  0.00    -0.169 NA
HETATM   10  N2  UNL     1      28.487   1.616  53.003  1.00  0.00    -0.229 N 
HETATM   11  S1  UNL     1      29.812   0.651  53.748  1.00  0.00    -0.001 SA
HETATM   12  C14 UNL     1      29.384  -1.114  53.635  1.00  0.00     0.127 C 
HETATM   13  C15 UNL     1      28.661  -2.205  53.381  1.00  0.00     0.169 C 
HETATM   14  N3  UNL     1      27.624  -1.483  52.938  1.00  0.00    -0.240 NA
HETATM   15  C16 UNL     1      26.402  -1.378  52.843  1.00  0.00     0.102 C 
HETATM   16  C17 UNL     1      25.712  -0.199  52.150  1.00  0.00     0.067 C 
ENDROOT
BRANCH   8  17
HETATM   17  C9  UNL     1      25.930   2.831  50.683  1.00  0.00    -0.026 A 
HETATM   18  C10 UNL     1      26.233   3.945  50.079  1.00  0.00     0.011 A 
HETATM   19  C11 UNL     1      25.114   4.397  49.250  1.00  0.00     0.020 A 
HETATM   20  C12 UNL     1      24.119   3.539  49.358  1.00  0.00     0.016 A 
HETATM   21 CL1  UNL     1      22.500   3.378  48.707  1.00  0.00    -0.089 Cl
HETATM   22  C13 UNL     1      24.547   2.473  50.272  1.00  0.00     0.091 A 
ENDBRANCH   8  17
BRANCH  13  23
HETATM   23  O1  UNL     1      28.523  -3.612  53.373  1.00  0.00    -0.344 OA
HETATM   24  H14 UNL     1      27.575  -3.933  53.118  1.00  0.00     0.219 HD
ENDBRANCH  13  23
TORSDOF 2
ENDMDL
MODEL 2
REMARK VINA RESULT:      -8.2      2.720      3.568
REMARK  2 active torsions:
REMARK  status: ('A' for Active; 'I' for Inactive)
REMARK    1  A    between atoms: C8_8  and  C9_9 
REMARK    2  A    between atoms: C15_19  and  O1_20 
ROOT
HETATM    1  C1  UNL     1      20.200   0.592  53.497  1.00  0.00     0.044 C 
HETATM    2  C2  UNL     1      21.317   1.321  52.838  1.00  0.00    -0.074 C 
HETATM    3  C3  UNL     1      21.028   2.620  52.648  1.00  0.00     0.003 C 
HETATM    4  C4  UNL     1      22.087   3.623  52.403  1.00  0.00    -0.002 C 
HETATM    5  C5  UNL     1      23.426   3.637  52.536  1.00  0.00     0.002 C 
HETATM    6  C6  UNL     1      24.095   2.371  52.911  1.00  0.00     0.152 C 
HETATM    7  C7  UNL     1      23.644   1.225  51.972  1.00  0.00     0.082 C 
HETATM    8  C8  UNL     1      23.746   2.019  50.785  1.00  0.00     0.069 C 
HETATM    9  N1  UNL     1      24.864   2.707  50.997  1.00  0.00    -0.169 NA
HETATM   10  N2  UNL     1      25.403   2.360  52.279  1.00  0.00    -0.229 N 
HETATM   11  S1  UNL     1      26.660   1.930  53.494  1.00  0.00    -0.001 SA
HETATM   12  C14 UNL     1      26.120   0.444  54.394  1.00  0.00     0.127 C 
HETATM   13  C15 UNL     1      25.328  -0.556  54.782  1.00  0.00     0.169 C 
HETATM   14  N3  UNL     1      24.341  -0.166  53.966  1.00  0.00    -0.240 NA
HETATM   15  C16 UNL     1      23.129  -0.072  53.780  1.00  0.00     0.102 C 
HETATM   16  C17 UNL     1      22.519   0.530  52.511  1.00  0.00     0.067 C 
ENDROOT
BRANCH   8  17
HETATM   17  C9  UNL     1      22.935   2.154  49.583  1.00  0.00    -0.026 A 
HETATM   18  C10 UNL     1      21.930   1.397  49.249  1.00  0.00     0.011 A 
HETATM   19  C11 UNL     1      21.361   1.838  47.974  1.00  0.00     0.020 A 
HETATM   20  C12 UNL     1      22.036   2.882  47.535  1.00  0.00     0.016 A 
HETATM   21 CL1  UNL     1      21.978   3.941  46.140  1.00  0.00    -0.089 Cl
HETATM   22  C13 UNL     1      23.090   3.175  48.513  1.00  0.00     0.091 A 
ENDBRANCH   8  17
BRANCH  13  23
HETATM   23  O1  UNL     1      25.100  -1.704  55.575  1.00  0.00    -0.344 OA
HETATM   24  H14 UNL     1      25.305  -1.561  56.578  1.00  0.00     0.219 HD
ENDBRANCH  13  23
TORSDOF 2
ENDMDL
MODEL 3
REMARK VINA RESULT:      -7.8      4.577      5.849
REMARK  2 active torsions:
REMARK  status: ('A' for Active; 'I' for Inactive)
REMARK    1  A    between atoms: C8_8  and  C9_9 
REMARK    2  A    between atoms: C15_19  and  O1_20 
ROOT
HETATM    1  C1  UNL     1      25.453   1.643  51.665  1.00  0.00     0.044 C 
HETATM    2  C2  UNL     1      23.979   1.774  51.518  1.00  0.00    -0.074 C 
HETATM    3  C3  UNL     1      23.608   1.881  50.230  1.00  0.00     0.003 C 
HETATM    4  C4  UNL     1      22.220   1.612  49.797  1.00  0.00    -0.002 C 
HETATM    5  C5  UNL     1      21.150   1.024  50.361  1.00  0.00     0.002 C 
HETATM    6  C6  UNL     1      21.259   0.609  51.778  1.00  0.00     0.152 C 
HETATM    7  C7  UNL     1      21.765   1.787  52.646  1.00  0.00     0.082 C 
HETATM    8  C8  UNL     1      20.913   2.752  52.018  1.00  0.00     0.069 C 
HETATM    9  N1  UNL     1      19.775   2.078  51.878  1.00  0.00    -0.169 NA
HETATM   10  N2  UNL     1      19.943   0.746  52.380  1.00  0.00    -0.229 N 
HETATM   11  S1  UNL     1      19.523  -0.761  53.270  1.00  0.00    -0.001 SA
HETATM   12  C14 UNL     1      20.923  -1.217  54.340  1.00  0.00     0.127 C 
HETATM   13  C15 UNL     1      22.139  -1.174  54.882  1.00  0.00     0.169 C 
HETATM   14  N3  UNL     1      22.498  -0.125  54.131  1.00  0.00    -0.240 NA
HETATM   15  C16 UNL     1      23.398   0.454  53.526  1.00  0.00     0.102 C 
HETATM   16  C17 UNL     1      23.188   1.766  52.764  1.00  0.00     0.067 C 
ENDROOT
BRANCH   8  17
HETATM   17  C9  UNL     1      21.089   4.130  51.587  1.00  0.00    -0.026 A 
HETATM   18  C10 UNL     1      22.013   4.950  52.001  1.00  0.00     0.011 A 
HETATM   19  C11 UNL     1      21.873   6.251  51.342  1.00  0.00     0.020 A 
HETATM   20  C12 UNL     1      20.847   6.211  50.516  1.00  0.00     0.016 A 
HETATM   21 CL1  UNL     1      20.060   7.319  49.409  1.00  0.00    -0.089 Cl
HETATM   22  C13 UNL     1      20.261   4.868  50.596  1.00  0.00     0.091 A 
ENDBRANCH   8  17
BRANCH  13  23
HETATM   23  O1  UNL     1      23.099  -1.682  55.788  1.00  0.00    -0.344 OA
HETATM   24  H14 UNL     1      22.794  -1.650  56.774  1.00  0.00     0.219 HD
ENDBRANCH  13  23
TORSDOF 2
ENDMDL
MODEL 4
REMARK VINA RESULT:      -7.8      3.621      4.939
REMARK  2 active torsions:
REMARK  status: ('A' for Active; 'I' for Inactive)
REMARK    1  A    between atoms: C8_8  and  C9_9 
REMARK    2  A    between atoms: C15_19  and  O1_20 
ROOT
HETATM    1  C1  UNL     1      26.662   3.043  49.681  1.00  0.00     0.044 C 
HETATM    2  C2  UNL     1      25.239   3.042  50.112  1.00  0.00    -0.074 C 
HETATM    3  C3  UNL     1      24.396   3.155  49.070  1.00  0.00     0.003 C 
HETATM    4  C4  UNL     1      22.972   2.773  49.179  1.00  0.00    -0.002 C 
HETATM    5  C5  UNL     1      22.245   2.072  50.069  1.00  0.00     0.002 C 
HETATM    6  C6  UNL     1      22.919   1.626  51.309  1.00  0.00     0.152 C 
HETATM    7  C7  UNL     1      23.632   2.818  51.994  1.00  0.00     0.082 C 
HETATM    8  C8  UNL     1      22.536   3.719  51.798  1.00  0.00     0.069 C 
HETATM    9  N1  UNL     1      21.484   2.949  52.057  1.00  0.00    -0.169 NA
HETATM   10  N2  UNL     1      21.927   1.623  52.372  1.00  0.00    -0.229 N 
HETATM   11  S1  UNL     1      21.992   0.057  53.258  1.00  0.00    -0.001 SA
HETATM   12  C14 UNL     1      23.723  -0.302  53.686  1.00  0.00     0.127 C 
HETATM   13  C15 UNL     1      25.048  -0.164  53.728  1.00  0.00     0.169 C 
HETATM   14  N3  UNL     1      25.014   0.936  52.965  1.00  0.00    -0.240 NA
HETATM   15  C16 UNL     1      25.570   1.614  52.103  1.00  0.00     0.102 C 
HETATM   16  C17 UNL     1      24.988   2.924  51.561  1.00  0.00     0.067 C 
ENDROOT
BRANCH   8  17
HETATM   17  C9  UNL     1      22.432   5.121  51.420  1.00  0.00    -0.026 A 
HETATM   18  C10 UNL     1      23.398   5.994  51.446  1.00  0.00     0.011 A 
HETATM   19  C11 UNL     1      22.916   7.302  50.995  1.00  0.00     0.020 A 
HETATM   20  C12 UNL     1      21.637   7.212  50.692  1.00  0.00     0.016 A 
HETATM   21 CL1  UNL     1      20.388   8.292  50.105  1.00  0.00    -0.089 Cl
HETATM   22  C13 UNL     1      21.217   5.826  50.933  1.00  0.00     0.091 A 
ENDBRANCH   8  17
BRANCH  13  23
HETATM   23  O1  UNL     1      26.316  -0.610  54.168  1.00  0.00    -0.344 OA
HETATM   24  H14 UNL     1      26.290  -1.091  55.082  1.00  0.00     0.219 HD
ENDBRANCH  13  23
TORSDOF 2
ENDMDL
MODEL 5
REMARK VINA RESULT:      -7.7      4.168      5.868
REMARK  2 active torsions:
REMARK  status: ('A' for Active; 'I' for Inactive)
REMARK    1  A    between atoms: C8_8  and  C9_9 
REMARK    2  A    between atoms: C15_19  and  O1_20 
ROOT
HETATM    1  C1  UNL     1      26.429   1.550  52.401  1.00  0.00     0.044 C 
HETATM    2  C2  UNL     1      25.345   2.448  51.920  1.00  0.00    -0.074 C 
HETATM    3  C3  UNL     1      24.521   2.823  52.914  1.00  0.00     0.003 C 
HETATM    4  C4  UNL     1      23.642   4.004  52.790  1.00  0.00    -0.002 C 
HETATM    5  C5  UNL     1      23.574   5.050  51.945  1.00  0.00     0.002 C 
HETATM    6  C6  UNL     1      24.485   5.053  50.779  1.00  0.00     0.152 C 
HETATM    7  C7  UNL     1      24.380   3.713  50.010  1.00  0.00     0.082 C 
HETATM    8  C8  UNL     1      22.951   3.667  50.079  1.00  0.00     0.069 C 
HETATM    9  N1  UNL     1      22.614   4.933  49.857  1.00  0.00    -0.169 NA
HETATM   10  N2  UNL     1      23.799   5.721  49.686  1.00  0.00    -0.229 N 
HETATM   11  S1  UNL     1      24.882   6.961  48.957  1.00  0.00    -0.001 SA
HETATM   12  C14 UNL     1      26.502   6.201  48.628  1.00  0.00     0.127 C 
HETATM   13  C15 UNL     1      27.466   5.281  48.622  1.00  0.00     0.169 C 
HETATM   14  N3  UNL     1      26.702   4.395  49.274  1.00  0.00    -0.240 NA
HETATM   15  C16 UNL     1      26.651   3.475  50.088  1.00  0.00     0.102 C 
HETATM   16  C17 UNL     1      25.347   2.772  50.480  1.00  0.00     0.067 C 
ENDROOT
BRANCH   8  17
HETATM   17  C9  UNL     1      21.982   2.607  50.317  1.00  0.00    -0.026 A 
HETATM   18  C10 UNL     1      22.146   1.344  50.045  1.00  0.00     0.011 A 
HETATM   19  C11 UNL     1      20.955   0.581  50.425  1.00  0.00     0.020 A 
HETATM   20  C12 UNL     1      20.058   1.402  50.935  1.00  0.00     0.016 A 
HETATM   21 CL1  UNL     1      18.440   1.269  51.595  1.00  0.00    -0.089 Cl
HETATM   22  C13 UNL     1      20.627   2.754  50.913  1.00  0.00     0.091 A 
ENDBRANCH   8  17
BRANCH  13  23
HETATM   23  O1  UNL     1      28.775   4.876  48.273  1.00  0.00    -0.344 OA
HETATM   24  H14 UNL     1      29.242   4.312  49.003  1.00  0.00     0.219 HD
ENDBRANCH  13  23
TORSDOF 2
ENDMDL
MODEL 6
REMARK VINA RESULT:      -7.5      4.761      6.908
REMARK  2 active torsions:
REMARK  status: ('A' for Active; 'I' for Inactive)
REMARK    1  A    between atoms: C8_8  and  C9_9 
REMARK    2  A    between atoms: C15_19  and  O1_20 
ROOT
HETATM    1  C1  UNL     1      24.839   6.318  50.278  1.00  0.00     0.044 C 
HETATM    2  C2  UNL     1      24.231   5.058  50.786  1.00  0.00    -0.074 C 
HETATM    3  C3  UNL     1      23.799   5.182  52.053  1.00  0.00     0.003 C 
HETATM    4  C4  UNL     1      22.815   4.242  52.632  1.00  0.00    -0.002 C 
HETATM    5  C5  UNL     1      21.980   3.315  52.127  1.00  0.00     0.002 C 
HETATM    6  C6  UNL     1      22.068   3.025  50.679  1.00  0.00     0.152 C 
HETATM    7  C7  UNL     1      23.534   2.728  50.276  1.00  0.00     0.082 C 
HETATM    8  C8  UNL     1      23.785   1.894  51.413  1.00  0.00     0.069 C 
HETATM    9  N1  UNL     1      22.655   1.201  51.514  1.00  0.00    -0.169 NA
HETATM   10  N2  UNL     1      21.744   1.621  50.490  1.00  0.00    -0.229 N 
HETATM   11  S1  UNL     1      20.521   1.452  49.179  1.00  0.00    -0.001 SA
HETATM   12  C14 UNL     1      21.072   2.416  47.737  1.00  0.00     0.127 C 
HETATM   13  C15 UNL     1      21.816   3.246  47.007  1.00  0.00     0.169 C 
HETATM   14  N3  UNL     1      22.662   3.470  48.021  1.00  0.00    -0.240 NA
HETATM   15  C16 UNL     1      23.399   4.269  48.595  1.00  0.00     0.102 C 
HETATM   16  C17 UNL     1      24.203   3.916  49.851  1.00  0.00     0.067 C 
ENDROOT
BRANCH   8  17
HETATM   17  C9  UNL     1      24.913   1.727  52.318  1.00  0.00    -0.026 A 
HETATM   18  C10 UNL     1      24.932   0.989  53.391  1.00  0.00     0.011 A 
HETATM   19  C11 UNL     1      26.240   1.071  54.044  1.00  0.00     0.020 A 
HETATM   20  C12 UNL     1      27.022   1.873  53.350  1.00  0.00     0.016 A 
HETATM   21 CL1  UNL     1      28.667   2.465  53.471  1.00  0.00    -0.089 Cl
HETATM   22  C13 UNL     1      26.254   2.358  52.198  1.00  0.00     0.091 A 
ENDBRANCH   8  17
BRANCH  13  23
HETATM   23  O1  UNL     1      22.076   3.911  45.787  1.00  0.00    -0.344 OA
HETATM   24  H14 UNL     1      21.230   4.306  45.343  1.00  0.00     0.219 HD
ENDBRANCH  13  23
TORSDOF 2
ENDMDL
MODEL 7
REMARK VINA RESULT:      -7.4      3.713      4.831
REMARK  2 active torsions:
REMARK  status: ('A' for Active; 'I' for Inactive)
REMARK    1  A    between atoms: C8_8  and  C9_9 
REMARK    2  A    between atoms: C15_19  and  O1_20 
ROOT
HETATM    1  C1  UNL     1      18.740   2.372  51.815  1.00  0.00     0.044 C 
HETATM    2  C2  UNL     1      20.177   2.618  51.518  1.00  0.00    -0.074 C 
HETATM    3  C3  UNL     1      20.484   3.927  51.561  1.00  0.00     0.003 C 
HETATM    4  C4  UNL     1      21.879   4.392  51.711  1.00  0.00    -0.002 C 
HETATM    5  C5  UNL     1      23.039   3.808  52.063  1.00  0.00     0.002 C 
HETATM    6  C6  UNL     1      23.038   2.343  52.269  1.00  0.00     0.152 C 
HETATM    7  C7  UNL     1      22.407   1.628  51.049  1.00  0.00     0.082 C 
HETATM    8  C8  UNL     1      23.097   2.436  50.088  1.00  0.00     0.069 C 
HETATM    9  N1  UNL     1      24.310   2.540  50.623  1.00  0.00    -0.169 NA
HETATM   10  N2  UNL     1      24.343   1.841  51.873  1.00  0.00    -0.229 N 
HETATM   11  S1  UNL     1      24.996   0.765  53.161  1.00  0.00    -0.001 SA
HETATM   12  C14 UNL     1      23.710  -0.435  53.627  1.00  0.00     0.127 C 
HETATM   13  C15 UNL     1      22.519  -1.032  53.660  1.00  0.00     0.169 C 
HETATM   14  N3  UNL     1      21.994  -0.157  52.792  1.00  0.00    -0.240 NA
HETATM   15  C16 UNL     1      21.003   0.475  52.433  1.00  0.00     0.102 C 
HETATM   16  C17 UNL     1      21.005   1.430  51.235  1.00  0.00     0.067 C 
ENDROOT
BRANCH   8  17
HETATM   17  C9  UNL     1      22.719   3.053  48.825  1.00  0.00    -0.026 A 
HETATM   18  C10 UNL     1      22.116   2.461  47.834  1.00  0.00     0.011 A 
HETATM   19  C11 UNL     1      21.901   3.402  46.732  1.00  0.00     0.020 A 
HETATM   20  C12 UNL     1      22.384   4.581  47.069  1.00  0.00     0.016 A 
HETATM   21 CL1  UNL     1      22.510   6.164  46.327  1.00  0.00    -0.089 Cl
HETATM   22  C13 UNL     1      22.943   4.466  48.421  1.00  0.00     0.091 A 
ENDBRANCH   8  17
BRANCH  13  23
HETATM   23  O1  UNL     1      21.671  -2.053  54.145  1.00  0.00    -0.344 OA
HETATM   24  H14 UNL     1      21.704  -2.920  53.584  1.00  0.00     0.219 HD
ENDBRANCH  13  23
TORSDOF 2
ENDMDL
MODEL 8
REMARK VINA RESULT:      -7.4      5.063      7.471
REMARK  2 active torsions:
REMARK  status: ('A' for Active; 'I' for Inactive)
REMARK    1  A    between atoms: C8_8  and  C9_9 
REMARK    2  A    between atoms: C15_19  and  O1_20 
ROOT
HETATM    1  C1  UNL     1      19.408   2.793  49.032  1.00  0.00     0.044 C 
HETATM    2  C2  UNL     1      20.767   2.895  49.628  1.00  0.00    -0.074 C 
HETATM    3  C3  UNL     1      21.635   2.044  49.054  1.00  0.00     0.003 C 
HETATM    4  C4  UNL     1      23.097   2.232  49.170  1.00  0.00    -0.002 C 
HETATM    5  C5  UNL     1      23.894   3.245  49.559  1.00  0.00     0.002 C 
HETATM    6  C6  UNL     1      23.248   4.455  50.112  1.00  0.00     0.152 C 
HETATM    7  C7  UNL     1      22.254   4.070  51.236  1.00  0.00     0.082 C 
HETATM    8  C8  UNL     1      23.144   3.127  51.842  1.00  0.00     0.069 C 
HETATM    9  N1  UNL     1      24.316   3.751  51.764  1.00  0.00    -0.169 NA
HETATM   10  N2  UNL     1      24.143   5.014  51.112  1.00  0.00    -0.229 N 
HETATM   11  S1  UNL     1      24.351   6.779  50.820  1.00  0.00    -0.001 SA
HETATM   12  C14 UNL     1      22.710   7.535  50.606  1.00  0.00     0.127 C 
HETATM   13  C15 UNL     1      21.386   7.617  50.476  1.00  0.00     0.169 C 
HETATM   14  N3  UNL     1      21.238   6.289  50.571  1.00  0.00    -0.240 NA
HETATM   15  C16 UNL     1      20.612   5.291  50.220  1.00  0.00     0.102 C 
HETATM   16  C17 UNL     1      20.938   3.878  50.716  1.00  0.00     0.067 C 
ENDROOT
BRANCH   8  17
HETATM   17  C9  UNL     1      22.974   1.806  52.430  1.00  0.00    -0.026 A 
HETATM   18  C10 UNL     1      23.913   0.921  52.609  1.00  0.00     0.011 A 
HETATM   19  C11 UNL     1      23.363  -0.287  53.228  1.00  0.00     0.020 A 
HETATM   20  C12 UNL     1      22.070  -0.124  53.425  1.00  0.00     0.016 A 
HETATM   21 CL1  UNL     1      20.754  -1.071  54.091  1.00  0.00    -0.089 Cl
HETATM   22  C13 UNL     1      21.710   1.213  52.940  1.00  0.00     0.091 A 
ENDBRANCH   8  17
BRANCH  13  23
HETATM   23  O1  UNL     1      20.215   8.390  50.305  1.00  0.00    -0.344 OA
HETATM   24  H14 UNL     1      20.251   9.018  49.485  1.00  0.00     0.219 HD
ENDBRANCH  13  23
TORSDOF 2
ENDMDL
MODEL 9
REMARK VINA RESULT:      -7.2      4.298      5.511
REMARK  2 active torsions:
REMARK  status: ('A' for Active; 'I' for Inactive)
REMARK    1  A    between atoms: C8_8  and  C9_9 
REMARK    2  A    between atoms: C15_19  and  O1_20 
ROOT
HETATM    1  C1  UNL     1      20.766   5.574  50.525  1.00  0.00     0.044 C 
HETATM    2  C2  UNL     1      21.937   4.766  50.958  1.00  0.00    -0.074 C 
HETATM    3  C3  UNL     1      22.737   5.446  51.798  1.00  0.00     0.003 C 
HETATM    4  C4  UNL     1      23.709   4.758  52.673  1.00  0.00    -0.002 C 
HETATM    5  C5  UNL     1      23.898   3.482  53.059  1.00  0.00     0.002 C 
HETATM    6  C6  UNL     1      23.049   2.442  52.437  1.00  0.00     0.152 C 
HETATM    7  C7  UNL     1      23.089   2.565  50.893  1.00  0.00     0.082 C 
HETATM    8  C8  UNL     1      24.506   2.767  50.843  1.00  0.00     0.069 C 
HETATM    9  N1  UNL     1      24.949   1.904  51.753  1.00  0.00    -0.169 NA
HETATM   10  N2  UNL     1      23.838   1.224  52.348  1.00  0.00    -0.229 N 
HETATM   11  S1  UNL     1      22.890  -0.161  53.000  1.00  0.00    -0.001 SA
HETATM   12  C14 UNL     1      21.234  -0.144  52.245  1.00  0.00     0.127 C 
HETATM   13  C15 UNL     1      20.205   0.284  51.515  1.00  0.00     0.169 C 
HETATM   14  N3  UNL     1      20.866   1.382  51.124  1.00  0.00    -0.240 NA
HETATM   15  C16 UNL     1      20.806   2.572  50.821  1.00  0.00     0.102 C 
HETATM   16  C17 UNL     1      22.031   3.397  50.415  1.00  0.00     0.067 C 
ENDROOT
BRANCH   8  17
HETATM   17  C9  UNL     1      25.378   3.637  50.068  1.00  0.00    -0.026 A 
HETATM   18  C10 UNL     1      26.629   3.411  49.784  1.00  0.00     0.011 A 
HETATM   19  C11 UNL     1      27.178   4.509  48.986  1.00  0.00     0.020 A 
HETATM   20  C12 UNL     1      26.239   5.413  48.787  1.00  0.00     0.016 A 
HETATM   21 CL1  UNL     1      26.110   6.955  47.965  1.00  0.00    -0.089 Cl
HETATM   22  C13 UNL     1      25.019   4.942  49.452  1.00  0.00     0.091 A 
ENDBRANCH   8  17
BRANCH  13  23
HETATM   23  O1  UNL     1      18.888   0.113  51.031  1.00  0.00    -0.344 OA
HETATM   24  H14 UNL     1      18.620  -0.877  50.902  1.00  0.00     0.219 HD
ENDBRANCH  13  23
TORSDOF 2
ENDMDL
