MODEL 1
REMARK VINA RESULT:      -7.5      0.000      0.000
REMARK  4 active torsions:
REMARK  status: ('A' for Active; 'I' for Inactive)
REMARK    1  A    between atoms: N1_1  and  N2_2 
REMARK    2  A    between atoms: C3_5  and  C4_6 
REMARK    3  A    between atoms: C4_6  and  C5_7 
REMARK    4  A    between atoms: C5_7  and  C6_8 
ROOT
HETATM    1  N2  UNL     1      26.849   0.103  53.519  1.00  0.00    -0.344 N 
HETATM    2  C1  UNL     1      27.075   0.194  52.106  1.00  0.00     0.147 C 
HETATM    3  C2  UNL     1      26.691   1.502  51.555  1.00  0.00     0.048 C 
HETATM    4  C3  UNL     1      26.490   2.606  50.877  1.00  0.00    -0.049 C 
HETATM    5  C7  UNL     1      25.266   3.391  51.105  1.00  0.00    -0.061 A 
HETATM    6  C8  UNL     1      24.179   4.152  51.264  1.00  0.00     0.048 A 
HETATM    7  C9  UNL     1      22.835   4.745  51.698  1.00  0.00     0.177 C 
HETATM    8  O1  UNL     1      22.259   3.805  52.613  1.00  0.00    -0.388 OA
HETATM    9  C10 UNL     1      21.741   2.807  51.821  1.00  0.00     0.193 C 
HETATM   10  C11 UNL     1      21.443   1.493  52.444  1.00  0.00     0.193 C 
HETATM   11  O2  UNL     1      22.636   0.996  52.853  1.00  0.00    -0.389 OA
HETATM   12  C12 UNL     1      22.895  -0.301  53.008  1.00  0.00     0.175 C 
HETATM   13  C13 UNL     1      24.419  -0.463  53.240  1.00  0.00     0.109 C 
HETATM   14  C14 UNL     1      25.444   0.444  53.350  1.00  0.00     0.034 C 
HETATM   15  C15 UNL     1      25.776   1.937  53.546  1.00  0.00     0.028 C 
HETATM   16  C16 UNL     1      24.545   2.744  53.728  1.00  0.00    -0.017 C 
HETATM   17  C17 UNL     1      24.718   3.182  52.471  1.00  0.00     0.053 A 
ENDROOT
BRANCH   4  18
HETATM   18  C4  UNL     1      26.650   3.465  49.801  1.00  0.00     0.006 C 
BRANCH  18  19
HETATM   19  C5  UNL     1      26.768   4.318  48.913  1.00  0.00     0.005 C 
BRANCH  19  20
HETATM   20  C6  UNL     1      27.785   5.320  48.544  1.00  0.00     0.249 C 
HETATM   21  F1  UNL     1      28.935   4.648  48.133  1.00  0.00    -0.251 F 
ENDBRANCH  19  20
ENDBRANCH  18  19
ENDBRANCH   4  18
BRANCH   1  22
HETATM   22  N1  UNL     1      26.746  -0.025  54.974  1.00  0.00    -0.252 NA
HETATM   23  H1  UNL     1      27.419   0.580  55.422  1.00  0.00     0.142 HD
HETATM   24  H2  UNL     1      27.169  -0.976  55.111  1.00  0.00     0.142 HD
ENDBRANCH   1  22
TORSDOF 4
ENDMDL
MODEL 2
REMARK VINA RESULT:      -7.4      3.083      4.520
REMARK  4 active torsions:
REMARK  status: ('A' for Active; 'I' for Inactive)
REMARK    1  A    between atoms: N1_1  and  N2_2 
REMARK    2  A    between atoms: C3_5  and  C4_6 
REMARK    3  A    between atoms: C4_6  and  C5_7 
REMARK    4  A    between atoms: C5_7  and  C6_8 
ROOT
HETATM    1  N2  UNL     1      21.530  -0.327  53.569  1.00  0.00    -0.344 N 
HETATM    2  C1  UNL     1      22.604  -1.214  53.233  1.00  0.00     0.147 C 
HETATM    3  C2  UNL     1      23.886  -0.514  53.066  1.00  0.00     0.048 C 
HETATM    4  C3  UNL     1      25.127  -0.107  52.946  1.00  0.00    -0.049 C 
HETATM    5  C7  UNL     1      25.424   1.127  52.204  1.00  0.00    -0.061 A 
HETATM    6  C8  UNL     1      25.764   2.239  51.545  1.00  0.00     0.048 A 
HETATM    7  C9  UNL     1      25.770   3.532  50.722  1.00  0.00     0.177 C 
HETATM    8  O1  UNL     1      24.417   3.750  50.307  1.00  0.00    -0.388 OA
HETATM    9  C10 UNL     1      24.224   2.892  49.249  1.00  0.00     0.193 C 
HETATM   10  C11 UNL     1      22.833   2.561  48.851  1.00  0.00     0.193 C 
HETATM   11  O2  UNL     1      22.291   1.904  49.904  1.00  0.00    -0.389 OA
HETATM   12  C12 UNL     1      21.285   1.036  49.809  1.00  0.00     0.175 C 
HETATM   13  C13 UNL     1      21.130   0.328  51.180  1.00  0.00     0.109 C 
HETATM   14  C14 UNL     1      21.778   0.476  52.381  1.00  0.00     0.034 C 
HETATM   15  C15 UNL     1      22.723   1.390  53.187  1.00  0.00     0.028 C 
HETATM   16  C16 UNL     1      23.067   2.616  52.425  1.00  0.00    -0.017 C 
HETATM   17  C17 UNL     1      24.273   2.069  52.207  1.00  0.00     0.053 A 
ENDROOT
BRANCH   4  18
HETATM   18  C4  UNL     1      26.503  -0.271  52.912  1.00  0.00     0.006 C 
BRANCH  18  19
HETATM   19  C5  UNL     1      27.719  -0.487  52.971  1.00  0.00     0.005 C 
BRANCH  19  20
HETATM   20  C6  UNL     1      28.809  -0.130  53.899  1.00  0.00     0.249 C 
HETATM   21  F1  UNL     1      28.304  -0.150  55.198  1.00  0.00    -0.251 F 
ENDBRANCH  19  20
ENDBRANCH  18  19
ENDBRANCH   4  18
BRANCH   1  22
HETATM   22  N1  UNL     1      20.411   0.502  54.019  1.00  0.00    -0.252 NA
HETATM   23  H1  UNL     1      20.023   1.013  53.239  1.00  0.00     0.142 HD
HETATM   24  H2  UNL     1      20.926   1.249  54.546  1.00  0.00     0.142 HD
ENDBRANCH   1  22
TORSDOF 4
ENDMDL
MODEL 3
REMARK VINA RESULT:      -7.3      3.681      6.163
REMARK  4 active torsions:
REMARK  status: ('A' for Active; 'I' for Inactive)
REMARK    1  A    between atoms: N1_1  and  N2_2 
REMARK    2  A    between atoms: C3_5  and  C4_6 
REMARK    3  A    between atoms: C4_6  and  C5_7 
REMARK    4  A    between atoms: C5_7  and  C6_8 
ROOT
HETATM    1  N2  UNL     1      23.311   5.284  51.169  1.00  0.00    -0.344 N 
HETATM    2  C1  UNL     1      22.425   4.398  50.473  1.00  0.00     0.147 C 
HETATM    3  C2  UNL     1      22.114   3.186  51.245  1.00  0.00     0.048 C 
HETATM    4  C3  UNL     1      21.650   2.085  51.783  1.00  0.00    -0.049 C 
HETATM    5  C7  UNL     1      22.557   1.192  52.521  1.00  0.00    -0.061 A 
HETATM    6  C8  UNL     1      23.324   0.338  53.206  1.00  0.00     0.048 A 
HETATM    7  C9  UNL     1      24.484  -0.389  53.893  1.00  0.00     0.177 C 
HETATM    8  O1  UNL     1      25.663   0.368  53.596  1.00  0.00    -0.388 OA
HETATM    9  C10 UNL     1      26.000   0.016  52.309  1.00  0.00     0.193 C 
HETATM   10  C11 UNL     1      26.914   0.905  51.549  1.00  0.00     0.193 C 
HETATM   11  O2  UNL     1      26.254   2.079  51.402  1.00  0.00    -0.389 OA
HETATM   12  C12 UNL     1      26.477   2.946  50.415  1.00  0.00     0.175 C 
HETATM   13  C13 UNL     1      25.362   4.023  50.461  1.00  0.00     0.109 C 
HETATM   14  C14 UNL     1      24.305   4.230  51.312  1.00  0.00     0.034 C 
HETATM   15  C15 UNL     1      23.702   3.836  52.675  1.00  0.00     0.028 C 
HETATM   16  C16 UNL     1      24.588   2.898  53.406  1.00  0.00    -0.017 C 
HETATM   17  C17 UNL     1      23.722   1.924  53.083  1.00  0.00     0.053 A 
ENDROOT
BRANCH   4  18
HETATM   18  C4  UNL     1      20.763   1.027  51.910  1.00  0.00     0.006 C 
BRANCH  18  19
HETATM   19  C5  UNL     1      19.886   0.161  52.024  1.00  0.00     0.005 C 
BRANCH  19  20
HETATM   20  C6  UNL     1      19.293  -0.595  53.142  1.00  0.00     0.249 C 
HETATM   21  F1  UNL     1      20.328  -1.133  53.907  1.00  0.00    -0.251 F 
ENDBRANCH  19  20
ENDBRANCH  18  19
ENDBRANCH   4  18
BRANCH   1  22
HETATM   22  N1  UNL     1      24.124   6.284  51.863  1.00  0.00    -0.252 NA
HETATM   23  H1  UNL     1      24.207   6.045  52.840  1.00  0.00     0.142 HD
HETATM   24  H2  UNL     1      23.455   7.093  51.882  1.00  0.00     0.142 HD
ENDBRANCH   1  22
TORSDOF 4
ENDMDL
MODEL 4
REMARK VINA RESULT:      -7.0      3.624      5.785
REMARK  4 active torsions:
REMARK  status: ('A' for Active; 'I' for Inactive)
REMARK    1  A    between atoms: N1_1  and  N2_2 
REMARK    2  A    between atoms: C3_5  and  C4_6 
REMARK    3  A    between atoms: C4_6  and  C5_7 
REMARK    4  A    between atoms: C5_7  and  C6_8 
ROOT
HETATM    1  N2  UNL     1      25.585   3.154  51.927  1.00  0.00    -0.344 N 
HETATM    2  C1  UNL     1      25.062   2.540  53.111  1.00  0.00     0.147 C 
HETATM    3  C2  UNL     1      24.019   1.546  52.819  1.00  0.00     0.048 C 
HETATM    4  C3  UNL     1      23.135   0.578  52.781  1.00  0.00    -0.049 C 
HETATM    5  C7  UNL     1      21.978   0.679  51.877  1.00  0.00    -0.061 A 
HETATM    6  C8  UNL     1      20.906   0.706  51.080  1.00  0.00     0.048 A 
HETATM    7  C9  UNL     1      19.820   1.085  50.068  1.00  0.00     0.177 C 
HETATM    8  O1  UNL     1      20.134   2.409  49.621  1.00  0.00    -0.388 OA
HETATM    9  C10 UNL     1      19.704   3.239  50.630  1.00  0.00     0.193 C 
HETATM   10  C11 UNL     1      20.237   4.623  50.683  1.00  0.00     0.193 C 
HETATM   11  O2  UNL     1      21.568   4.501  50.909  1.00  0.00    -0.389 OA
HETATM   12  C12 UNL     1      22.318   5.434  51.491  1.00  0.00     0.175 C 
HETATM   13  C13 UNL     1      23.710   4.817  51.786  1.00  0.00     0.109 C 
HETATM   14  C14 UNL     1      24.255   3.585  51.522  1.00  0.00     0.034 C 
HETATM   15  C15 UNL     1      24.073   2.285  50.712  1.00  0.00     0.028 C 
HETATM   16  C16 UNL     1      22.881   2.360  49.833  1.00  0.00    -0.017 C 
HETATM   17  C17 UNL     1      22.263   1.545  50.704  1.00  0.00     0.053 A 
ENDROOT
BRANCH   4  18
HETATM   18  C4  UNL     1      22.441  -0.508  53.291  1.00  0.00     0.006 C 
BRANCH  18  19
HETATM   19  C5  UNL     1      21.900  -1.482  53.829  1.00  0.00     0.005 C 
BRANCH  19  20
HETATM   20  C6  UNL     1      20.532  -1.819  54.265  1.00  0.00     0.249 C 
HETATM   21  F1  UNL     1      19.667  -0.825  53.809  1.00  0.00    -0.251 F 
ENDBRANCH  19  20
ENDBRANCH  18  19
ENDBRANCH   4  18
BRANCH   1  22
HETATM   22  N1  UNL     1      26.241   3.745  50.759  1.00  0.00    -0.252 NA
HETATM   23  H1  UNL     1      27.091   4.212  51.039  1.00  0.00     0.142 HD
HETATM   24  H2  UNL     1      25.595   4.548  50.563  1.00  0.00     0.142 HD
ENDBRANCH   1  22
TORSDOF 4
ENDMDL
MODEL 5
REMARK VINA RESULT:      -6.7      3.429      5.234
REMARK  4 active torsions:
REMARK  status: ('A' for Active; 'I' for Inactive)
REMARK    1  A    between atoms: N1_1  and  N2_2 
REMARK    2  A    between atoms: C3_5  and  C4_6 
REMARK    3  A    between atoms: C4_6  and  C5_7 
REMARK    4  A    between atoms: C5_7  and  C6_8 
ROOT
HETATM    1  N2  UNL     1      23.610   4.694  49.423  1.00  0.00    -0.344 N 
HETATM    2  C1  UNL     1      24.248   4.904  50.689  1.00  0.00     0.147 C 
HETATM    3  C2  UNL     1      24.471   3.652  51.426  1.00  0.00     0.048 C 
HETATM    4  C3  UNL     1      24.831   2.664  52.208  1.00  0.00    -0.049 C 
HETATM    5  C7  UNL     1      23.907   1.543  52.444  1.00  0.00    -0.061 A 
HETATM    6  C8  UNL     1      23.119   0.495  52.699  1.00  0.00     0.048 A 
HETATM    7  C9  UNL     1      21.965  -0.511  52.766  1.00  0.00     0.177 C 
HETATM    8  O1  UNL     1      20.886   0.066  52.022  1.00  0.00    -0.388 OA
HETATM    9  C10 UNL     1      20.329   0.999  52.866  1.00  0.00     0.193 C 
HETATM   10  C11 UNL     1      19.466   2.056  52.282  1.00  0.00     0.193 C 
HETATM   11  O2  UNL     1      20.271   2.789  51.475  1.00  0.00    -0.389 OA
HETATM   12  C12 UNL     1      20.052   4.063  51.155  1.00  0.00     0.175 C 
HETATM   13  C13 UNL     1      21.313   4.601  50.431  1.00  0.00     0.109 C 
HETATM   14  C14 UNL     1      22.495   4.009  50.061  1.00  0.00     0.034 C 
HETATM   15  C15 UNL     1      23.211   2.656  49.874  1.00  0.00     0.028 C 
HETATM   16  C16 UNL     1      22.300   1.520  50.156  1.00  0.00    -0.017 C 
HETATM   17  C17 UNL     1      22.954   1.362  51.317  1.00  0.00     0.053 A 
ENDROOT
BRANCH   4  18
HETATM   18  C4  UNL     1      25.555   2.074  53.232  1.00  0.00     0.006 C 
BRANCH  18  19
HETATM   19  C5  UNL     1      26.291   1.612  54.113  1.00  0.00     0.005 C 
BRANCH  19  20
HETATM   20  C6  UNL     1      26.575   0.268  54.650  1.00  0.00     0.249 C 
HETATM   21  F1  UNL     1      26.083  -0.678  53.751  1.00  0.00    -0.251 F 
ENDBRANCH  19  20
ENDBRANCH  18  19
ENDBRANCH   4  18
BRANCH   1  22
HETATM   22  N1  UNL     1      23.061   4.545  48.074  1.00  0.00    -0.252 NA
HETATM   23  H1  UNL     1      22.070   4.740  48.081  1.00  0.00     0.142 HD
HETATM   24  H2  UNL     1      23.086   3.500  47.972  1.00  0.00     0.142 HD
ENDBRANCH   1  22
TORSDOF 4
ENDMDL
MODEL 6
REMARK VINA RESULT:      -6.7      3.452      5.219
REMARK  4 active torsions:
REMARK  status: ('A' for Active; 'I' for Inactive)
REMARK    1  A    between atoms: N1_1  and  N2_2 
REMARK    2  A    between atoms: C3_5  and  C4_6 
REMARK    3  A    between atoms: C4_6  and  C5_7 
REMARK    4  A    between atoms: C5_7  and  C6_8 
ROOT
HETATM    1  N2  UNL     1      21.585   5.634  48.231  1.00  0.00    -0.344 N 
HETATM    2  C1  UNL     1      22.529   6.673  48.522  1.00  0.00     0.147 C 
HETATM    3  C2  UNL     1      23.909   6.175  48.613  1.00  0.00     0.048 C 
HETATM    4  C3  UNL     1      25.201   5.962  48.662  1.00  0.00    -0.049 C 
HETATM    5  C7  UNL     1      25.722   4.782  49.372  1.00  0.00    -0.061 A 
HETATM    6  C8  UNL     1      26.261   3.732  49.997  1.00  0.00     0.048 A 
HETATM    7  C9  UNL     1      26.508   2.451  50.801  1.00  0.00     0.177 C 
HETATM    8  O1  UNL     1      25.227   2.027  51.283  1.00  0.00    -0.388 OA
HETATM    9  C10 UNL     1      24.964   2.840  52.361  1.00  0.00     0.193 C 
HETATM   10  C11 UNL     1      23.561   2.953  52.835  1.00  0.00     0.193 C 
HETATM   11  O2  UNL     1      22.870   3.526  51.821  1.00  0.00    -0.389 OA
HETATM   12  C12 UNL     1      21.751   4.230  51.980  1.00  0.00     0.175 C 
HETATM   13  C13 UNL     1      21.417   4.914  50.629  1.00  0.00     0.109 C 
HETATM   14  C14 UNL     1      22.015   4.872  49.394  1.00  0.00     0.034 C 
HETATM   15  C15 UNL     1      23.043   4.118  48.528  1.00  0.00     0.028 C 
HETATM   16  C16 UNL     1      23.610   2.954  49.253  1.00  0.00    -0.017 C 
HETATM   17  C17 UNL     1      24.729   3.677  49.416  1.00  0.00     0.053 A 
ENDROOT
BRANCH   4  18
HETATM   18  C4  UNL     1      26.536   6.332  48.627  1.00  0.00     0.006 C 
BRANCH  18  19
HETATM   19  C5  UNL     1      27.709   6.704  48.490  1.00  0.00     0.005 C 
BRANCH  19  20
HETATM   20  C6  UNL     1      28.988   6.050  48.158  1.00  0.00     0.249 C 
HETATM   21  F1  UNL     1      28.767   4.677  48.057  1.00  0.00    -0.251 F 
ENDBRANCH  19  20
ENDBRANCH  18  19
ENDBRANCH   4  18
BRANCH   1  22
HETATM   22  N1  UNL     1      20.582   4.647  47.829  1.00  0.00    -0.252 NA
HETATM   23  H1  UNL     1      20.888   4.161  46.999  1.00  0.00     0.142 HD
HETATM   24  H2  UNL     1      19.831   5.280  47.456  1.00  0.00     0.142 HD
ENDBRANCH   1  22
TORSDOF 4
ENDMDL
MODEL 7
REMARK VINA RESULT:      -6.7      8.772     10.742
REMARK  4 active torsions:
REMARK  status: ('A' for Active; 'I' for Inactive)
REMARK    1  A    between atoms: N1_1  and  N2_2 
REMARK    2  A    between atoms: C3_5  and  C4_6 
REMARK    3  A    between atoms: C4_6  and  C5_7 
REMARK    4  A    between atoms: C5_7  and  C6_8 
ROOT
HETATM    1  N2  UNL     1      28.969   7.995  48.584  1.00  0.00    -0.344 N 
HETATM    2  C1  UNL     1      29.073   7.057  47.505  1.00  0.00     0.147 C 
HETATM    3  C2  UNL     1      30.283   6.227  47.593  1.00  0.00     0.048 C 
HETATM    4  C3  UNL     1      31.246   5.339  47.520  1.00  0.00    -0.049 C 
HETATM    5  C7  UNL     1      32.634   5.742  47.794  1.00  0.00    -0.061 A 
HETATM    6  C8  UNL     1      33.915   6.038  48.032  1.00  0.00     0.048 A 
HETATM    7  C9  UNL     1      35.240   6.737  48.354  1.00  0.00     0.177 C 
HETATM    8  O1  UNL     1      34.932   8.126  48.513  1.00  0.00    -0.388 OA
HETATM    9  C10 UNL     1      34.805   8.614  47.233  1.00  0.00     0.193 C 
HETATM   10  C11 UNL     1      34.093   9.902  47.034  1.00  0.00     0.193 C 
HETATM   11  O2  UNL     1      32.815   9.684  47.426  1.00  0.00    -0.389 OA
HETATM   12  C12 UNL     1      31.766  10.374  46.981  1.00  0.00     0.175 C 
HETATM   13  C13 UNL     1      30.479   9.663  47.473  1.00  0.00     0.109 C 
HETATM   14  C14 UNL     1      30.271   8.560  48.264  1.00  0.00     0.034 C 
HETATM   15  C15 UNL     1      30.945   7.579  49.243  1.00  0.00     0.028 C 
HETATM   16  C16 UNL     1      32.361   7.949  49.488  1.00  0.00    -0.017 C 
HETATM   17  C17 UNL     1      32.704   6.921  48.696  1.00  0.00     0.053 A 
ENDROOT
BRANCH   4  18
HETATM   18  C4  UNL     1      31.839   4.166  47.083  1.00  0.00     0.006 C 
BRANCH  18  19
HETATM   19  C5  UNL     1      32.275   3.063  46.729  1.00  0.00     0.005 C 
BRANCH  19  20
HETATM   20  C6  UNL     1      32.935   1.927  47.397  1.00  0.00     0.249 C 
HETATM   21  F1  UNL     1      33.983   2.422  48.173  1.00  0.00    -0.251 F 
ENDBRANCH  19  20
ENDBRANCH  18  19
ENDBRANCH   4  18
BRANCH   1  22
HETATM   22  N1  UNL     1      28.740   8.901  49.711  1.00  0.00    -0.252 NA
HETATM   23  H1  UNL     1      27.793   8.803  50.047  1.00  0.00     0.142 HD
HETATM   24  H2  UNL     1      28.709   9.823  49.210  1.00  0.00     0.142 HD
ENDBRANCH   1  22
TORSDOF 4
ENDMDL
MODEL 8
REMARK VINA RESULT:      -6.6      3.705      5.834
REMARK  4 active torsions:
REMARK  status: ('A' for Active; 'I' for Inactive)
REMARK    1  A    between atoms: N1_1  and  N2_2 
REMARK    2  A    between atoms: C3_5  and  C4_6 
REMARK    3  A    between atoms: C4_6  and  C5_7 
REMARK    4  A    between atoms: C5_7  and  C6_8 
ROOT
HETATM    1  N2  UNL     1      25.295  -0.010  53.120  1.00  0.00    -0.344 N 
HETATM    2  C1  UNL     1      24.319  -0.366  54.107  1.00  0.00     0.147 C 
HETATM    3  C2  UNL     1      22.948  -0.359  53.576  1.00  0.00     0.048 C 
HETATM    4  C3  UNL     1      21.674  -0.488  53.295  1.00  0.00    -0.049 C 
HETATM    5  C7  UNL     1      21.003   0.522  52.461  1.00  0.00    -0.061 A 
HETATM    6  C8  UNL     1      20.332   1.400  51.710  1.00  0.00     0.048 A 
HETATM    7  C9  UNL     1      19.907   2.590  50.844  1.00  0.00     0.177 C 
HETATM    8  O1  UNL     1      21.049   3.450  50.756  1.00  0.00    -0.388 OA
HETATM    9  C10 UNL     1      21.079   4.129  51.951  1.00  0.00     0.193 C 
HETATM   10  C11 UNL     1      22.345   4.788  52.359  1.00  0.00     0.193 C 
HETATM   11  O2  UNL     1      23.245   3.790  52.532  1.00  0.00    -0.389 OA
HETATM   12  C12 UNL     1      24.308   3.868  53.330  1.00  0.00     0.175 C 
HETATM   13  C13 UNL     1      24.933   2.453  53.439  1.00  0.00     0.109 C 
HETATM   14  C14 UNL     1      24.617   1.251  52.856  1.00  0.00     0.034 C 
HETATM   15  C15 UNL     1      23.795   0.582  51.736  1.00  0.00     0.028 C 
HETATM   16  C16 UNL     1      23.076   1.590  50.919  1.00  0.00    -0.017 C 
HETATM   17  C17 UNL     1      21.954   1.214  51.552  1.00  0.00     0.053 A 
ENDROOT
BRANCH   4  18
HETATM   18  C4  UNL     1      20.382  -0.940  53.510  1.00  0.00     0.006 C 
BRANCH  18  19
HETATM   19  C5  UNL     1      19.253  -1.346  53.813  1.00  0.00     0.005 C 
BRANCH  19  20
HETATM   20  C6  UNL     1      17.934  -1.378  53.156  1.00  0.00     0.249 C 
HETATM   21  F1  UNL     1      18.096  -1.000  51.824  1.00  0.00    -0.251 F 
ENDBRANCH  19  20
ENDBRANCH  18  19
ENDBRANCH   4  18
BRANCH   1  22
HETATM   22  N1  UNL     1      26.354   0.238  52.140  1.00  0.00    -0.252 NA
HETATM   23  H1  UNL     1      26.896   1.046  52.414  1.00  0.00     0.142 HD
HETATM   24  H2  UNL     1      25.788   0.607  51.337  1.00  0.00     0.142 HD
ENDBRANCH   1  22
TORSDOF 4
ENDMDL
MODEL 9
REMARK VINA RESULT:      -6.3      4.338      6.147
REMARK  4 active torsions:
REMARK  status: ('A' for Active; 'I' for Inactive)
REMARK    1  A    between atoms: N1_1  and  N2_2 
REMARK    2  A    between atoms: C3_5  and  C4_6 
REMARK    3  A    between atoms: C4_6  and  C5_7 
REMARK    4  A    between atoms: C5_7  and  C6_8 
ROOT
HETATM    1  N2  UNL     1      24.725   4.047  50.472  1.00  0.00    -0.344 N 
HETATM    2  C1  UNL     1      25.734   3.475  49.630  1.00  0.00     0.147 C 
HETATM    3  C2  UNL     1      26.724   4.464  49.182  1.00  0.00     0.048 C 
HETATM    4  C3  UNL     1      27.745   5.154  48.734  1.00  0.00    -0.049 C 
HETATM    5  C7  UNL     1      27.533   6.504  48.189  1.00  0.00    -0.061 A 
HETATM    6  C8  UNL     1      27.411   7.735  47.682  1.00  0.00     0.048 A 
HETATM    7  C9  UNL     1      26.894   9.084  47.171  1.00  0.00     0.177 C 
HETATM    8  O1  UNL     1      25.468   9.035  47.285  1.00  0.00    -0.388 OA
HETATM    9  C10 UNL     1      25.048   8.288  46.208  1.00  0.00     0.193 C 
HETATM   10  C11 UNL     1      23.686   7.699  46.244  1.00  0.00     0.193 C 
HETATM   11  O2  UNL     1      23.690   6.814  47.269  1.00  0.00    -0.389 OA
HETATM   12  C12 UNL     1      22.883   5.757  47.351  1.00  0.00     0.175 C 
HETATM   13  C13 UNL     1      23.367   4.874  48.530  1.00  0.00     0.109 C 
HETATM   14  C14 UNL     1      24.376   5.021  49.449  1.00  0.00     0.034 C 
HETATM   15  C15 UNL     1      25.382   6.023  50.051  1.00  0.00     0.028 C 
HETATM   16  C16 UNL     1      25.207   7.378  49.471  1.00  0.00    -0.017 C 
HETATM   17  C17 UNL     1      26.322   7.150  48.759  1.00  0.00     0.053 A 
ENDROOT
BRANCH   4  18
HETATM   18  C4  UNL     1      29.018   5.315  48.210  1.00  0.00     0.006 C 
BRANCH  18  19
HETATM   19  C5  UNL     1      30.146   5.569  47.769  1.00  0.00     0.005 C 
BRANCH  19  20
HETATM   20  C6  UNL     1      31.392   4.810  47.564  1.00  0.00     0.249 C 
HETATM   21  F1  UNL     1      32.405   5.419  48.304  1.00  0.00    -0.251 F 
ENDBRANCH  19  20
ENDBRANCH  18  19
ENDBRANCH   4  18
BRANCH   1  22
HETATM   22  N1  UNL     1      23.726   4.538  51.423  1.00  0.00    -0.252 NA
HETATM   23  H1  UNL     1      22.808   4.207  51.163  1.00  0.00     0.142 HD
HETATM   24  H2  UNL     1      23.686   5.552  51.151  1.00  0.00     0.142 HD
ENDBRANCH   1  22
TORSDOF 4
ENDMDL
