MODEL 1
REMARK VINA RESULT:      -7.0      0.000      0.000
REMARK  9 active torsions:
REMARK  status: ('A' for Active; 'I' for Inactive)
REMARK       I    between atoms: N1_1  and  C1_2 
REMARK    1  A    between atoms: C1_2  and  C2_4 
REMARK    2  A    between atoms: C2_4  and  N2_13 
REMARK    3  A    between atoms: C3_5  and  C4_6 
REMARK    4  A    between atoms: C7_9  and  O2_10 
REMARK    5  A    between atoms: N2_13  and  C10_14 
REMARK    6  A    between atoms: N2_13  and  C11_16 
REMARK    7  A    between atoms: C11_16  and  C12_17 
REMARK    8  A    between atoms: C12_17  and  C13_18 
REMARK    9  A    between atoms: C13_18  and  C14_19 
ROOT
HETATM    1  C2  UNL     1      23.419   3.072  50.986  1.00  0.00     0.104 C 
HETATM    2  C3  UNL     1      23.127   1.798  50.923  1.00  0.00     0.046 C 
ENDROOT
BRANCH   1   3
HETATM    3  C1  UNL     1      23.159   3.896  52.144  1.00  0.00     0.266 C 
HETATM    4  N1  UNL     1      24.094   4.035  53.203  1.00  0.00    -0.365 N 
HETATM    5  H1  UNL     1      24.906   4.601  53.605  1.00  0.00     0.159 HD
HETATM    6  H2  UNL     1      24.698   3.987  54.043  1.00  0.00     0.159 HD
HETATM    7  O1  UNL     1      22.483   4.669  52.843  1.00  0.00    -0.266 OA
ENDBRANCH   1   3
BRANCH   1   8
HETATM    8  N2  UNL     1      24.022   3.674  49.868  1.00  0.00    -0.331 N 
BRANCH   8   9
HETATM    9  C10 UNL     1      23.324   3.766  48.639  1.00  0.00     0.477 C 
HETATM   10  O3  UNL     1      22.499   3.769  47.732  1.00  0.00    -0.392 OA
ENDBRANCH   8   9
BRANCH   8  11
HETATM   11  C11 UNL     1      25.329   4.257  49.761  1.00  0.00     0.134 C 
BRANCH  11  12
HETATM   12  C12 UNL     1      26.389   3.158  49.628  1.00  0.00     0.050 C 
BRANCH  12  13
HETATM   13  C13 UNL     1      26.699   2.572  50.906  1.00  0.00     0.012 C 
BRANCH  13  14
HETATM   14  C14 UNL     1      26.677   1.878  52.004  1.00  0.00     0.071 A 
HETATM   15  C15 UNL     1      26.758   0.447  51.614  1.00  0.00     0.037 A 
HETATM   16  C16 UNL     1      26.755  -0.511  52.554  1.00  0.00     0.005 A 
HETATM   17  C17 UNL     1      26.669  -0.078  53.925  1.00  0.00     0.025 A 
HETATM   18  C18 UNL     1      26.595   1.207  54.291  1.00  0.00     0.142 A 
HETATM   19  O4  UNL     1      26.599   2.177  53.339  1.00  0.00    -0.323 OA
ENDBRANCH  13  14
ENDBRANCH  12  13
ENDBRANCH  11  12
ENDBRANCH   8  11
ENDBRANCH   1   8
BRANCH   2  20
HETATM   20  C4  UNL     1      22.515   0.957  51.934  1.00  0.00    -0.034 A 
HETATM   21  C5  UNL     1      21.150   0.649  51.982  1.00  0.00     0.014 A 
HETATM   22  C6  UNL     1      20.534  -0.161  52.910  1.00  0.00     0.037 A 
HETATM   23  C7  UNL     1      21.343  -0.715  53.881  1.00  0.00     0.065 A 
HETATM   24  C8  UNL     1      22.700  -0.488  53.941  1.00  0.00     0.037 A 
HETATM   25  C9  UNL     1      23.213   0.336  52.964  1.00  0.00     0.014 A 
BRANCH  23  26
HETATM   26  O2  UNL     1      20.724  -1.539  54.827  1.00  0.00    -0.361 OA
HETATM   27  H6  UNL     1      19.798  -1.918  54.624  1.00  0.00     0.217 HD
ENDBRANCH  23  26
ENDBRANCH   2  20
TORSDOF 9
ENDMDL
MODEL 2
REMARK VINA RESULT:      -7.0      2.053      5.217
REMARK  9 active torsions:
REMARK  status: ('A' for Active; 'I' for Inactive)
REMARK       I    between atoms: N1_1  and  C1_2 
REMARK    1  A    between atoms: C1_2  and  C2_4 
REMARK    2  A    between atoms: C2_4  and  N2_13 
REMARK    3  A    between atoms: C3_5  and  C4_6 
REMARK    4  A    between atoms: C7_9  and  O2_10 
REMARK    5  A    between atoms: N2_13  and  C10_14 
REMARK    6  A    between atoms: N2_13  and  C11_16 
REMARK    7  A    between atoms: C11_16  and  C12_17 
REMARK    8  A    between atoms: C12_17  and  C13_18 
REMARK    9  A    between atoms: C13_18  and  C14_19 
ROOT
HETATM    1  C2  UNL     1      23.162   2.983  51.467  1.00  0.00     0.104 C 
HETATM    2  C3  UNL     1      23.692   2.956  50.272  1.00  0.00     0.046 C 
ENDROOT
BRANCH   1   3
HETATM    3  C1  UNL     1      23.580   3.896  52.506  1.00  0.00     0.266 C 
HETATM    4  N1  UNL     1      24.588   3.565  53.450  1.00  0.00    -0.365 N 
HETATM    5  H1  UNL     1      25.626   3.603  53.693  1.00  0.00     0.159 HD
HETATM    6  H2  UNL     1      25.186   3.248  54.234  1.00  0.00     0.159 HD
HETATM    7  O1  UNL     1      23.557   4.967  53.136  1.00  0.00    -0.266 OA
ENDBRANCH   1   3
BRANCH   1   8
HETATM    8  N2  UNL     1      22.127   2.079  51.760  1.00  0.00    -0.331 N 
BRANCH   8   9
HETATM    9  C10 UNL     1      20.893   2.545  52.278  1.00  0.00     0.477 C 
HETATM   10  O3  UNL     1      19.972   3.183  52.774  1.00  0.00    -0.392 OA
ENDBRANCH   8   9
BRANCH   8  11
HETATM   11  C11 UNL     1      22.113   0.653  51.606  1.00  0.00     0.134 C 
BRANCH  11  12
HETATM   12  C12 UNL     1      22.323  -0.028  52.963  1.00  0.00     0.050 C 
BRANCH  12  13
HETATM   13  C13 UNL     1      23.723  -0.196  53.254  1.00  0.00     0.012 C 
BRANCH  13  14
HETATM   14  C14 UNL     1      24.982  -0.000  53.507  1.00  0.00     0.071 A 
HETATM   15  C15 UNL     1      25.629   0.374  52.223  1.00  0.00     0.037 A 
HETATM   16  C16 UNL     1      26.944   0.637  52.181  1.00  0.00     0.005 A 
HETATM   17  C17 UNL     1      27.669   0.539  53.421  1.00  0.00     0.025 A 
HETATM   18  C18 UNL     1      27.100   0.203  54.585  1.00  0.00     0.142 A 
HETATM   19  O4  UNL     1      25.768  -0.064  54.628  1.00  0.00    -0.323 OA
ENDBRANCH  13  14
ENDBRANCH  12  13
ENDBRANCH  11  12
ENDBRANCH   8  11
ENDBRANCH   1   8
BRANCH   2  20
HETATM   20  C4  UNL     1      24.755   3.781  49.730  1.00  0.00    -0.034 A 
HETATM   21  C5  UNL     1      24.574   5.084  49.252  1.00  0.00     0.014 A 
HETATM   22  C6  UNL     1      25.558   5.907  48.750  1.00  0.00     0.037 A 
HETATM   23  C7  UNL     1      26.838   5.392  48.717  1.00  0.00     0.065 A 
HETATM   24  C8  UNL     1      27.144   4.124  49.159  1.00  0.00     0.037 A 
HETATM   25  C9  UNL     1      26.085   3.387  49.642  1.00  0.00     0.014 A 
BRANCH  23  26
HETATM   26  O2  UNL     1      27.843   6.223  48.209  1.00  0.00    -0.361 OA
HETATM   27  H6  UNL     1      28.817   5.929  48.290  1.00  0.00     0.217 HD
ENDBRANCH  23  26
ENDBRANCH   2  20
TORSDOF 9
ENDMDL
MODEL 3
REMARK VINA RESULT:      -6.7      2.162      6.160
REMARK  9 active torsions:
REMARK  status: ('A' for Active; 'I' for Inactive)
REMARK       I    between atoms: N1_1  and  C1_2 
REMARK    1  A    between atoms: C1_2  and  C2_4 
REMARK    2  A    between atoms: C2_4  and  N2_13 
REMARK    3  A    between atoms: C3_5  and  C4_6 
REMARK    4  A    between atoms: C7_9  and  O2_10 
REMARK    5  A    between atoms: N2_13  and  C10_14 
REMARK    6  A    between atoms: N2_13  and  C11_16 
REMARK    7  A    between atoms: C11_16  and  C12_17 
REMARK    8  A    between atoms: C12_17  and  C13_18 
REMARK    9  A    between atoms: C13_18  and  C14_19 
ROOT
HETATM    1  C2  UNL     1      23.413   0.386  53.551  1.00  0.00     0.104 C 
HETATM    2  C3  UNL     1      24.268  -0.520  53.949  1.00  0.00     0.046 C 
ENDROOT
BRANCH   1   3
HETATM    3  C1  UNL     1      23.800   1.642  52.951  1.00  0.00     0.266 C 
HETATM    4  N1  UNL     1      24.373   1.721  51.654  1.00  0.00    -0.365 N 
HETATM    5  H1  UNL     1      24.195   1.852  50.610  1.00  0.00     0.159 HD
HETATM    6  H2  UNL     1      24.948   1.750  50.794  1.00  0.00     0.159 HD
HETATM    7  O1  UNL     1      23.936   2.877  52.920  1.00  0.00    -0.266 OA
ENDBRANCH   1   3
BRANCH   1   8
HETATM    8  N2  UNL     1      22.041   0.124  53.709  1.00  0.00    -0.331 N 
BRANCH   8   9
HETATM    9  C10 UNL     1      21.605  -0.969  54.497  1.00  0.00     0.477 C 
HETATM   10  O3  UNL     1      21.491  -2.006  55.139  1.00  0.00    -0.392 OA
ENDBRANCH   8   9
BRANCH   8  11
HETATM   11  C11 UNL     1      20.924   0.840  53.162  1.00  0.00     0.134 C 
BRANCH  11  12
HETATM   12  C12 UNL     1      20.505   0.224  51.822  1.00  0.00     0.050 C 
BRANCH  12  13
HETATM   13  C13 UNL     1      20.942   1.033  50.714  1.00  0.00     0.012 C 
BRANCH  13  14
HETATM   14  C14 UNL     1      21.513   1.929  49.965  1.00  0.00     0.071 A 
HETATM   15  C15 UNL     1      21.685   1.322  48.621  1.00  0.00     0.037 A 
HETATM   16  C16 UNL     1      22.255   2.025  47.630  1.00  0.00     0.005 A 
HETATM   17  C17 UNL     1      22.676   3.367  47.942  1.00  0.00     0.025 A 
HETATM   18  C18 UNL     1      22.527   3.926  49.149  1.00  0.00     0.142 A 
HETATM   19  O4  UNL     1      21.950   3.213  50.152  1.00  0.00    -0.323 OA
ENDBRANCH  13  14
ENDBRANCH  12  13
ENDBRANCH  11  12
ENDBRANCH   8  11
ENDBRANCH   1   8
BRANCH   2  20
HETATM   20  C4  UNL     1      25.717  -0.490  53.889  1.00  0.00    -0.034 A 
HETATM   21  C5  UNL     1      26.529   0.189  54.805  1.00  0.00     0.014 A 
HETATM   22  C6  UNL     1      27.906   0.225  54.795  1.00  0.00     0.037 A 
HETATM   23  C7  UNL     1      28.536  -0.473  53.785  1.00  0.00     0.065 A 
HETATM   24  C8  UNL     1      27.848  -1.180  52.824  1.00  0.00     0.037 A 
HETATM   25  C9  UNL     1      26.475  -1.150  52.928  1.00  0.00     0.014 A 
BRANCH  23  26
HETATM   26  O2  UNL     1      29.935  -0.440  53.769  1.00  0.00    -0.361 OA
HETATM   27  H6  UNL     1      30.425   0.151  54.442  1.00  0.00     0.217 HD
ENDBRANCH  23  26
ENDBRANCH   2  20
TORSDOF 9
ENDMDL
MODEL 4
REMARK VINA RESULT:      -6.7      1.473      2.300
REMARK  9 active torsions:
REMARK  status: ('A' for Active; 'I' for Inactive)
REMARK       I    between atoms: N1_1  and  C1_2 
REMARK    1  A    between atoms: C1_2  and  C2_4 
REMARK    2  A    between atoms: C2_4  and  N2_13 
REMARK    3  A    between atoms: C3_5  and  C4_6 
REMARK    4  A    between atoms: C7_9  and  O2_10 
REMARK    5  A    between atoms: N2_13  and  C10_14 
REMARK    6  A    between atoms: N2_13  and  C11_16 
REMARK    7  A    between atoms: C11_16  and  C12_17 
REMARK    8  A    between atoms: C12_17  and  C13_18 
REMARK    9  A    between atoms: C13_18  and  C14_19 
ROOT
HETATM    1  C2  UNL     1      22.982   2.486  50.748  1.00  0.00     0.104 C 
HETATM    2  C3  UNL     1      23.137   2.142  52.000  1.00  0.00     0.046 C 
ENDROOT
BRANCH   1   3
HETATM    3  C1  UNL     1      22.080   1.817  49.840  1.00  0.00     0.266 C 
HETATM    4  N1  UNL     1      20.752   2.270  49.615  1.00  0.00    -0.365 N 
HETATM    5  H1  UNL     1      20.108   2.875  49.016  1.00  0.00     0.159 HD
HETATM    6  H2  UNL     1      19.743   2.499  49.597  1.00  0.00     0.159 HD
HETATM    7  O1  UNL     1      21.756   0.941  49.020  1.00  0.00    -0.266 OA
ENDBRANCH   1   3
BRANCH   1   8
HETATM    8  N2  UNL     1      23.732   3.569  50.256  1.00  0.00    -0.331 N 
BRANCH   8   9
HETATM    9  C10 UNL     1      23.429   4.893  50.660  1.00  0.00     0.477 C 
HETATM   10  O3  UNL     1      23.271   5.951  51.256  1.00  0.00    -0.392 OA
ENDBRANCH   8   9
BRANCH   8  11
HETATM   11  C11 UNL     1      24.838   3.551  49.343  1.00  0.00     0.134 C 
BRANCH  11  12
HETATM   12  C12 UNL     1      26.139   3.884  50.082  1.00  0.00     0.050 C 
BRANCH  12  13
HETATM   13  C13 UNL     1      26.499   2.840  51.006  1.00  0.00     0.012 C 
BRANCH  13  14
HETATM   14  C14 UNL     1      27.127   2.068  51.842  1.00  0.00     0.071 A 
HETATM   15  C15 UNL     1      26.495   0.727  51.751  1.00  0.00     0.037 A 
HETATM   16  C16 UNL     1      26.943  -0.284  52.511  1.00  0.00     0.005 A 
HETATM   17  C17 UNL     1      28.043   0.003  53.396  1.00  0.00     0.025 A 
HETATM   18  C18 UNL     1      28.622   1.206  53.487  1.00  0.00     0.142 A 
HETATM   19  O4  UNL     1      28.168   2.230  52.718  1.00  0.00    -0.323 OA
ENDBRANCH  13  14
ENDBRANCH  12  13
ENDBRANCH  11  12
ENDBRANCH   8  11
ENDBRANCH   1   8
BRANCH   2  20
HETATM   20  C4  UNL     1      22.481   1.078  52.736  1.00  0.00    -0.034 A 
HETATM   21  C5  UNL     1      23.098  -0.128  53.094  1.00  0.00     0.014 A 
HETATM   22  C6  UNL     1      22.518  -1.153  53.809  1.00  0.00     0.037 A 
HETATM   23  C7  UNL     1      21.209  -0.968  54.204  1.00  0.00     0.065 A 
HETATM   24  C8  UNL     1      20.495   0.172  53.913  1.00  0.00     0.037 A 
HETATM   25  C9  UNL     1      21.170   1.134  53.195  1.00  0.00     0.014 A 
BRANCH  23  26
HETATM   26  O2  UNL     1      20.615  -2.006  54.931  1.00  0.00    -0.361 OA
HETATM   27  H6  UNL     1      20.166  -2.772  54.426  1.00  0.00     0.217 HD
ENDBRANCH  23  26
ENDBRANCH   2  20
TORSDOF 9
ENDMDL
MODEL 5
REMARK VINA RESULT:      -6.7      1.914      5.213
REMARK  9 active torsions:
REMARK  status: ('A' for Active; 'I' for Inactive)
REMARK       I    between atoms: N1_1  and  C1_2 
REMARK    1  A    between atoms: C1_2  and  C2_4 
REMARK    2  A    between atoms: C2_4  and  N2_13 
REMARK    3  A    between atoms: C3_5  and  C4_6 
REMARK    4  A    between atoms: C7_9  and  O2_10 
REMARK    5  A    between atoms: N2_13  and  C10_14 
REMARK    6  A    between atoms: N2_13  and  C11_16 
REMARK    7  A    between atoms: C11_16  and  C12_17 
REMARK    8  A    between atoms: C12_17  and  C13_18 
REMARK    9  A    between atoms: C13_18  and  C14_19 
ROOT
HETATM    1  C2  UNL     1      25.083   3.120  51.430  1.00  0.00     0.104 C 
HETATM    2  C3  UNL     1      25.311   2.411  52.505  1.00  0.00     0.046 C 
ENDROOT
BRANCH   1   3
HETATM    3  C1  UNL     1      26.014   3.226  50.330  1.00  0.00     0.266 C 
HETATM    4  N1  UNL     1      26.847   4.361  50.146  1.00  0.00    -0.365 N 
HETATM    5  H1  UNL     1      27.798   4.807  50.338  1.00  0.00     0.159 HD
HETATM    6  H2  UNL     1      27.313   5.258  49.922  1.00  0.00     0.159 HD
HETATM    7  O1  UNL     1      26.586   2.830  49.301  1.00  0.00    -0.266 OA
ENDBRANCH   1   3
BRANCH   1   8
HETATM    8  N2  UNL     1      23.865   3.815  51.334  1.00  0.00    -0.331 N 
BRANCH   8   9
HETATM    9  C10 UNL     1      23.824   5.219  51.523  1.00  0.00     0.477 C 
HETATM   10  O3  UNL     1      24.045   6.423  51.572  1.00  0.00    -0.392 OA
ENDBRANCH   8   9
BRANCH   8  11
HETATM   11  C11 UNL     1      22.557   3.297  51.053  1.00  0.00     0.134 C 
BRANCH  11  12
HETATM   12  C12 UNL     1      22.665   1.915  50.398  1.00  0.00     0.050 C 
BRANCH  12  13
HETATM   13  C13 UNL     1      22.114   0.890  51.245  1.00  0.00     0.012 C 
BRANCH  13  14
HETATM   14  C14 UNL     1      21.685   0.198  52.258  1.00  0.00     0.071 A 
HETATM   15  C15 UNL     1      22.877  -0.176  53.063  1.00  0.00     0.037 A 
HETATM   16  C16 UNL     1      22.736  -0.903  54.182  1.00  0.00     0.005 A 
HETATM   17  C17 UNL     1      21.396  -1.286  54.545  1.00  0.00     0.025 A 
HETATM   18  C18 UNL     1      20.314  -0.956  53.830  1.00  0.00     0.142 A 
HETATM   19  O4  UNL     1      20.457  -0.221  52.697  1.00  0.00    -0.323 OA
ENDBRANCH  13  14
ENDBRANCH  12  13
ENDBRANCH  11  12
ENDBRANCH   8  11
ENDBRANCH   1   8
BRANCH   2  20
HETATM   20  C4  UNL     1      26.473   1.608  52.834  1.00  0.00    -0.034 A 
HETATM   21  C5  UNL     1      27.634   2.112  53.435  1.00  0.00     0.014 A 
HETATM   22  C6  UNL     1      28.749   1.381  53.781  1.00  0.00     0.037 A 
HETATM   23  C7  UNL     1      28.713   0.030  53.506  1.00  0.00     0.065 A 
HETATM   24  C8  UNL     1      27.630  -0.584  52.917  1.00  0.00     0.037 A 
HETATM   25  C9  UNL     1      26.568   0.239  52.613  1.00  0.00     0.014 A 
BRANCH  23  26
HETATM   26  O2  UNL     1      29.843  -0.718  53.856  1.00  0.00    -0.361 OA
HETATM   27  H6  UNL     1      30.766  -0.382  53.578  1.00  0.00     0.217 HD
ENDBRANCH  23  26
ENDBRANCH   2  20
TORSDOF 9
ENDMDL
MODEL 6
REMARK VINA RESULT:      -6.6      2.655      5.013
REMARK  9 active torsions:
REMARK  status: ('A' for Active; 'I' for Inactive)
REMARK       I    between atoms: N1_1  and  C1_2 
REMARK    1  A    between atoms: C1_2  and  C2_4 
REMARK    2  A    between atoms: C2_4  and  N2_13 
REMARK    3  A    between atoms: C3_5  and  C4_6 
REMARK    4  A    between atoms: C7_9  and  O2_10 
REMARK    5  A    between atoms: N2_13  and  C10_14 
REMARK    6  A    between atoms: N2_13  and  C11_16 
REMARK    7  A    between atoms: C11_16  and  C12_17 
REMARK    8  A    between atoms: C12_17  and  C13_18 
REMARK    9  A    between atoms: C13_18  and  C14_19 
ROOT
HETATM    1  C2  UNL     1      25.478   0.809  53.004  1.00  0.00     0.104 C 
HETATM    2  C3  UNL     1      24.253   1.085  52.637  1.00  0.00     0.046 C 
ENDROOT
BRANCH   1   3
HETATM    3  C1  UNL     1      25.816  -0.239  53.939  1.00  0.00     0.266 C 
HETATM    4  N1  UNL     1      26.491  -1.423  53.543  1.00  0.00    -0.365 N 
HETATM    5  H1  UNL     1      27.432  -1.914  53.424  1.00  0.00     0.159 HD
HETATM    6  H2  UNL     1      26.817  -2.350  53.215  1.00  0.00     0.159 HD
HETATM    7  O1  UNL     1      25.859  -0.772  55.061  1.00  0.00    -0.266 OA
ENDBRANCH   1   3
BRANCH   1   8
HETATM    8  N2  UNL     1      26.526   1.570  52.457  1.00  0.00    -0.331 N 
BRANCH   8   9
HETATM    9  C10 UNL     1      27.559   2.070  53.289  1.00  0.00     0.477 C 
HETATM   10  O3  UNL     1      28.290   2.732  54.016  1.00  0.00    -0.392 OA
ENDBRANCH   8   9
BRANCH   8  11
HETATM   11  C11 UNL     1      26.739   1.950  51.090  1.00  0.00     0.134 C 
BRANCH  11  12
HETATM   12  C12 UNL     1      25.752   3.051  50.688  1.00  0.00     0.050 C 
BRANCH  12  13
HETATM   13  C13 UNL     1      26.341   3.963  49.742  1.00  0.00     0.012 C 
BRANCH  13  14
HETATM   14  C14 UNL     1      27.144   4.764  49.107  1.00  0.00     0.071 A 
HETATM   15  C15 UNL     1      26.352   5.965  48.736  1.00  0.00     0.037 A 
HETATM   16  C16 UNL     1      26.929   6.972  48.062  1.00  0.00     0.005 A 
HETATM   17  C17 UNL     1      28.322   6.821  47.731  1.00  0.00     0.025 A 
HETATM   18  C18 UNL     1      29.047   5.745  48.059  1.00  0.00     0.142 A 
HETATM   19  O4  UNL     1      28.463   4.725  48.741  1.00  0.00    -0.323 OA
ENDBRANCH  13  14
ENDBRANCH  12  13
ENDBRANCH  11  12
ENDBRANCH   8  11
ENDBRANCH   1   8
BRANCH   2  20
HETATM   20  C4  UNL     1      23.017   0.448  53.048  1.00  0.00    -0.034 A 
HETATM   21  C5  UNL     1      21.770   1.084  53.062  1.00  0.00     0.014 A 
HETATM   22  C6  UNL     1      20.572   0.509  53.425  1.00  0.00     0.037 A 
HETATM   23  C7  UNL     1      20.612  -0.814  53.812  1.00  0.00     0.065 A 
HETATM   24  C8  UNL     1      21.777  -1.549  53.841  1.00  0.00     0.037 A 
HETATM   25  C9  UNL     1      22.917  -0.877  53.457  1.00  0.00     0.014 A 
BRANCH  23  26
HETATM   26  O2  UNL     1      19.398  -1.404  54.182  1.00  0.00    -0.361 OA
HETATM   27  H6  UNL     1      18.741  -0.870  54.752  1.00  0.00     0.217 HD
ENDBRANCH  23  26
ENDBRANCH   2  20
TORSDOF 9
ENDMDL
MODEL 7
REMARK VINA RESULT:      -6.5      2.741      7.230
REMARK  9 active torsions:
REMARK  status: ('A' for Active; 'I' for Inactive)
REMARK       I    between atoms: N1_1  and  C1_2 
REMARK    1  A    between atoms: C1_2  and  C2_4 
REMARK    2  A    between atoms: C2_4  and  N2_13 
REMARK    3  A    between atoms: C3_5  and  C4_6 
REMARK    4  A    between atoms: C7_9  and  O2_10 
REMARK    5  A    between atoms: N2_13  and  C10_14 
REMARK    6  A    between atoms: N2_13  and  C11_16 
REMARK    7  A    between atoms: C11_16  and  C12_17 
REMARK    8  A    between atoms: C12_17  and  C13_18 
REMARK    9  A    between atoms: C13_18  and  C14_19 
ROOT
HETATM    1  C2  UNL     1      23.751   0.468  53.507  1.00  0.00     0.104 C 
HETATM    2  C3  UNL     1      24.548  -0.484  53.919  1.00  0.00     0.046 C 
ENDROOT
BRANCH   1   3
HETATM    3  C1  UNL     1      24.218   1.709  52.933  1.00  0.00     0.266 C 
HETATM    4  N1  UNL     1      24.581   1.824  51.565  1.00  0.00    -0.365 N 
HETATM    5  H1  UNL     1      24.259   2.069  50.577  1.00  0.00     0.159 HD
HETATM    6  H2  UNL     1      25.009   1.852  50.622  1.00  0.00     0.159 HD
HETATM    7  O1  UNL     1      24.526   2.912  52.958  1.00  0.00    -0.266 OA
ENDBRANCH   1   3
BRANCH   1   8
HETATM    8  N2  UNL     1      22.364   0.274  53.624  1.00  0.00    -0.331 N 
BRANCH   8   9
HETATM    9  C10 UNL     1      21.852  -0.785  54.413  1.00  0.00     0.477 C 
HETATM   10  O3  UNL     1      21.201  -1.698  54.907  1.00  0.00    -0.392 OA
ENDBRANCH   8   9
BRANCH   8  11
HETATM   11  C11 UNL     1      21.301   1.033  53.031  1.00  0.00     0.134 C 
BRANCH  11  12
HETATM   12  C12 UNL     1      20.950   0.464  51.651  1.00  0.00     0.050 C 
BRANCH  12  13
HETATM   13  C13 UNL     1      19.532   0.252  51.517  1.00  0.00     0.012 C 
BRANCH  13  14
HETATM   14  C14 UNL     1      18.334  -0.251  51.530  1.00  0.00     0.071 A 
HETATM   15  C15 UNL     1      18.198  -1.013  52.798  1.00  0.00     0.037 A 
HETATM   16  C16 UNL     1      17.052  -1.647  53.086  1.00  0.00     0.005 A 
HETATM   17  C17 UNL     1      15.990  -1.547  52.117  1.00  0.00     0.025 A 
HETATM   18  C18 UNL     1      16.099  -0.864  50.971  1.00  0.00     0.142 A 
HETATM   19  O4  UNL     1      17.260  -0.222  50.680  1.00  0.00    -0.323 OA
ENDBRANCH  13  14
ENDBRANCH  12  13
ENDBRANCH  11  12
ENDBRANCH   8  11
ENDBRANCH   1   8
BRANCH   2  20
HETATM   20  C4  UNL     1      25.998  -0.526  53.900  1.00  0.00    -0.034 A 
HETATM   21  C5  UNL     1      26.753  -1.234  52.957  1.00  0.00     0.014 A 
HETATM   22  C6  UNL     1      28.128  -1.282  52.892  1.00  0.00     0.037 A 
HETATM   23  C7  UNL     1      28.818  -0.567  53.848  1.00  0.00     0.065 A 
HETATM   24  C8  UNL     1      28.191   0.169  54.828  1.00  0.00     0.037 A 
HETATM   25  C9  UNL     1      26.814   0.150  54.801  1.00  0.00     0.014 A 
BRANCH  23  26
HETATM   26  O2  UNL     1      30.216  -0.611  53.787  1.00  0.00    -0.361 OA
HETATM   27  H6  UNL     1      30.759  -0.068  54.459  1.00  0.00     0.217 HD
ENDBRANCH  23  26
ENDBRANCH   2  20
TORSDOF 9
ENDMDL
MODEL 8
REMARK VINA RESULT:      -6.4      2.366      6.001
REMARK  9 active torsions:
REMARK  status: ('A' for Active; 'I' for Inactive)
REMARK       I    between atoms: N1_1  and  C1_2 
REMARK    1  A    between atoms: C1_2  and  C2_4 
REMARK    2  A    between atoms: C2_4  and  N2_13 
REMARK    3  A    between atoms: C3_5  and  C4_6 
REMARK    4  A    between atoms: C7_9  and  O2_10 
REMARK    5  A    between atoms: N2_13  and  C10_14 
REMARK    6  A    between atoms: N2_13  and  C11_16 
REMARK    7  A    between atoms: C11_16  and  C12_17 
REMARK    8  A    between atoms: C12_17  and  C13_18 
REMARK    9  A    between atoms: C13_18  and  C14_19 
ROOT
HETATM    1  C2  UNL     1      23.720   1.211  52.774  1.00  0.00     0.104 C 
HETATM    2  C3  UNL     1      24.276   0.198  53.388  1.00  0.00     0.046 C 
ENDROOT
BRANCH   1   3
HETATM    3  C1  UNL     1      24.469   2.267  52.134  1.00  0.00     0.266 C 
HETATM    4  N1  UNL     1      24.924   3.412  52.839  1.00  0.00    -0.365 N 
HETATM    5  H1  UNL     1      25.723   3.860  53.387  1.00  0.00     0.159 HD
HETATM    6  H2  UNL     1      25.092   4.316  53.315  1.00  0.00     0.159 HD
HETATM    7  O1  UNL     1      25.026   2.825  51.174  1.00  0.00    -0.266 OA
ENDBRANCH   1   3
BRANCH   1   8
HETATM    8  N2  UNL     1      22.317   1.276  52.730  1.00  0.00    -0.331 N 
BRANCH   8   9
HETATM    9  C10 UNL     1      21.536   0.602  53.702  1.00  0.00     0.477 C 
HETATM   10  O3  UNL     1      20.658   0.047  54.352  1.00  0.00    -0.392 OA
ENDBRANCH   8   9
BRANCH   8  11
HETATM   11  C11 UNL     1      21.481   1.967  51.790  1.00  0.00     0.134 C 
BRANCH  11  12
HETATM   12  C12 UNL     1      20.951   3.265  52.408  1.00  0.00     0.050 C 
BRANCH  12  13
HETATM   13  C13 UNL     1      21.537   4.421  51.780  1.00  0.00     0.012 C 
BRANCH  13  14
HETATM   14  C14 UNL     1      22.295   5.432  51.474  1.00  0.00     0.071 A 
HETATM   15  C15 UNL     1      21.423   6.445  50.826  1.00  0.00     0.037 A 
HETATM   16  C16 UNL     1      21.940   7.608  50.400  1.00  0.00     0.005 A 
HETATM   17  C17 UNL     1      23.352   7.807  50.603  1.00  0.00     0.025 A 
HETATM   18  C18 UNL     1      24.148   6.903  51.186  1.00  0.00     0.142 A 
HETATM   19  O4  UNL     1      23.625   5.726  51.618  1.00  0.00    -0.323 OA
ENDBRANCH  13  14
ENDBRANCH  12  13
ENDBRANCH  11  12
ENDBRANCH   8  11
ENDBRANCH   1   8
BRANCH   2  20
HETATM   20  C4  UNL     1      25.685  -0.095  53.563  1.00  0.00    -0.034 A 
HETATM   21  C5  UNL     1      26.421  -0.951  52.733  1.00  0.00     0.014 A 
HETATM   22  C6  UNL     1      27.762  -1.239  52.852  1.00  0.00     0.037 A 
HETATM   23  C7  UNL     1      28.437  -0.625  53.887  1.00  0.00     0.065 A 
HETATM   24  C8  UNL     1      27.826   0.237  54.770  1.00  0.00     0.037 A 
HETATM   25  C9  UNL     1      26.483   0.455  54.560  1.00  0.00     0.014 A 
BRANCH  23  26
HETATM   26  O2  UNL     1      29.801  -0.913  54.013  1.00  0.00    -0.361 OA
HETATM   27  H6  UNL     1      30.432  -0.668  53.249  1.00  0.00     0.217 HD
ENDBRANCH  23  26
ENDBRANCH   2  20
TORSDOF 9
ENDMDL
MODEL 9
REMARK VINA RESULT:      -6.3      2.605      5.860
REMARK  9 active torsions:
REMARK  status: ('A' for Active; 'I' for Inactive)
REMARK       I    between atoms: N1_1  and  C1_2 
REMARK    1  A    between atoms: C1_2  and  C2_4 
REMARK    2  A    between atoms: C2_4  and  N2_13 
REMARK    3  A    between atoms: C3_5  and  C4_6 
REMARK    4  A    between atoms: C7_9  and  O2_10 
REMARK    5  A    between atoms: N2_13  and  C10_14 
REMARK    6  A    between atoms: N2_13  and  C11_16 
REMARK    7  A    between atoms: C11_16  and  C12_17 
REMARK    8  A    between atoms: C12_17  and  C13_18 
REMARK    9  A    between atoms: C13_18  and  C14_19 
ROOT
HETATM    1  C2  UNL     1      24.249   4.380  50.539  1.00  0.00     0.104 C 
HETATM    2  C3  UNL     1      25.268   4.106  49.766  1.00  0.00     0.046 C 
ENDROOT
BRANCH   1   3
HETATM    3  C1  UNL     1      23.839   5.723  50.876  1.00  0.00     0.266 C 
HETATM    4  N1  UNL     1      24.426   6.453  51.944  1.00  0.00    -0.365 N 
HETATM    5  H1  UNL     1      25.182   7.147  52.237  1.00  0.00     0.159 HD
HETATM    6  H2  UNL     1      24.730   6.901  52.826  1.00  0.00     0.159 HD
HETATM    7  O1  UNL     1      23.165   6.759  50.742  1.00  0.00    -0.266 OA
ENDBRANCH   1   3
BRANCH   1   8
HETATM    8  N2  UNL     1      23.508   3.310  51.070  1.00  0.00    -0.331 N 
BRANCH   8   9
HETATM    9  C10 UNL     1      23.001   2.297  50.219  1.00  0.00     0.477 C 
HETATM   10  O3  UNL     1      22.322   1.472  49.619  1.00  0.00    -0.392 OA
ENDBRANCH   8   9
BRANCH   8  11
HETATM   11  C11 UNL     1      23.155   3.056  52.437  1.00  0.00     0.134 C 
BRANCH  11  12
HETATM   12  C12 UNL     1      24.354   3.326  53.352  1.00  0.00     0.050 C 
BRANCH  12  13
HETATM   13  C13 UNL     1      25.306   2.247  53.301  1.00  0.00     0.012 C 
BRANCH  13  14
HETATM   14  C14 UNL     1      26.256   1.400  53.566  1.00  0.00     0.071 A 
HETATM   15  C15 UNL     1      26.233   0.374  52.493  1.00  0.00     0.037 A 
HETATM   16  C16 UNL     1      27.113  -0.639  52.507  1.00  0.00     0.005 A 
HETATM   17  C17 UNL     1      28.055  -0.668  53.596  1.00  0.00     0.025 A 
HETATM   18  C18 UNL     1      28.088   0.250  54.569  1.00  0.00     0.142 A 
HETATM   19  O4  UNL     1      27.196   1.275  54.555  1.00  0.00    -0.323 OA
ENDBRANCH  13  14
ENDBRANCH  12  13
ENDBRANCH  11  12
ENDBRANCH   8  11
ENDBRANCH   1   8
BRANCH   2  20
HETATM   20  C4  UNL     1      26.174   5.023  49.100  1.00  0.00    -0.034 A 
HETATM   21  C5  UNL     1      25.799   6.276  48.600  1.00  0.00     0.014 A 
HETATM   22  C6  UNL     1      26.631   7.183  47.981  1.00  0.00     0.037 A 
HETATM   23  C7  UNL     1      27.953   6.814  47.841  1.00  0.00     0.065 A 
HETATM   24  C8  UNL     1      28.444   5.609  48.291  1.00  0.00     0.037 A 
HETATM   25  C9  UNL     1      27.527   4.778  48.896  1.00  0.00     0.014 A 
BRANCH  23  26
HETATM   26  O2  UNL     1      28.804   7.731  47.213  1.00  0.00    -0.361 OA
HETATM   27  H6  UNL     1      29.336   7.433  46.395  1.00  0.00     0.217 HD
ENDBRANCH  23  26
ENDBRANCH   2  20
TORSDOF 9
ENDMDL
