MODEL 1
REMARK VINA RESULT:      -5.9      0.000      0.000
REMARK  10 active torsions:
REMARK  status: ('A' for Active; 'I' for Inactive)
REMARK    1  A    between atoms: C2_2  and  C3_3 
REMARK    2  A    between atoms: C3_3  and  C4_4 
REMARK    3  A    between atoms: C4_4  and  N1_5 
REMARK    4  A    between atoms: N1_5  and  C5_6 
REMARK    5  A    between atoms: N1_5  and  C16_21 
REMARK    6  A    between atoms: C5_6  and  C6_7 
REMARK    7  A    between atoms: C7_8  and  C8_9 
REMARK       I    between atoms: C8_9  and  N2_11 
REMARK    8  A    between atoms: N2_11  and  C9_12 
REMARK    9  A    between atoms: C16_21  and  C17_22 
REMARK   10  A    between atoms: C17_22  and  C18_23 
ROOT
HETATM    1  C8  UNL     1      25.065   1.387  52.150  1.00  0.00     0.297 C 
HETATM    2  O1  UNL     1      24.368   0.435  52.638  1.00  0.00    -0.258 OA
HETATM    3  N2  UNL     1      26.319   1.388  52.791  1.00  0.00    -0.339 N 
HETATM    4  H10 UNL     1      26.991   2.139  52.443  1.00  0.00     0.164 HD
ENDROOT
BRANCH   1   5
HETATM    5  C7  UNL     1      24.641   2.302  51.123  1.00  0.00    -0.004 C 
HETATM    6  C6  UNL     1      24.284   3.086  50.276  1.00  0.00    -0.077 C 
BRANCH   6   7
HETATM    7  C5  UNL     1      23.837   4.040  49.276  1.00  0.00     0.212 C 
BRANCH   7   8
HETATM    8  N1  UNL     1      22.728   3.638  48.565  1.00  0.00    -0.402 N 
BRANCH   8   9
HETATM    9  C4  UNL     1      22.640   2.314  48.034  1.00  0.00     0.121 C 
BRANCH   9  10
HETATM   10  C3  UNL     1      21.449   1.510  48.412  1.00  0.00     0.046 C 
BRANCH  10  11
HETATM   11  C2  UNL     1      21.464   0.811  49.701  1.00  0.00    -0.035 C 
HETATM   12  C1  UNL     1      21.182   0.489  50.997  1.00  0.00     0.007 C 
ENDBRANCH  10  11
ENDBRANCH   9  10
ENDBRANCH   8   9
BRANCH   8  13
HETATM   13  C16 UNL     1      21.514   4.397  48.636  1.00  0.00     0.117 C 
BRANCH  13  14
HETATM   14  C17 UNL     1      21.482   5.127  49.976  1.00  0.00     0.019 C 
BRANCH  14  15
HETATM   15  C18 UNL     1      20.460   4.483  50.901  1.00  0.00    -0.003 C 
HETATM   16  C19 UNL     1      21.141   3.949  52.098  1.00  0.00     0.005 C 
ENDBRANCH  14  15
ENDBRANCH  13  14
ENDBRANCH   8  13
ENDBRANCH   7   8
ENDBRANCH   6   7
ENDBRANCH   1   5
BRANCH   3  17
HETATM   17  C9  UNL     1      26.668   0.507  53.786  1.00  0.00     0.060 A 
HETATM   18  C10 UNL     1      25.910   0.535  55.007  1.00  0.00     0.041 C 
HETATM   19  C11 UNL     1      28.243   0.830  54.157  1.00  0.00     0.056 A 
HETATM   20  C12 UNL     1      29.214  -0.147  53.949  1.00  0.00     0.070 A 
HETATM   21  C13 UNL     1      27.992  -0.794  53.514  1.00  0.00     0.126 A 
HETATM   22  N4  UNL     1      29.843  -1.451  53.564  1.00  0.00    -0.372 N 
HETATM   23  C15 UNL     1      28.957  -2.551  53.010  1.00  0.00     0.197 A 
HETATM   24  H17 UNL     1      30.760  -1.029  53.871  1.00  0.00     0.161 HD
HETATM   25  N3  UNL     1      27.542  -2.455  52.824  1.00  0.00    -0.276 NA
HETATM   26  C14 UNL     1      27.102  -0.955  53.312  1.00  0.00     0.070 A 
ENDBRANCH   3  17
TORSDOF 10
ENDMDL
MODEL 2
REMARK VINA RESULT:      -5.8      2.629      8.066
REMARK  10 active torsions:
REMARK  status: ('A' for Active; 'I' for Inactive)
REMARK    1  A    between atoms: C2_2  and  C3_3 
REMARK    2  A    between atoms: C3_3  and  C4_4 
REMARK    3  A    between atoms: C4_4  and  N1_5 
REMARK    4  A    between atoms: N1_5  and  C5_6 
REMARK    5  A    between atoms: N1_5  and  C16_21 
REMARK    6  A    between atoms: C5_6  and  C6_7 
REMARK    7  A    between atoms: C7_8  and  C8_9 
REMARK       I    between atoms: C8_9  and  N2_11 
REMARK    8  A    between atoms: N2_11  and  C9_12 
REMARK    9  A    between atoms: C16_21  and  C17_22 
REMARK   10  A    between atoms: C17_22  and  C18_23 
ROOT
HETATM    1  C8  UNL     1      25.559   3.535  50.085  1.00  0.00     0.297 C 
HETATM    2  O1  UNL     1      24.897   3.494  48.993  1.00  0.00    -0.258 OA
HETATM    3  N2  UNL     1      25.737   4.886  50.441  1.00  0.00    -0.339 N 
HETATM    4  H10 UNL     1      26.267   5.034  51.355  1.00  0.00     0.164 HD
ENDROOT
BRANCH   1   5
HETATM    5  C7  UNL     1      26.041   2.396  50.821  1.00  0.00    -0.004 C 
HETATM    6  C6  UNL     1      26.457   1.434  51.421  1.00  0.00    -0.077 C 
BRANCH   6   7
HETATM    7  C5  UNL     1      26.955   0.261  52.120  1.00  0.00     0.212 C 
BRANCH   7   8
HETATM    8  N1  UNL     1      27.248   0.476  53.449  1.00  0.00    -0.402 N 
BRANCH   8   9
HETATM    9  C4  UNL     1      28.434   1.177  53.832  1.00  0.00     0.121 C 
BRANCH   9  10
HETATM   10  C3  UNL     1      29.721   0.440  53.724  1.00  0.00     0.046 C 
BRANCH  10  11
HETATM   11  C2  UNL     1      29.681  -1.025  53.697  1.00  0.00    -0.035 C 
HETATM   12  C1  UNL     1      29.406  -2.301  53.297  1.00  0.00     0.007 C 
ENDBRANCH  10  11
ENDBRANCH   9  10
ENDBRANCH   8   9
BRANCH   8  13
HETATM   13  C16 UNL     1      26.230   0.319  54.445  1.00  0.00     0.117 C 
BRANCH  13  14
HETATM   14  C17 UNL     1      25.350  -0.863  54.050  1.00  0.00     0.019 C 
BRANCH  14  15
HETATM   15  C18 UNL     1      23.882  -0.512  54.239  1.00  0.00    -0.003 C 
HETATM   16  C19 UNL     1      23.375   0.169  53.030  1.00  0.00     0.005 C 
ENDBRANCH  14  15
ENDBRANCH  13  14
ENDBRANCH   8  13
ENDBRANCH   7   8
ENDBRANCH   6   7
ENDBRANCH   1   5
BRANCH   3  17
HETATM   17  C9  UNL     1      25.278   5.941  49.690  1.00  0.00     0.060 A 
HETATM   18  C10 UNL     1      26.099   6.400  48.602  1.00  0.00     0.041 C 
HETATM   19  C11 UNL     1      25.070   7.198  50.739  1.00  0.00     0.056 A 
HETATM   20  C12 UNL     1      23.797   7.726  50.936  1.00  0.00     0.070 A 
HETATM   21  C13 UNL     1      23.572   6.667  49.972  1.00  0.00     0.126 A 
HETATM   22  N4  UNL     1      22.317   7.926  50.809  1.00  0.00    -0.372 N 
HETATM   23  C15 UNL     1      21.538   7.023  49.872  1.00  0.00     0.197 A 
HETATM   24  H17 UNL     1      22.426   8.711  51.507  1.00  0.00     0.161 HD
HETATM   25  N3  UNL     1      22.103   5.977  49.075  1.00  0.00    -0.276 NA
HETATM   26  C14 UNL     1      23.711   5.961  49.389  1.00  0.00     0.070 A 
ENDBRANCH   3  17
TORSDOF 10
ENDMDL
MODEL 3
REMARK VINA RESULT:      -5.8      1.395      2.845
REMARK  10 active torsions:
REMARK  status: ('A' for Active; 'I' for Inactive)
REMARK    1  A    between atoms: C2_2  and  C3_3 
REMARK    2  A    between atoms: C3_3  and  C4_4 
REMARK    3  A    between atoms: C4_4  and  N1_5 
REMARK    4  A    between atoms: N1_5  and  C5_6 
REMARK    5  A    between atoms: N1_5  and  C16_21 
REMARK    6  A    between atoms: C5_6  and  C6_7 
REMARK    7  A    between atoms: C7_8  and  C8_9 
REMARK       I    between atoms: C8_9  and  N2_11 
REMARK    8  A    between atoms: N2_11  and  C9_12 
REMARK    9  A    between atoms: C16_21  and  C17_22 
REMARK   10  A    between atoms: C17_22  and  C18_23 
ROOT
HETATM    1  C8  UNL     1      25.028   1.353  52.243  1.00  0.00     0.297 C 
HETATM    2  O1  UNL     1      24.357   0.481  52.891  1.00  0.00    -0.258 OA
HETATM    3  N2  UNL     1      26.343   1.362  52.748  1.00  0.00    -0.339 N 
HETATM    4  H10 UNL     1      26.997   2.049  52.261  1.00  0.00     0.164 HD
ENDROOT
BRANCH   1   5
HETATM    5  C7  UNL     1      24.525   2.184  51.181  1.00  0.00    -0.004 C 
HETATM    6  C6  UNL     1      24.083   2.881  50.299  1.00  0.00    -0.077 C 
BRANCH   6   7
HETATM    7  C5  UNL     1      23.528   3.704  49.237  1.00  0.00     0.212 C 
BRANCH   7   8
HETATM    8  N1  UNL     1      23.527   5.054  49.510  1.00  0.00    -0.402 N 
BRANCH   8   9
HETATM    9  C4  UNL     1      23.027   5.549  50.754  1.00  0.00     0.121 C 
BRANCH   9  10
HETATM   10  C3  UNL     1      21.566   5.422  50.996  1.00  0.00     0.046 C 
BRANCH  10  11
HETATM   11  C2  UNL     1      21.100   4.343  51.873  1.00  0.00    -0.035 C 
HETATM   12  C1  UNL     1      20.512   3.185  52.292  1.00  0.00     0.007 C 
ENDBRANCH  10  11
ENDBRANCH   9  10
ENDBRANCH   8   9
BRANCH   8  13
HETATM   13  C16 UNL     1      24.327   5.947  48.724  1.00  0.00     0.117 C 
BRANCH  13  14
HETATM   14  C17 UNL     1      25.611   6.245  49.493  1.00  0.00     0.019 C 
BRANCH  14  15
HETATM   15  C18 UNL     1      26.824   5.860  48.660  1.00  0.00    -0.003 C 
HETATM   16  C19 UNL     1      27.214   4.468  48.965  1.00  0.00     0.005 C 
ENDBRANCH  14  15
ENDBRANCH  13  14
ENDBRANCH   8  13
ENDBRANCH   7   8
ENDBRANCH   6   7
ENDBRANCH   1   5
BRANCH   3  17
HETATM   17  C9  UNL     1      26.769   0.564  53.783  1.00  0.00     0.060 A 
HETATM   18  C10 UNL     1      26.076   0.664  55.039  1.00  0.00     0.041 C 
HETATM   19  C11 UNL     1      28.352   0.950  54.041  1.00  0.00     0.056 A 
HETATM   20  C12 UNL     1      29.336  -0.018  53.850  1.00  0.00     0.070 A 
HETATM   21  C13 UNL     1      28.109  -0.722  53.532  1.00  0.00     0.126 A 
HETATM   22  N4  UNL     1      29.978  -1.332  53.525  1.00  0.00    -0.372 N 
HETATM   23  C15 UNL     1      29.093  -2.490  53.102  1.00  0.00     0.197 A 
HETATM   24  H17 UNL     1      30.899  -0.868  53.749  1.00  0.00     0.161 HD
HETATM   25  N3  UNL     1      27.668  -2.439  52.988  1.00  0.00    -0.276 NA
HETATM   26  C14 UNL     1      27.215  -0.918  53.391  1.00  0.00     0.070 A 
ENDBRANCH   3  17
TORSDOF 10
ENDMDL
MODEL 4
REMARK VINA RESULT:      -5.8      3.255      4.574
REMARK  10 active torsions:
REMARK  status: ('A' for Active; 'I' for Inactive)
REMARK    1  A    between atoms: C2_2  and  C3_3 
REMARK    2  A    between atoms: C3_3  and  C4_4 
REMARK    3  A    between atoms: C4_4  and  N1_5 
REMARK    4  A    between atoms: N1_5  and  C5_6 
REMARK    5  A    between atoms: N1_5  and  C16_21 
REMARK    6  A    between atoms: C5_6  and  C6_7 
REMARK    7  A    between atoms: C7_8  and  C8_9 
REMARK       I    between atoms: C8_9  and  N2_11 
REMARK    8  A    between atoms: N2_11  and  C9_12 
REMARK    9  A    between atoms: C16_21  and  C17_22 
REMARK   10  A    between atoms: C17_22  and  C18_23 
ROOT
HETATM    1  C8  UNL     1      24.255   0.086  52.867  1.00  0.00     0.297 C 
HETATM    2  O1  UNL     1      24.769   0.680  51.860  1.00  0.00    -0.258 OA
HETATM    3  N2  UNL     1      25.286  -0.581  53.558  1.00  0.00    -0.339 N 
HETATM    4  H10 UNL     1      24.966  -1.099  54.433  1.00  0.00     0.164 HD
ENDROOT
BRANCH   1   5
HETATM    5  C7  UNL     1      22.863   0.095  53.231  1.00  0.00    -0.004 C 
HETATM    6  C6  UNL     1      21.690   0.086  53.521  1.00  0.00    -0.077 C 
BRANCH   6   7
HETATM    7  C5  UNL     1      20.274   0.072  53.844  1.00  0.00     0.212 C 
BRANCH   7   8
HETATM    8  N1  UNL     1      19.450  -0.166  52.766  1.00  0.00    -0.402 N 
BRANCH   8   9
HETATM    9  C4  UNL     1      18.249  -0.927  52.917  1.00  0.00     0.121 C 
BRANCH   9  10
HETATM   10  C3  UNL     1      18.302  -2.105  53.821  1.00  0.00     0.046 C 
BRANCH  10  11
HETATM   11  C2  UNL     1      17.395  -3.226  53.554  1.00  0.00    -0.035 C 
HETATM   12  C1  UNL     1      16.888  -4.492  53.509  1.00  0.00     0.007 C 
ENDBRANCH  10  11
ENDBRANCH   9  10
ENDBRANCH   8   9
BRANCH   8  13
HETATM   13  C16 UNL     1      19.584   0.614  51.571  1.00  0.00     0.117 C 
BRANCH  13  14
HETATM   14  C17 UNL     1      19.154   2.045  51.882  1.00  0.00     0.019 C 
BRANCH  14  15
HETATM   15  C18 UNL     1      18.063   2.487  50.918  1.00  0.00    -0.003 C 
HETATM   16  C19 UNL     1      17.170   3.453  51.590  1.00  0.00     0.005 C 
ENDBRANCH  14  15
ENDBRANCH  13  14
ENDBRANCH   8  13
ENDBRANCH   7   8
ENDBRANCH   6   7
ENDBRANCH   1   5
BRANCH   3  17
HETATM   17  C9  UNL     1      26.600  -0.580  53.155  1.00  0.00     0.060 A 
HETATM   18  C10 UNL     1      27.032  -1.624  52.267  1.00  0.00     0.041 C 
HETATM   19  C11 UNL     1      27.504  -0.674  54.532  1.00  0.00     0.056 A 
HETATM   20  C12 UNL     1      28.361   0.372  54.865  1.00  0.00     0.070 A 
HETATM   21  C13 UNL     1      27.760   0.817  53.623  1.00  0.00     0.126 A 
HETATM   22  N4  UNL     1      29.087   1.681  54.788  1.00  0.00    -0.372 N 
HETATM   23  C15 UNL     1      28.809   2.598  53.612  1.00  0.00     0.197 A 
HETATM   24  H17 UNL     1      29.557   1.403  55.691  1.00  0.00     0.161 HD
HETATM   25  N3  UNL     1      27.900   2.318  52.544  1.00  0.00    -0.276 NA
HETATM   26  C14 UNL     1      27.243   0.850  52.856  1.00  0.00     0.070 A 
ENDBRANCH   3  17
TORSDOF 10
ENDMDL
MODEL 5
REMARK VINA RESULT:      -5.8      5.887      8.398
REMARK  10 active torsions:
REMARK  status: ('A' for Active; 'I' for Inactive)
REMARK    1  A    between atoms: C2_2  and  C3_3 
REMARK    2  A    between atoms: C3_3  and  C4_4 
REMARK    3  A    between atoms: C4_4  and  N1_5 
REMARK    4  A    between atoms: N1_5  and  C5_6 
REMARK    5  A    between atoms: N1_5  and  C16_21 
REMARK    6  A    between atoms: C5_6  and  C6_7 
REMARK    7  A    between atoms: C7_8  and  C8_9 
REMARK       I    between atoms: C8_9  and  N2_11 
REMARK    8  A    between atoms: N2_11  and  C9_12 
REMARK    9  A    between atoms: C16_21  and  C17_22 
REMARK   10  A    between atoms: C17_22  and  C18_23 
ROOT
HETATM    1  C8  UNL     1      27.910   5.945  48.411  1.00  0.00     0.297 C 
HETATM    2  O1  UNL     1      27.561   6.722  47.458  1.00  0.00    -0.258 OA
HETATM    3  N2  UNL     1      29.238   6.251  48.765  1.00  0.00    -0.339 N 
HETATM    4  H10 UNL     1      29.625   5.667  49.569  1.00  0.00     0.164 HD
ENDROOT
BRANCH   1   5
HETATM    5  C7  UNL     1      27.086   4.931  49.015  1.00  0.00    -0.004 C 
HETATM    6  C6  UNL     1      26.383   4.079  49.503  1.00  0.00    -0.077 C 
BRANCH   6   7
HETATM    7  C5  UNL     1      25.516   3.064  50.077  1.00  0.00     0.212 C 
BRANCH   7   8
HETATM    8  N1  UNL     1      25.659   2.901  51.437  1.00  0.00    -0.402 N 
BRANCH   8   9
HETATM    9  C4  UNL     1      24.539   3.051  52.313  1.00  0.00     0.121 C 
BRANCH   9  10
HETATM   10  C3  UNL     1      23.365   2.173  52.068  1.00  0.00     0.046 C 
BRANCH  10  11
HETATM   11  C2  UNL     1      23.231   0.953  52.870  1.00  0.00    -0.035 C 
HETATM   12  C1  UNL     1      23.222  -0.367  53.219  1.00  0.00     0.007 C 
ENDBRANCH  10  11
ENDBRANCH   9  10
ENDBRANCH   8   9
BRANCH   8  13
HETATM   13  C16 UNL     1      26.821   2.251  51.966  1.00  0.00     0.117 C 
BRANCH  13  14
HETATM   14  C17 UNL     1      26.744   0.768  51.614  1.00  0.00     0.019 C 
BRANCH  14  15
HETATM   15  C18 UNL     1      27.093  -0.080  52.827  1.00  0.00    -0.003 C 
HETATM   16  C19 UNL     1      26.706  -1.484  52.580  1.00  0.00     0.005 C 
ENDBRANCH  14  15
ENDBRANCH  13  14
ENDBRANCH   8  13
ENDBRANCH   7   8
ENDBRANCH   6   7
ENDBRANCH   1   5
BRANCH   3  17
HETATM   17  C9  UNL     1      29.993   7.214  48.139  1.00  0.00     0.060 A 
HETATM   18  C10 UNL     1      30.744   6.829  46.975  1.00  0.00     0.041 C 
HETATM   19  C11 UNL     1      31.056   7.773  49.270  1.00  0.00     0.056 A 
HETATM   20  C12 UNL     1      31.000   9.107  49.667  1.00  0.00     0.070 A 
HETATM   21  C13 UNL     1      29.935   9.005  48.689  1.00  0.00     0.126 A 
HETATM   22  N4  UNL     1      30.556  10.535  49.755  1.00  0.00    -0.372 N 
HETATM   23  C15 UNL     1      29.399  10.992  48.887  1.00  0.00     0.197 A 
HETATM   24  H17 UNL     1      31.321  10.664  50.471  1.00  0.00     0.161 HD
HETATM   25  N3  UNL     1      28.680  10.164  47.968  1.00  0.00    -0.276 NA
HETATM   26  C14 UNL     1      29.347   8.671  48.057  1.00  0.00     0.070 A 
ENDBRANCH   3  17
TORSDOF 10
ENDMDL
MODEL 6
REMARK VINA RESULT:      -5.8      4.042      7.740
REMARK  10 active torsions:
REMARK  status: ('A' for Active; 'I' for Inactive)
REMARK    1  A    between atoms: C2_2  and  C3_3 
REMARK    2  A    between atoms: C3_3  and  C4_4 
REMARK    3  A    between atoms: C4_4  and  N1_5 
REMARK    4  A    between atoms: N1_5  and  C5_6 
REMARK    5  A    between atoms: N1_5  and  C16_21 
REMARK    6  A    between atoms: C5_6  and  C6_7 
REMARK    7  A    between atoms: C7_8  and  C8_9 
REMARK       I    between atoms: C8_9  and  N2_11 
REMARK    8  A    between atoms: N2_11  and  C9_12 
REMARK    9  A    between atoms: C16_21  and  C17_22 
REMARK   10  A    between atoms: C17_22  and  C18_23 
ROOT
HETATM    1  C8  UNL     1      24.864   4.679  50.259  1.00  0.00     0.297 C 
HETATM    2  O1  UNL     1      24.504   4.590  49.037  1.00  0.00    -0.258 OA
HETATM    3  N2  UNL     1      25.504   5.921  50.441  1.00  0.00    -0.339 N 
HETATM    4  H10 UNL     1      25.831   6.106  51.439  1.00  0.00     0.164 HD
ENDROOT
BRANCH   1   5
HETATM    5  C7  UNL     1      24.655   3.681  51.274  1.00  0.00    -0.004 C 
HETATM    6  C6  UNL     1      24.464   2.832  52.113  1.00  0.00    -0.077 C 
BRANCH   6   7
HETATM    7  C5  UNL     1      24.209   1.811  53.114  1.00  0.00     0.212 C 
BRANCH   7   8
HETATM    8  N1  UNL     1      24.787   0.591  52.839  1.00  0.00    -0.402 N 
BRANCH   8   9
HETATM    9  C4  UNL     1      26.108   0.513  52.298  1.00  0.00     0.121 C 
BRANCH   9  10
HETATM   10  C3  UNL     1      26.817  -0.787  52.425  1.00  0.00     0.046 C 
BRANCH  10  11
HETATM   11  C2  UNL     1      28.112  -0.807  53.111  1.00  0.00    -0.035 C 
HETATM   12  C1  UNL     1      29.358  -1.203  53.505  1.00  0.00     0.007 C 
ENDBRANCH  10  11
ENDBRANCH   9  10
ENDBRANCH   8   9
BRANCH   8  13
HETATM   13  C16 UNL     1      24.237  -0.608  53.399  1.00  0.00     0.117 C 
BRANCH  13  14
HETATM   14  C17 UNL     1      22.724  -0.580  53.200  1.00  0.00     0.019 C 
BRANCH  14  15
HETATM   15  C18 UNL     1      22.018  -0.965  54.491  1.00  0.00    -0.003 C 
HETATM   16  C19 UNL     1      23.010  -1.433  55.480  1.00  0.00     0.005 C 
ENDBRANCH  14  15
ENDBRANCH  13  14
ENDBRANCH   8  13
ENDBRANCH   7   8
ENDBRANCH   6   7
ENDBRANCH   1   5
BRANCH   3  17
HETATM   17  C9  UNL     1      25.702   6.833  49.432  1.00  0.00     0.060 A 
HETATM   18  C10 UNL     1      24.634   7.041  48.493  1.00  0.00     0.041 C 
HETATM   19  C11 UNL     1      27.025   6.311  48.594  1.00  0.00     0.056 A 
HETATM   20  C12 UNL     1      28.169   7.104  48.551  1.00  0.00     0.070 A 
HETATM   21  C13 UNL     1      27.254   7.884  49.361  1.00  0.00     0.126 A 
HETATM   22  N4  UNL     1      29.099   8.254  48.795  1.00  0.00    -0.372 N 
HETATM   23  C15 UNL     1      28.614   9.415  49.641  1.00  0.00     0.197 A 
HETATM   24  H17 UNL     1      29.802   7.729  48.208  1.00  0.00     0.161 HD
HETATM   25  N3  UNL     1      27.317   9.518  50.235  1.00  0.00    -0.276 NA
HETATM   26  C14 UNL     1      26.502   8.157  49.827  1.00  0.00     0.070 A 
ENDBRANCH   3  17
TORSDOF 10
ENDMDL
MODEL 7
REMARK VINA RESULT:      -5.7      0.710      2.010
REMARK  10 active torsions:
REMARK  status: ('A' for Active; 'I' for Inactive)
REMARK    1  A    between atoms: C2_2  and  C3_3 
REMARK    2  A    between atoms: C3_3  and  C4_4 
REMARK    3  A    between atoms: C4_4  and  N1_5 
REMARK    4  A    between atoms: N1_5  and  C5_6 
REMARK    5  A    between atoms: N1_5  and  C16_21 
REMARK    6  A    between atoms: C5_6  and  C6_7 
REMARK    7  A    between atoms: C7_8  and  C8_9 
REMARK       I    between atoms: C8_9  and  N2_11 
REMARK    8  A    between atoms: N2_11  and  C9_12 
REMARK    9  A    between atoms: C16_21  and  C17_22 
REMARK   10  A    between atoms: C17_22  and  C18_23 
ROOT
HETATM    1  C8  UNL     1      25.426   1.573  52.001  1.00  0.00     0.297 C 
HETATM    2  O1  UNL     1      24.688   0.624  52.433  1.00  0.00    -0.258 OA
HETATM    3  N2  UNL     1      26.633   1.557  52.725  1.00  0.00    -0.339 N 
HETATM    4  H10 UNL     1      27.335   2.304  52.429  1.00  0.00     0.164 HD
ENDROOT
BRANCH   1   5
HETATM    5  C7  UNL     1      25.080   2.499  50.955  1.00  0.00    -0.004 C 
HETATM    6  C6  UNL     1      24.773   3.283  50.089  1.00  0.00    -0.077 C 
BRANCH   6   7
HETATM    7  C5  UNL     1      24.376   4.222  49.053  1.00  0.00     0.212 C 
BRANCH   7   8
HETATM    8  N1  UNL     1      23.036   4.541  49.060  1.00  0.00    -0.402 N 
BRANCH   8   9
HETATM    9  C4  UNL     1      22.490   5.382  50.079  1.00  0.00     0.121 C 
BRANCH   9  10
HETATM   10  C3  UNL     1      21.270   4.897  50.776  1.00  0.00     0.046 C 
BRANCH  10  11
HETATM   11  C2  UNL     1      21.414   3.814  51.754  1.00  0.00    -0.035 C 
HETATM   12  C1  UNL     1      21.614   2.572  52.283  1.00  0.00     0.007 C 
ENDBRANCH  10  11
ENDBRANCH   9  10
ENDBRANCH   8   9
BRANCH   8  13
HETATM   13  C16 UNL     1      22.241   4.335  47.886  1.00  0.00     0.117 C 
BRANCH  13  14
HETATM   14  C17 UNL     1      22.218   2.840  47.578  1.00  0.00     0.019 C 
BRANCH  14  15
HETATM   15  C18 UNL     1      21.025   2.182  48.253  1.00  0.00    -0.003 C 
HETATM   16  C19 UNL     1      21.470   0.980  48.987  1.00  0.00     0.005 C 
ENDBRANCH  14  15
ENDBRANCH  13  14
ENDBRANCH   8  13
ENDBRANCH   7   8
ENDBRANCH   6   7
ENDBRANCH   1   5
BRANCH   3  17
HETATM   17  C9  UNL     1      26.907   0.666  53.735  1.00  0.00     0.060 A 
HETATM   18  C10 UNL     1      26.173   0.796  54.964  1.00  0.00     0.041 C 
HETATM   19  C11 UNL     1      28.512   0.836  54.078  1.00  0.00     0.056 A 
HETATM   20  C12 UNL     1      29.375  -0.238  53.880  1.00  0.00     0.070 A 
HETATM   21  C13 UNL     1      28.088  -0.767  53.475  1.00  0.00     0.126 A 
HETATM   22  N4  UNL     1      29.864  -1.608  53.515  1.00  0.00    -0.372 N 
HETATM   23  C15 UNL     1      28.863  -2.623  52.997  1.00  0.00     0.197 A 
HETATM   24  H17 UNL     1      30.824  -1.274  53.801  1.00  0.00     0.161 HD
HETATM   25  N3  UNL     1      27.462  -2.388  52.827  1.00  0.00    -0.276 NA
HETATM   26  C14 UNL     1      27.184  -0.841  53.288  1.00  0.00     0.070 A 
ENDBRANCH   3  17
TORSDOF 10
ENDMDL
MODEL 8
REMARK VINA RESULT:      -5.7      2.702      8.134
REMARK  10 active torsions:
REMARK  status: ('A' for Active; 'I' for Inactive)
REMARK    1  A    between atoms: C2_2  and  C3_3 
REMARK    2  A    between atoms: C3_3  and  C4_4 
REMARK    3  A    between atoms: C4_4  and  N1_5 
REMARK    4  A    between atoms: N1_5  and  C5_6 
REMARK    5  A    between atoms: N1_5  and  C16_21 
REMARK    6  A    between atoms: C5_6  and  C6_7 
REMARK    7  A    between atoms: C7_8  and  C8_9 
REMARK       I    between atoms: C8_9  and  N2_11 
REMARK    8  A    between atoms: N2_11  and  C9_12 
REMARK    9  A    between atoms: C16_21  and  C17_22 
REMARK   10  A    between atoms: C17_22  and  C18_23 
ROOT
HETATM    1  C8  UNL     1      26.038   4.172  50.073  1.00  0.00     0.297 C 
HETATM    2  O1  UNL     1      26.276   4.494  48.860  1.00  0.00    -0.258 OA
HETATM    3  N2  UNL     1      25.437   5.274  50.712  1.00  0.00    -0.339 N 
HETATM    4  H10 UNL     1      25.179   5.105  51.733  1.00  0.00     0.164 HD
ENDROOT
BRANCH   1   5
HETATM    5  C7  UNL     1      26.336   2.903  50.682  1.00  0.00    -0.004 C 
HETATM    6  C6  UNL     1      26.572   1.842  51.209  1.00  0.00    -0.077 C 
BRANCH   6   7
HETATM    7  C5  UNL     1      26.854   0.578  51.868  1.00  0.00     0.212 C 
BRANCH   7   8
HETATM    8  N1  UNL     1      26.656   0.593  53.231  1.00  0.00    -0.402 N 
BRANCH   8   9
HETATM    9  C4  UNL     1      25.375   0.908  53.781  1.00  0.00     0.121 C 
BRANCH   9  10
HETATM   10  C3  UNL     1      24.226   0.074  53.340  1.00  0.00     0.046 C 
BRANCH  10  11
HETATM   11  C2  UNL     1      23.202   0.696  52.493  1.00  0.00    -0.035 C 
HETATM   12  C1  UNL     1      22.605   1.303  51.427  1.00  0.00     0.007 C 
ENDBRANCH  10  11
ENDBRANCH   9  10
ENDBRANCH   8   9
BRANCH   8  13
HETATM   13  C16 UNL     1      27.608  -0.030  54.103  1.00  0.00     0.117 C 
BRANCH  13  14
HETATM   14  C17 UNL     1      28.975   0.597  53.849  1.00  0.00     0.019 C 
BRANCH  14  15
HETATM   15  C18 UNL     1      30.001  -0.483  53.541  1.00  0.00    -0.003 C 
HETATM   16  C19 UNL     1      29.320  -1.787  53.398  1.00  0.00     0.005 C 
ENDBRANCH  14  15
ENDBRANCH  13  14
ENDBRANCH   8  13
ENDBRANCH   7   8
ENDBRANCH   6   7
ENDBRANCH   1   5
BRANCH   3  17
HETATM   17  C9  UNL     1      25.195   6.478  50.093  1.00  0.00     0.060 A 
HETATM   18  C10 UNL     1      26.310   7.360  49.878  1.00  0.00     0.041 C 
HETATM   19  C11 UNL     1      24.093   7.267  51.033  1.00  0.00     0.056 A 
HETATM   20  C12 UNL     1      22.838   7.573  50.512  1.00  0.00     0.070 A 
HETATM   21  C13 UNL     1      23.499   6.899  49.413  1.00  0.00     0.126 A 
HETATM   22  N4  UNL     1      21.695   7.666  49.547  1.00  0.00    -0.372 N 
HETATM   23  C15 UNL     1      21.864   7.077  48.160  1.00  0.00     0.197 A 
HETATM   24  H17 UNL     1      21.169   8.166  50.315  1.00  0.00     0.161 HD
HETATM   25  N3  UNL     1      23.045   6.429  47.677  1.00  0.00    -0.276 NA
HETATM   26  C14 UNL     1      24.132   6.455  48.902  1.00  0.00     0.070 A 
ENDBRANCH   3  17
TORSDOF 10
ENDMDL
MODEL 9
REMARK VINA RESULT:      -5.7      1.334      2.719
REMARK  10 active torsions:
REMARK  status: ('A' for Active; 'I' for Inactive)
REMARK    1  A    between atoms: C2_2  and  C3_3 
REMARK    2  A    between atoms: C3_3  and  C4_4 
REMARK    3  A    between atoms: C4_4  and  N1_5 
REMARK    4  A    between atoms: N1_5  and  C5_6 
REMARK    5  A    between atoms: N1_5  and  C16_21 
REMARK    6  A    between atoms: C5_6  and  C6_7 
REMARK    7  A    between atoms: C7_8  and  C8_9 
REMARK       I    between atoms: C8_9  and  N2_11 
REMARK    8  A    between atoms: N2_11  and  C9_12 
REMARK    9  A    between atoms: C16_21  and  C17_22 
REMARK   10  A    between atoms: C17_22  and  C18_23 
ROOT
HETATM    1  C8  UNL     1      24.279   0.330  52.926  1.00  0.00     0.297 C 
HETATM    2  O1  UNL     1      24.105  -0.619  53.763  1.00  0.00    -0.258 OA
HETATM    3  N2  UNL     1      25.559   0.876  53.140  1.00  0.00    -0.339 N 
HETATM    4  H10 UNL     1      25.815   1.672  52.477  1.00  0.00     0.164 HD
ENDROOT
BRANCH   1   5
HETATM    5  C7  UNL     1      23.328   0.767  51.938  1.00  0.00    -0.004 C 
HETATM    6  C6  UNL     1      22.539   1.119  51.094  1.00  0.00    -0.077 C 
BRANCH   6   7
HETATM    7  C5  UNL     1      21.609   1.540  50.060  1.00  0.00     0.212 C 
BRANCH   7   8
HETATM    8  N1  UNL     1      21.232   2.863  50.142  1.00  0.00    -0.402 N 
BRANCH   8   9
HETATM    9  C4  UNL     1      20.854   3.439  51.395  1.00  0.00     0.121 C 
BRANCH   9  10
HETATM   10  C3  UNL     1      21.527   4.705  51.788  1.00  0.00     0.046 C 
BRANCH  10  11
HETATM   11  C2  UNL     1      22.844   4.621  52.427  1.00  0.00    -0.035 C 
HETATM   12  C1  UNL     1      23.905   4.139  53.138  1.00  0.00     0.007 C 
ENDBRANCH  10  11
ENDBRANCH   9  10
ENDBRANCH   8   9
BRANCH   8  13
HETATM   13  C16 UNL     1      21.535   3.765  49.071  1.00  0.00     0.117 C 
BRANCH  13  14
HETATM   14  C17 UNL     1      22.875   3.359  48.466  1.00  0.00     0.019 C 
BRANCH  14  15
HETATM   15  C18 UNL     1      23.978   4.281  48.965  1.00  0.00    -0.003 C 
HETATM   16  C19 UNL     1      25.056   3.478  49.579  1.00  0.00     0.005 C 
ENDBRANCH  14  15
ENDBRANCH  13  14
ENDBRANCH   8  13
ENDBRANCH   7   8
ENDBRANCH   6   7
ENDBRANCH   1   5
BRANCH   3  17
HETATM   17  C9  UNL     1      26.423   0.439  54.116  1.00  0.00     0.060 A 
HETATM   18  C10 UNL     1      25.921   0.329  55.458  1.00  0.00     0.041 C 
HETATM   19  C11 UNL     1      27.683   1.505  54.127  1.00  0.00     0.056 A 
HETATM   20  C12 UNL     1      28.964   1.059  53.812  1.00  0.00     0.070 A 
HETATM   21  C13 UNL     1      28.156  -0.139  53.694  1.00  0.00     0.126 A 
HETATM   22  N4  UNL     1      30.082   0.140  53.421  1.00  0.00    -0.372 N 
HETATM   23  C15 UNL     1      29.766  -1.320  53.158  1.00  0.00     0.197 A 
HETATM   24  H17 UNL     1      30.716   0.981  53.497  1.00  0.00     0.161 HD
HETATM   25  N3  UNL     1      28.468  -1.914  53.257  1.00  0.00    -0.276 NA
HETATM   26  C14 UNL     1      27.435  -0.720  53.692  1.00  0.00     0.070 A 
ENDBRANCH   3  17
TORSDOF 10
ENDMDL
