MODEL 1
REMARK VINA RESULT:      -7.7      0.000      0.000
REMARK  4 active torsions:
REMARK  status: ('A' for Active; 'I' for Inactive)
REMARK    1  A    between atoms: C3_4  and  N2_5 
REMARK    2  A    between atoms: C4_8  and  C5_9 
REMARK    3  A    between atoms: C6_10  and  C7_11 
REMARK    4  A    between atoms: N5_20  and  C14_21 
ROOT
HETATM    1  C5  UNL     1      23.404   1.407  52.108  1.00  0.00     0.098 A 
HETATM    2  C6  UNL     1      22.198   0.812  52.424  1.00  0.00     0.097 A 
HETATM    3  N4  UNL     1      22.522  -0.256  53.209  1.00  0.00    -0.241 NA
HETATM    4  C13 UNL     1      23.867  -0.287  53.349  1.00  0.00     0.211 A 
HETATM    5  N5  UNL     1      24.435   0.732  52.677  1.00  0.00    -0.333 N 
ENDROOT
BRANCH   1   6
HETATM    6  C4  UNL     1      23.505   2.597  51.274  1.00  0.00     0.122 A 
HETATM    7  C2  UNL     1      23.676   3.936  51.817  1.00  0.00     0.082 A 
HETATM    8  C1  UNL     1      23.733   3.978  53.135  1.00  0.00     0.048 C 
HETATM    9  N1  UNL     1      23.778   5.123  51.041  1.00  0.00    -0.222 NA
HETATM   10  C3  UNL     1      23.726   5.115  49.752  1.00  0.00     0.183 A 
HETATM   11  S1  UNL     1      23.522   3.620  48.796  1.00  0.00     0.050 SA
HETATM   12  N3  UNL     1      23.423   2.324  49.993  1.00  0.00    -0.204 NA
BRANCH  10  13
HETATM   13  N2  UNL     1      23.844   6.375  49.164  1.00  0.00    -0.377 N 
HETATM   14  H3  UNL     1      24.771   6.600  49.629  1.00  0.00     0.158 HD
HETATM   15  H4  UNL     1      23.544   7.167  48.561  1.00  0.00     0.158 HD
ENDBRANCH  10  13
ENDBRANCH   1   6
BRANCH   2  16
HETATM   16  C7  UNL     1      20.839   1.172  52.051  1.00  0.00    -0.005 A 
HETATM   17  C8  UNL     1      20.347   2.430  52.330  1.00  0.00     0.017 A 
HETATM   18  C9  UNL     1      19.060   2.690  51.947  1.00  0.00     0.043 A 
HETATM   19  C10 UNL     1      18.192   1.832  51.309  1.00  0.00     0.116 A 
HETATM   20  F1  UNL     1      16.935   2.219  50.984  1.00  0.00    -0.206 F 
HETATM   21  C11 UNL     1      18.703   0.571  51.036  1.00  0.00     0.043 A 
HETATM   22  C12 UNL     1      20.013   0.247  51.405  1.00  0.00     0.017 A 
ENDBRANCH   2  16
BRANCH   5  23
HETATM   23  C14 UNL     1      25.842   1.063  52.565  1.00  0.00     0.091 C 
HETATM   24  C15 UNL     1      26.447   1.576  53.842  1.00  0.00     0.026 C 
HETATM   25  C16 UNL     1      26.813   0.451  54.763  1.00  0.00     0.002 C 
HETATM   26  C17 UNL     1      27.966  -0.267  54.068  1.00  0.00     0.000 C 
HETATM   27  C18 UNL     1      27.352  -0.940  52.857  1.00  0.00     0.002 C 
HETATM   28  C19 UNL     1      26.675  -0.003  51.933  1.00  0.00     0.026 C 
ENDBRANCH   5  23
TORSDOF 4
ENDMDL
MODEL 2
REMARK VINA RESULT:      -7.5      3.452      5.643
REMARK  4 active torsions:
REMARK  status: ('A' for Active; 'I' for Inactive)
REMARK    1  A    between atoms: C3_4  and  N2_5 
REMARK    2  A    between atoms: C4_8  and  C5_9 
REMARK    3  A    between atoms: C6_10  and  C7_11 
REMARK    4  A    between atoms: N5_20  and  C14_21 
ROOT
HETATM    1  C5  UNL     1      23.174   2.568  51.137  1.00  0.00     0.098 A 
HETATM    2  C6  UNL     1      24.460   3.045  51.297  1.00  0.00     0.097 A 
HETATM    3  N4  UNL     1      24.906   2.483  52.457  1.00  0.00    -0.241 NA
HETATM    4  C13 UNL     1      23.920   1.705  52.959  1.00  0.00     0.211 A 
HETATM    5  N5  UNL     1      22.837   1.741  52.159  1.00  0.00    -0.333 N 
ENDROOT
BRANCH   1   6
HETATM    6  C4  UNL     1      22.330   2.931  50.005  1.00  0.00     0.122 A 
HETATM    7  C2  UNL     1      21.345   4.000  50.059  1.00  0.00     0.082 A 
HETATM    8  C1  UNL     1      21.282   4.614  51.225  1.00  0.00     0.048 C 
HETATM    9  N1  UNL     1      20.503   4.386  48.980  1.00  0.00    -0.222 NA
HETATM   10  C3  UNL     1      20.540   3.806  47.829  1.00  0.00     0.183 A 
HETATM   11  S1  UNL     1      21.650   2.457  47.456  1.00  0.00     0.050 SA
HETATM   12  N3  UNL     1      22.560   2.190  48.946  1.00  0.00    -0.204 NA
BRANCH  10  13
HETATM   13  N2  UNL     1      19.640   4.322  46.896  1.00  0.00    -0.377 N 
HETATM   14  H3  UNL     1      19.432   5.201  47.453  1.00  0.00     0.158 HD
HETATM   15  H4  UNL     1      19.093   4.322  46.011  1.00  0.00     0.158 HD
ENDBRANCH  10  13
ENDBRANCH   1   6
BRANCH   2  16
HETATM   16  C7  UNL     1      25.245   3.946  50.469  1.00  0.00    -0.005 A 
HETATM   17  C8  UNL     1      24.886   5.272  50.343  1.00  0.00     0.017 A 
HETATM   18  C9  UNL     1      25.676   6.054  49.546  1.00  0.00     0.043 A 
HETATM   19  C10 UNL     1      26.798   5.666  48.849  1.00  0.00     0.116 A 
HETATM   20  F1  UNL     1      27.494   6.548  48.091  1.00  0.00    -0.206 F 
HETATM   21  C11 UNL     1      27.146   4.330  48.987  1.00  0.00     0.043 A 
HETATM   22  C12 UNL     1      26.375   3.481  49.788  1.00  0.00     0.017 A 
ENDBRANCH   2  16
BRANCH   5  23
HETATM   23  C14 UNL     1      21.571   1.057  52.327  1.00  0.00     0.091 C 
HETATM   24  C15 UNL     1      21.619  -0.402  51.969  1.00  0.00     0.026 C 
HETATM   25  C16 UNL     1      22.180  -1.222  53.092  1.00  0.00     0.002 C 
HETATM   26  C17 UNL     1      21.130  -1.145  54.197  1.00  0.00     0.000 C 
HETATM   27  C18 UNL     1      21.175   0.284  54.699  1.00  0.00     0.002 C 
HETATM   28  C19 UNL     1      20.916   1.294  53.648  1.00  0.00     0.026 C 
ENDBRANCH   5  23
TORSDOF 4
ENDMDL
MODEL 3
REMARK VINA RESULT:      -7.3      3.145      6.921
REMARK  4 active torsions:
REMARK  status: ('A' for Active; 'I' for Inactive)
REMARK    1  A    between atoms: C3_4  and  N2_5 
REMARK    2  A    between atoms: C4_8  and  C5_9 
REMARK    3  A    between atoms: C6_10  and  C7_11 
REMARK    4  A    between atoms: N5_20  and  C14_21 
ROOT
HETATM    1  C5  UNL     1      24.877   3.206  50.648  1.00  0.00     0.098 A 
HETATM    2  C6  UNL     1      26.199   2.870  50.871  1.00  0.00     0.097 A 
HETATM    3  N4  UNL     1      26.922   3.765  50.140  1.00  0.00    -0.241 NA
HETATM    4  C13 UNL     1      26.059   4.597  49.512  1.00  0.00     0.211 A 
HETATM    5  N5  UNL     1      24.788   4.270  49.811  1.00  0.00    -0.333 N 
ENDROOT
BRANCH   1   6
HETATM    6  C4  UNL     1      23.765   2.486  51.253  1.00  0.00     0.122 A 
HETATM    7  C2  UNL     1      23.374   2.650  52.645  1.00  0.00     0.082 A 
HETATM    8  C1  UNL     1      24.118   3.512  53.313  1.00  0.00     0.048 C 
HETATM    9  N1  UNL     1      22.297   1.968  53.275  1.00  0.00    -0.222 NA
HETATM   10  C3  UNL     1      21.553   1.120  52.650  1.00  0.00     0.183 A 
HETATM   11  S1  UNL     1      21.785   0.707  50.927  1.00  0.00     0.050 SA
HETATM   12  N3  UNL     1      23.164   1.681  50.408  1.00  0.00    -0.204 NA
BRANCH  10  13
HETATM   13  N2  UNL     1      20.547   0.552  53.432  1.00  0.00    -0.377 N 
HETATM   14  H3  UNL     1      20.535  -0.368  52.902  1.00  0.00     0.158 HD
HETATM   15  H4  UNL     1      19.845   0.532  54.199  1.00  0.00     0.158 HD
ENDBRANCH  10  13
ENDBRANCH   1   6
BRANCH   2  16
HETATM   16  C7  UNL     1      26.782   1.816  51.685  1.00  0.00    -0.005 A 
HETATM   17  C8  UNL     1      26.410   0.501  51.499  1.00  0.00     0.017 A 
HETATM   18  C9  UNL     1      27.005  -0.431  52.305  1.00  0.00     0.043 A 
HETATM   19  C10 UNL     1      27.941  -0.204  53.289  1.00  0.00     0.116 A 
HETATM   20  F1  UNL     1      28.454  -1.224  54.019  1.00  0.00    -0.206 F 
HETATM   21  C11 UNL     1      28.305   1.124  53.463  1.00  0.00     0.043 A 
HETATM   22  C12 UNL     1      27.730   2.121  52.668  1.00  0.00     0.017 A 
ENDBRANCH   2  16
BRANCH   5  23
HETATM   23  C14 UNL     1      23.565   4.899  49.352  1.00  0.00     0.091 C 
HETATM   24  C15 UNL     1      22.824   5.641  50.431  1.00  0.00     0.026 C 
HETATM   25  C16 UNL     1      23.409   7.003  50.656  1.00  0.00     0.002 C 
HETATM   26  C17 UNL     1      23.091   7.783  49.384  1.00  0.00     0.000 C 
HETATM   27  C18 UNL     1      23.955   7.164  48.304  1.00  0.00     0.002 C 
HETATM   28  C19 UNL     1      23.722   5.715  48.111  1.00  0.00     0.026 C 
ENDBRANCH   5  23
TORSDOF 4
ENDMDL
MODEL 4
REMARK VINA RESULT:      -7.3      7.644     10.885
REMARK  4 active torsions:
REMARK  status: ('A' for Active; 'I' for Inactive)
REMARK    1  A    between atoms: C3_4  and  N2_5 
REMARK    2  A    between atoms: C4_8  and  C5_9 
REMARK    3  A    between atoms: C6_10  and  C7_11 
REMARK    4  A    between atoms: N5_20  and  C14_21 
ROOT
HETATM    1  C5  UNL     1      28.801   6.994  48.314  1.00  0.00     0.098 A 
HETATM    2  C6  UNL     1      29.567   5.845  48.273  1.00  0.00     0.097 A 
HETATM    3  N4  UNL     1      28.690   4.824  48.496  1.00  0.00    -0.241 NA
HETATM    4  C13 UNL     1      27.456   5.353  48.660  1.00  0.00     0.211 A 
HETATM    5  N5  UNL     1      27.499   6.695  48.552  1.00  0.00    -0.333 N 
ENDROOT
BRANCH   1   6
HETATM    6  C4  UNL     1      29.361   8.325  48.120  1.00  0.00     0.122 A 
HETATM    7  C2  UNL     1      29.471   8.959  46.814  1.00  0.00     0.082 A 
HETATM    8  C1  UNL     1      29.017   8.221  45.819  1.00  0.00     0.048 C 
HETATM    9  N1  UNL     1      30.010  10.254  46.581  1.00  0.00    -0.222 NA
HETATM   10  C3  UNL     1      30.461  10.999  47.532  1.00  0.00     0.183 A 
HETATM   11  S1  UNL     1      30.461  10.495  49.246  1.00  0.00     0.050 SA
HETATM   12  N3  UNL     1      29.751   8.878  49.245  1.00  0.00    -0.204 NA
BRANCH  10  13
HETATM   13  N2  UNL     1      30.951  12.235  47.111  1.00  0.00    -0.377 N 
HETATM   14  H3  UNL     1      31.951  11.899  47.000  1.00  0.00     0.158 HD
HETATM   15  H4  UNL     1      30.883  13.243  46.860  1.00  0.00     0.158 HD
ENDBRANCH  10  13
ENDBRANCH   1   6
BRANCH   2  16
HETATM   16  C7  UNL     1      30.993   5.665  48.050  1.00  0.00    -0.005 A 
HETATM   17  C8  UNL     1      31.892   5.872  49.075  1.00  0.00     0.017 A 
HETATM   18  C9  UNL     1      33.216   5.682  48.785  1.00  0.00     0.043 A 
HETATM   19  C10 UNL     1      33.757   5.305  47.576  1.00  0.00     0.116 A 
HETATM   20  F1  UNL     1      35.094   5.152  47.423  1.00  0.00    -0.206 F 
HETATM   21  C11 UNL     1      32.838   5.101  46.556  1.00  0.00     0.043 A 
HETATM   22  C12 UNL     1      31.471   5.280  46.793  1.00  0.00     0.017 A 
ENDBRANCH   2  16
BRANCH   5  23
HETATM   23  C14 UNL     1      26.408   7.642  48.662  1.00  0.00     0.091 C 
HETATM   24  C15 UNL     1      25.230   7.313  47.786  1.00  0.00     0.026 C 
HETATM   25  C16 UNL     1      24.355   6.273  48.418  1.00  0.00     0.002 C 
HETATM   26  C17 UNL     1      23.735   6.964  49.630  1.00  0.00     0.000 C 
HETATM   27  C18 UNL     1      24.875   7.159  50.609  1.00  0.00     0.002 C 
HETATM   28  C19 UNL     1      26.001   7.951  50.065  1.00  0.00     0.026 C 
ENDBRANCH   5  23
TORSDOF 4
ENDMDL
MODEL 5
REMARK VINA RESULT:      -7.2     11.163     13.960
REMARK  4 active torsions:
REMARK  status: ('A' for Active; 'I' for Inactive)
REMARK    1  A    between atoms: C3_4  and  N2_5 
REMARK    2  A    between atoms: C4_8  and  C5_9 
REMARK    3  A    between atoms: C6_10  and  C7_11 
REMARK    4  A    between atoms: N5_20  and  C14_21 
ROOT
HETATM    1  C5  UNL     1      33.544   6.790  45.317  1.00  0.00     0.098 A 
HETATM    2  C6  UNL     1      33.940   5.472  45.208  1.00  0.00     0.097 A 
HETATM    3  N4  UNL     1      34.631   5.403  44.034  1.00  0.00    -0.241 NA
HETATM    4  C13 UNL     1      34.641   6.634  43.474  1.00  0.00     0.211 A 
HETATM    5  N5  UNL     1      33.974   7.510  44.250  1.00  0.00    -0.333 N 
ENDROOT
BRANCH   1   6
HETATM    6  C4  UNL     1      32.771   7.294  46.444  1.00  0.00     0.122 A 
HETATM    7  C2  UNL     1      33.379   7.748  47.686  1.00  0.00     0.082 A 
HETATM    8  C1  UNL     1      34.696   7.663  47.701  1.00  0.00     0.048 C 
HETATM    9  N1  UNL     1      32.663   8.245  48.810  1.00  0.00    -0.222 NA
HETATM   10  C3  UNL     1      31.377   8.340  48.826  1.00  0.00     0.183 A 
HETATM   11  S1  UNL     1      30.349   7.861  47.445  1.00  0.00     0.050 SA
HETATM   12  N3  UNL     1      31.479   7.290  46.213  1.00  0.00    -0.204 NA
BRANCH  10  13
HETATM   13  N2  UNL     1      30.853   8.849  50.014  1.00  0.00    -0.377 N 
HETATM   14  H3  UNL     1      31.488   8.275  50.641  1.00  0.00     0.158 HD
HETATM   15  H4  UNL     1      30.223   9.443  50.590  1.00  0.00     0.158 HD
ENDBRANCH  10  13
ENDBRANCH   1   6
BRANCH   2  16
HETATM   16  C7  UNL     1      33.719   4.341  46.095  1.00  0.00    -0.005 A 
HETATM   17  C8  UNL     1      34.654   4.009  47.052  1.00  0.00     0.017 A 
HETATM   18  C9  UNL     1      34.371   2.932  47.847  1.00  0.00     0.043 A 
HETATM   19  C10 UNL     1      33.250   2.135  47.801  1.00  0.00     0.116 A 
HETATM   20  F1  UNL     1      33.093   1.093  48.652  1.00  0.00    -0.206 F 
HETATM   21  C11 UNL     1      32.318   2.483  46.832  1.00  0.00     0.043 A 
HETATM   22  C12 UNL     1      32.553   3.575  45.990  1.00  0.00     0.017 A 
ENDBRANCH   2  16
BRANCH   5  23
HETATM   23  C14 UNL     1      33.747   8.923  44.021  1.00  0.00     0.091 C 
HETATM   24  C15 UNL     1      34.697   9.818  44.768  1.00  0.00     0.026 C 
HETATM   25  C16 UNL     1      36.009   9.940  44.052  1.00  0.00     0.002 C 
HETATM   26  C17 UNL     1      35.690  10.718  42.778  1.00  0.00     0.000 C 
HETATM   27  C18 UNL     1      34.867   9.775  41.924  1.00  0.00     0.002 C 
HETATM   28  C19 UNL     1      33.628   9.301  42.582  1.00  0.00     0.026 C 
ENDBRANCH   5  23
TORSDOF 4
ENDMDL
MODEL 6
REMARK VINA RESULT:      -7.2      3.209      4.359
REMARK  4 active torsions:
REMARK  status: ('A' for Active; 'I' for Inactive)
REMARK    1  A    between atoms: C3_4  and  N2_5 
REMARK    2  A    between atoms: C4_8  and  C5_9 
REMARK    3  A    between atoms: C6_10  and  C7_11 
REMARK    4  A    between atoms: N5_20  and  C14_21 
ROOT
HETATM    1  C5  UNL     1      21.866   2.357  50.409  1.00  0.00     0.098 A 
HETATM    2  C6  UNL     1      21.351   1.931  49.200  1.00  0.00     0.097 A 
HETATM    3  N4  UNL     1      21.033   0.618  49.391  1.00  0.00    -0.241 NA
HETATM    4  C13 UNL     1      21.348   0.286  50.664  1.00  0.00     0.211 A 
HETATM    5  N5  UNL     1      21.865   1.346  51.314  1.00  0.00    -0.333 N 
ENDROOT
BRANCH   1   6
HETATM    6  C4  UNL     1      22.333   3.718  50.634  1.00  0.00     0.122 A 
HETATM    7  C2  UNL     1      23.730   4.110  50.516  1.00  0.00     0.082 A 
HETATM    8  C1  UNL     1      24.538   3.121  50.186  1.00  0.00     0.048 C 
HETATM    9  N1  UNL     1      24.227   5.425  50.727  1.00  0.00    -0.222 NA
HETATM   10  C3  UNL     1      23.463   6.413  51.050  1.00  0.00     0.183 A 
HETATM   11  S1  UNL     1      21.698   6.245  51.269  1.00  0.00     0.050 SA
HETATM   12  N3  UNL     1      21.360   4.540  50.952  1.00  0.00    -0.204 NA
BRANCH  10  13
HETATM   13  N2  UNL     1      24.131   7.626  51.215  1.00  0.00    -0.377 N 
HETATM   14  H3  UNL     1      23.337   8.090  51.746  1.00  0.00     0.158 HD
HETATM   15  H4  UNL     1      24.926   8.288  51.112  1.00  0.00     0.158 HD
ENDBRANCH  10  13
ENDBRANCH   1   6
BRANCH   2  16
HETATM   16  C7  UNL     1      21.154   2.647  47.950  1.00  0.00    -0.005 A 
HETATM   17  C8  UNL     1      19.900   3.096  47.591  1.00  0.00     0.017 A 
HETATM   18  C9  UNL     1      19.797   3.761  46.401  1.00  0.00     0.043 A 
HETATM   19  C10 UNL     1      20.812   4.037  45.512  1.00  0.00     0.116 A 
HETATM   20  F1  UNL     1      20.573   4.709  44.360  1.00  0.00    -0.206 F 
HETATM   21  C11 UNL     1      22.067   3.580  45.888  1.00  0.00     0.043 A 
HETATM   22  C12 UNL     1      22.234   2.892  47.095  1.00  0.00     0.017 A 
ENDBRANCH   2  16
BRANCH   5  23
HETATM   23  C14 UNL     1      22.332   1.421  52.684  1.00  0.00     0.091 C 
HETATM   24  C15 UNL     1      21.327   0.937  53.693  1.00  0.00     0.026 C 
HETATM   25  C16 UNL     1      21.339  -0.559  53.800  1.00  0.00     0.002 C 
HETATM   26  C17 UNL     1      22.689  -0.897  54.427  1.00  0.00     0.000 C 
HETATM   27  C18 UNL     1      23.720  -0.575  53.365  1.00  0.00     0.002 C 
HETATM   28  C19 UNL     1      23.685   0.832  52.906  1.00  0.00     0.026 C 
ENDBRANCH   5  23
TORSDOF 4
ENDMDL
MODEL 7
REMARK VINA RESULT:      -7.2      2.773      3.587
REMARK  4 active torsions:
REMARK  status: ('A' for Active; 'I' for Inactive)
REMARK    1  A    between atoms: C3_4  and  N2_5 
REMARK    2  A    between atoms: C4_8  and  C5_9 
REMARK    3  A    between atoms: C6_10  and  C7_11 
REMARK    4  A    between atoms: N5_20  and  C14_21 
ROOT
HETATM    1  C5  UNL     1      23.429   2.891  50.403  1.00  0.00     0.098 A 
HETATM    2  C6  UNL     1      22.375   2.566  49.571  1.00  0.00     0.097 A 
HETATM    3  N4  UNL     1      21.976   1.325  49.970  1.00  0.00    -0.241 NA
HETATM    4  C13 UNL     1      22.764   0.934  50.998  1.00  0.00     0.211 A 
HETATM    5  N5  UNL     1      23.672   1.887  51.284  1.00  0.00    -0.333 N 
ENDROOT
BRANCH   1   6
HETATM    6  C4  UNL     1      24.151   4.153  50.310  1.00  0.00     0.122 A 
HETATM    7  C2  UNL     1      23.804   5.327  51.097  1.00  0.00     0.082 A 
HETATM    8  C1  UNL     1      22.776   5.148  51.904  1.00  0.00     0.048 C 
HETATM    9  N1  UNL     1      24.481   6.576  51.037  1.00  0.00    -0.222 NA
HETATM   10  C3  UNL     1      25.488   6.783  50.258  1.00  0.00     0.183 A 
HETATM   11  S1  UNL     1      26.149   5.529  49.170  1.00  0.00     0.050 SA
HETATM   12  N3  UNL     1      25.137   4.108  49.445  1.00  0.00    -0.204 NA
BRANCH  10  13
HETATM   13  N2  UNL     1      26.021   8.070  50.337  1.00  0.00    -0.377 N 
HETATM   14  H3  UNL     1      25.304   8.417  51.038  1.00  0.00     0.158 HD
HETATM   15  H4  UNL     1      26.690   8.831  50.103  1.00  0.00     0.158 HD
ENDBRANCH  10  13
ENDBRANCH   1   6
BRANCH   2  16
HETATM   16  C7  UNL     1      21.761   3.315  48.487  1.00  0.00    -0.005 A 
HETATM   17  C8  UNL     1      20.762   4.230  48.747  1.00  0.00     0.017 A 
HETATM   18  C9  UNL     1      20.235   4.893  47.673  1.00  0.00     0.043 A 
HETATM   19  C10 UNL     1      20.591   4.751  46.350  1.00  0.00     0.116 A 
HETATM   20  F1  UNL     1      19.985   5.475  45.379  1.00  0.00    -0.206 F 
HETATM   21  C11 UNL     1      21.598   3.828  46.106  1.00  0.00     0.043 A 
HETATM   22  C12 UNL     1      22.174   3.118  47.165  1.00  0.00     0.017 A 
ENDBRANCH   2  16
BRANCH   5  23
HETATM   23  C14 UNL     1      24.699   1.874  52.306  1.00  0.00     0.091 C 
HETATM   24  C15 UNL     1      24.336   1.061  53.518  1.00  0.00     0.026 C 
HETATM   25  C16 UNL     1      24.583  -0.400  53.289  1.00  0.00     0.002 C 
HETATM   26  C17 UNL     1      26.100  -0.533  53.193  1.00  0.00     0.000 C 
HETATM   27  C18 UNL     1      26.482   0.135  51.888  1.00  0.00     0.002 C 
HETATM   28  C19 UNL     1      26.066   1.552  51.798  1.00  0.00     0.026 C 
ENDBRANCH   5  23
TORSDOF 4
ENDMDL
MODEL 8
REMARK VINA RESULT:      -7.1      3.037      5.906
REMARK  4 active torsions:
REMARK  status: ('A' for Active; 'I' for Inactive)
REMARK    1  A    between atoms: C3_4  and  N2_5 
REMARK    2  A    between atoms: C4_8  and  C5_9 
REMARK    3  A    between atoms: C6_10  and  C7_11 
REMARK    4  A    between atoms: N5_20  and  C14_21 
ROOT
HETATM    1  C5  UNL     1      22.191   3.237  51.444  1.00  0.00     0.098 A 
HETATM    2  C6  UNL     1      22.970   2.563  52.364  1.00  0.00     0.097 A 
HETATM    3  N4  UNL     1      24.075   3.343  52.534  1.00  0.00    -0.241 NA
HETATM    4  C13 UNL     1      23.951   4.435  51.745  1.00  0.00     0.211 A 
HETATM    5  N5  UNL     1      22.792   4.391  51.060  1.00  0.00    -0.333 N 
ENDROOT
BRANCH   1   6
HETATM    6  C4  UNL     1      20.904   2.737  50.979  1.00  0.00     0.122 A 
HETATM    7  C2  UNL     1      20.769   1.773  49.897  1.00  0.00     0.082 A 
HETATM    8  C1  UNL     1      21.917   1.391  49.372  1.00  0.00     0.048 C 
HETATM    9  N1  UNL     1      19.534   1.260  49.413  1.00  0.00    -0.222 NA
HETATM   10  C3  UNL     1      18.395   1.614  49.904  1.00  0.00     0.183 A 
HETATM   11  S1  UNL     1      18.236   2.784  51.245  1.00  0.00     0.050 SA
HETATM   12  N3  UNL     1      19.893   3.250  51.641  1.00  0.00    -0.204 NA
BRANCH  10  13
HETATM   13  N2  UNL     1      17.295   1.005  49.301  1.00  0.00    -0.377 N 
HETATM   14  H3  UNL     1      16.956   1.892  48.826  1.00  0.00     0.158 HD
HETATM   15  H4  UNL     1      16.660   0.213  49.073  1.00  0.00     0.158 HD
ENDBRANCH  10  13
ENDBRANCH   1   6
BRANCH   2  16
HETATM   16  C7  UNL     1      22.744   1.301  53.050  1.00  0.00    -0.005 A 
HETATM   17  C8  UNL     1      23.734   0.341  53.091  1.00  0.00     0.017 A 
HETATM   18  C9  UNL     1      23.444  -0.819  53.756  1.00  0.00     0.043 A 
HETATM   19  C10 UNL     1      22.268  -1.141  54.394  1.00  0.00     0.116 A 
HETATM   20  F1  UNL     1      22.111  -2.332  55.019  1.00  0.00    -0.206 F 
HETATM   21  C11 UNL     1      21.283  -0.164  54.343  1.00  0.00     0.043 A 
HETATM   22  C12 UNL     1      21.521   1.042  53.677  1.00  0.00     0.017 A 
ENDBRANCH   2  16
BRANCH   5  23
HETATM   23  C14 UNL     1      22.272   5.355  50.110  1.00  0.00     0.091 C 
HETATM   24  C15 UNL     1      22.058   6.725  50.693  1.00  0.00     0.026 C 
HETATM   25  C16 UNL     1      23.338   7.503  50.740  1.00  0.00     0.002 C 
HETATM   26  C17 UNL     1      23.690   7.772  49.279  1.00  0.00     0.000 C 
HETATM   27  C18 UNL     1      24.075   6.425  48.703  1.00  0.00     0.002 C 
HETATM   28  C19 UNL     1      23.012   5.401  48.814  1.00  0.00     0.026 C 
ENDBRANCH   5  23
TORSDOF 4
ENDMDL
MODEL 9
REMARK VINA RESULT:      -7.0      3.308      6.476
REMARK  4 active torsions:
REMARK  status: ('A' for Active; 'I' for Inactive)
REMARK    1  A    between atoms: C3_4  and  N2_5 
REMARK    2  A    between atoms: C4_8  and  C5_9 
REMARK    3  A    between atoms: C6_10  and  C7_11 
REMARK    4  A    between atoms: N5_20  and  C14_21 
ROOT
HETATM    1  C5  UNL     1      20.287   2.351  51.155  1.00  0.00     0.098 A 
HETATM    2  C6  UNL     1      19.999   1.241  51.925  1.00  0.00     0.097 A 
HETATM    3  N4  UNL     1      18.693   0.952  51.659  1.00  0.00    -0.241 NA
HETATM    4  C13 UNL     1      18.231   1.857  50.766  1.00  0.00     0.211 A 
HETATM    5  N5  UNL     1      19.200   2.734  50.439  1.00  0.00    -0.333 N 
ENDROOT
BRANCH   1   6
HETATM    6  C4  UNL     1      21.596   2.990  51.146  1.00  0.00     0.122 A 
HETATM    7  C2  UNL     1      22.628   2.675  50.168  1.00  0.00     0.082 A 
HETATM    8  C1  UNL     1      22.271   1.758  49.289  1.00  0.00     0.048 C 
HETATM    9  N1  UNL     1      23.917   3.272  50.123  1.00  0.00    -0.222 NA
HETATM   10  C3  UNL     1      24.295   4.171  50.969  1.00  0.00     0.183 A 
HETATM   11  S1  UNL     1      23.248   4.767  52.287  1.00  0.00     0.050 SA
HETATM   12  N3  UNL     1      21.736   3.870  52.109  1.00  0.00    -0.204 NA
BRANCH  10  13
HETATM   13  N2  UNL     1      25.593   4.640  50.767  1.00  0.00    -0.377 N 
HETATM   14  H3  UNL     1      25.737   4.107  49.860  1.00  0.00     0.158 HD
HETATM   15  H4  UNL     1      26.446   5.188  50.998  1.00  0.00     0.158 HD
ENDBRANCH  10  13
ENDBRANCH   1   6
BRANCH   2  16
HETATM   16  C7  UNL     1      20.835   0.483  52.842  1.00  0.00    -0.005 A 
HETATM   17  C8  UNL     1      20.580   0.501  54.198  1.00  0.00     0.017 A 
HETATM   18  C9  UNL     1      21.412  -0.238  54.994  1.00  0.00     0.043 A 
HETATM   19  C10 UNL     1      22.483  -1.004  54.593  1.00  0.00     0.116 A 
HETATM   20  F1  UNL     1      23.230  -1.692  55.490  1.00  0.00    -0.206 F 
HETATM   21  C11 UNL     1      22.725  -1.012  53.226  1.00  0.00     0.043 A 
HETATM   22  C12 UNL     1      21.908  -0.274  52.362  1.00  0.00     0.017 A 
ENDBRANCH   2  16
BRANCH   5  23
HETATM   23  C14 UNL     1      19.127   3.855  49.524  1.00  0.00     0.091 C 
HETATM   24  C15 UNL     1      19.196   3.459  48.075  1.00  0.00     0.026 C 
HETATM   25  C16 UNL     1      17.861   2.997  47.571  1.00  0.00     0.002 C 
HETATM   26  C17 UNL     1      16.985   4.247  47.573  1.00  0.00     0.000 C 
HETATM   27  C18 UNL     1      16.757   4.577  49.034  1.00  0.00     0.002 C 
HETATM   28  C19 UNL     1      18.004   4.801  49.799  1.00  0.00     0.026 C 
ENDBRANCH   5  23
TORSDOF 4
ENDMDL
