MODEL 1
REMARK VINA RESULT:      -7.8      0.000      0.000
REMARK  5 active torsions:
REMARK  status: ('A' for Active; 'I' for Inactive)
REMARK    1  A    between atoms: O1_2  and  C2_3 
REMARK    2  A    between atoms: C10_11  and  S1_12 
REMARK    3  A    between atoms: S1_12  and  S2_13 
REMARK    4  A    between atoms: S2_13  and  C11_14 
REMARK       I    between atoms: C11_14  and  N1_16 
REMARK    5  A    between atoms: N1_16  and  C13_18 
ROOT
HETATM    1  C2  UNL     1      24.924   0.955  52.173  1.00  0.00     0.191 A 
HETATM    2  C3  UNL     1      24.915   0.109  53.394  1.00  0.00    -0.012 A 
HETATM    3  C4  UNL     1      25.159  -0.663  54.523  1.00  0.00     0.011 A 
HETATM    4  C5  UNL     1      24.189  -1.245  55.316  1.00  0.00     0.003 A 
HETATM    5  C6  UNL     1      22.828  -1.082  55.012  1.00  0.00     0.030 A 
HETATM    6  C7  UNL     1      22.451  -0.337  53.916  1.00  0.00     0.046 A 
HETATM    7  C8  UNL     1      23.557   0.158  53.256  1.00  0.00     0.012 A 
HETATM    8  C9  UNL     1      23.440   0.928  52.138  1.00  0.00     0.023 A 
HETATM    9  C10 UNL     1      22.036   0.898  52.108  1.00  0.00     0.093 A 
HETATM   10  N2  UNL     1      21.487   0.171  53.131  1.00  0.00    -0.344 N 
HETATM   11  C19 UNL     1      20.136  -0.130  53.498  1.00  0.00     0.157 C 
ENDROOT
BRANCH   9  12
HETATM   12  S1  UNL     1      21.089   1.731  50.855  1.00  0.00    -0.029 SA
BRANCH  12  13
HETATM   13  S2  UNL     1      21.263   3.828  51.016  1.00  0.00     0.011 SA
BRANCH  13  14
HETATM   14  C11 UNL     1      22.955   4.365  50.831  1.00  0.00     0.297 C 
HETATM   15  O2  UNL     1      23.528   4.682  51.900  1.00  0.00    -0.259 OA
HETATM   16  N1  UNL     1      23.544   4.402  49.540  1.00  0.00    -0.312 N 
HETATM   17  C12 UNL     1      22.706   3.988  48.403  1.00  0.00     0.160 C 
BRANCH  16  18
HETATM   18  C13 UNL     1      24.854   4.795  49.224  1.00  0.00     0.037 A 
HETATM   19  C14 UNL     1      25.984   4.012  49.323  1.00  0.00     0.029 A 
HETATM   20  C15 UNL     1      27.265   4.409  49.010  1.00  0.00     0.002 A 
HETATM   21  C16 UNL     1      27.466   5.694  48.556  1.00  0.00     0.000 A 
HETATM   22  C17 UNL     1      26.381   6.527  48.435  1.00  0.00     0.002 A 
HETATM   23  C18 UNL     1      25.127   6.066  48.765  1.00  0.00     0.029 A 
ENDBRANCH  16  18
ENDBRANCH  13  14
ENDBRANCH  12  13
ENDBRANCH   9  12
BRANCH   1  24
HETATM   24  O1  UNL     1      25.473   2.218  52.366  1.00  0.00    -0.381 OA
HETATM   25  C1  UNL     1      26.864   2.033  52.366  1.00  0.00     0.202 C 
ENDBRANCH   1  24
TORSDOF 5
ENDMDL
MODEL 2
REMARK VINA RESULT:      -7.7      3.073      5.926
REMARK  5 active torsions:
REMARK  status: ('A' for Active; 'I' for Inactive)
REMARK    1  A    between atoms: O1_2  and  C2_3 
REMARK    2  A    between atoms: C10_11  and  S1_12 
REMARK    3  A    between atoms: S1_12  and  S2_13 
REMARK    4  A    between atoms: S2_13  and  C11_14 
REMARK       I    between atoms: C11_14  and  N1_16 
REMARK    5  A    between atoms: N1_16  and  C13_18 
ROOT
HETATM    1  C2  UNL     1      20.340  -0.468  53.078  1.00  0.00     0.191 A 
HETATM    2  C3  UNL     1      18.965  -0.510  52.517  1.00  0.00    -0.012 A 
HETATM    3  C4  UNL     1      17.625  -0.688  52.199  1.00  0.00     0.011 A 
HETATM    4  C5  UNL     1      16.997  -0.179  51.079  1.00  0.00     0.003 A 
HETATM    5  C6  UNL     1      17.714   0.588  50.146  1.00  0.00     0.030 A 
HETATM    6  C7  UNL     1      19.054   0.838  50.346  1.00  0.00     0.046 A 
HETATM    7  C8  UNL     1      19.495   0.250  51.513  1.00  0.00     0.012 A 
HETATM    8  C9  UNL     1      20.788   0.357  51.927  1.00  0.00     0.023 A 
HETATM    9  C10 UNL     1      21.208   1.136  50.837  1.00  0.00     0.093 A 
HETATM   10  N2  UNL     1      20.204   1.402  49.943  1.00  0.00    -0.344 N 
HETATM   11  C19 UNL     1      20.162   2.138  48.715  1.00  0.00     0.157 C 
ENDROOT
BRANCH   9  12
HETATM   12  S1  UNL     1      22.881   1.709  50.659  1.00  0.00    -0.029 SA
BRANCH  12  13
HETATM   13  S2  UNL     1      23.713   2.268  52.516  1.00  0.00     0.011 SA
BRANCH  13  14
HETATM   14  C11 UNL     1      24.969   1.116  53.048  1.00  0.00     0.297 C 
HETATM   15  O2  UNL     1      24.565   0.216  53.822  1.00  0.00    -0.259 OA
HETATM   16  N1  UNL     1      26.302   1.268  52.589  1.00  0.00    -0.312 N 
HETATM   17  C12 UNL     1      26.581   2.392  51.680  1.00  0.00     0.160 C 
BRANCH  16  18
HETATM   18  C13 UNL     1      27.401   0.454  52.909  1.00  0.00     0.037 A 
HETATM   19  C14 UNL     1      27.458  -0.918  52.789  1.00  0.00     0.029 A 
HETATM   20  C15 UNL     1      28.541  -1.707  53.107  1.00  0.00     0.002 A 
HETATM   21  C16 UNL     1      29.680  -1.101  53.589  1.00  0.00     0.000 A 
HETATM   22  C17 UNL     1      29.690   0.264  53.733  1.00  0.00     0.002 A 
HETATM   23  C18 UNL     1      28.572   0.993  53.396  1.00  0.00     0.029 A 
ENDBRANCH  16  18
ENDBRANCH  13  14
ENDBRANCH  12  13
ENDBRANCH   9  12
BRANCH   1  24
HETATM   24  O1  UNL     1      20.428   0.167  54.312  1.00  0.00    -0.381 OA
HETATM   25  C1  UNL     1      21.488  -0.457  54.987  1.00  0.00     0.202 C 
ENDBRANCH   1  24
TORSDOF 5
ENDMDL
MODEL 3
REMARK VINA RESULT:      -7.6      2.468      4.340
REMARK  5 active torsions:
REMARK  status: ('A' for Active; 'I' for Inactive)
REMARK    1  A    between atoms: O1_2  and  C2_3 
REMARK    2  A    between atoms: C10_11  and  S1_12 
REMARK    3  A    between atoms: S1_12  and  S2_13 
REMARK    4  A    between atoms: S2_13  and  C11_14 
REMARK       I    between atoms: C11_14  and  N1_16 
REMARK    5  A    between atoms: N1_16  and  C13_18 
ROOT
HETATM    1  C2  UNL     1      23.248  -0.513  52.995  1.00  0.00     0.191 A 
HETATM    2  C3  UNL     1      21.938  -1.010  53.491  1.00  0.00    -0.012 A 
HETATM    3  C4  UNL     1      20.854  -1.630  54.098  1.00  0.00     0.011 A 
HETATM    4  C5  UNL     1      19.527  -1.336  53.852  1.00  0.00     0.003 A 
HETATM    5  C6  UNL     1      19.177  -0.341  52.924  1.00  0.00     0.030 A 
HETATM    6  C7  UNL     1      20.162   0.350  52.252  1.00  0.00     0.046 A 
HETATM    7  C8  UNL     1      21.415  -0.085  52.633  1.00  0.00     0.012 A 
HETATM    8  C9  UNL     1      22.551   0.449  52.105  1.00  0.00     0.023 A 
HETATM    9  C10 UNL     1      21.887   1.357  51.264  1.00  0.00     0.093 A 
HETATM   10  N2  UNL     1      20.523   1.287  51.360  1.00  0.00    -0.344 N 
HETATM   11  C19 UNL     1      19.461   1.999  50.714  1.00  0.00     0.157 C 
ENDROOT
BRANCH   9  12
HETATM   12  S1  UNL     1      22.757   2.476  50.191  1.00  0.00    -0.029 SA
BRANCH  12  13
HETATM   13  S2  UNL     1      23.943   3.836  51.284  1.00  0.00     0.011 SA
BRANCH  13  14
HETATM   14  C11 UNL     1      25.053   2.993  52.399  1.00  0.00     0.297 C 
HETATM   15  O2  UNL     1      24.686   2.978  53.597  1.00  0.00    -0.259 OA
HETATM   16  N1  UNL     1      26.243   2.404  51.896  1.00  0.00    -0.312 N 
HETATM   17  C12 UNL     1      26.500   2.528  50.452  1.00  0.00     0.160 C 
BRANCH  16  18
HETATM   18  C13 UNL     1      27.215   1.709  52.633  1.00  0.00     0.037 A 
HETATM   19  C14 UNL     1      27.352   0.340  52.709  1.00  0.00     0.029 A 
HETATM   20  C15 UNL     1      28.309  -0.332  53.437  1.00  0.00     0.002 A 
HETATM   21  C16 UNL     1      29.223   0.402  54.160  1.00  0.00     0.000 A 
HETATM   22  C17 UNL     1      29.142   1.772  54.128  1.00  0.00     0.002 A 
HETATM   23  C18 UNL     1      28.160   2.379  53.380  1.00  0.00     0.029 A 
ENDBRANCH  16  18
ENDBRANCH  13  14
ENDBRANCH  12  13
ENDBRANCH   9  12
BRANCH   1  24
HETATM   24  O1  UNL     1      24.036   0.076  53.978  1.00  0.00    -0.381 OA
HETATM   25  C1  UNL     1      24.549  -0.984  54.742  1.00  0.00     0.202 C 
ENDBRANCH   1  24
TORSDOF 5
ENDMDL
MODEL 4
REMARK VINA RESULT:      -7.6      2.445      6.455
REMARK  5 active torsions:
REMARK  status: ('A' for Active; 'I' for Inactive)
REMARK    1  A    between atoms: O1_2  and  C2_3 
REMARK    2  A    between atoms: C10_11  and  S1_12 
REMARK    3  A    between atoms: S1_12  and  S2_13 
REMARK    4  A    between atoms: S2_13  and  C11_14 
REMARK       I    between atoms: C11_14  and  N1_16 
REMARK    5  A    between atoms: N1_16  and  C13_18 
ROOT
HETATM    1  C2  UNL     1      23.438   0.282  53.916  1.00  0.00     0.191 A 
HETATM    2  C3  UNL     1      24.736  -0.238  53.416  1.00  0.00    -0.012 A 
HETATM    3  C4  UNL     1      25.901  -0.925  53.097  1.00  0.00     0.011 A 
HETATM    4  C5  UNL     1      26.873  -0.481  52.223  1.00  0.00     0.003 A 
HETATM    5  C6  UNL     1      26.736   0.755  51.570  1.00  0.00     0.030 A 
HETATM    6  C7  UNL     1      25.623   1.535  51.801  1.00  0.00     0.046 A 
HETATM    7  C8  UNL     1      24.773   0.923  52.698  1.00  0.00     0.012 A 
HETATM    8  C9  UNL     1      23.602   1.502  53.085  1.00  0.00     0.023 A 
HETATM    9  C10 UNL     1      23.762   2.654  52.298  1.00  0.00     0.093 A 
HETATM   10  N2  UNL     1      24.922   2.656  51.570  1.00  0.00    -0.344 N 
HETATM   11  C19 UNL     1      25.495   3.594  50.652  1.00  0.00     0.157 C 
ENDROOT
BRANCH   9  12
HETATM   12  S1  UNL     1      22.561   3.964  52.268  1.00  0.00    -0.029 SA
BRANCH  12  13
HETATM   13  S2  UNL     1      21.073   3.620  50.811  1.00  0.00     0.011 SA
BRANCH  13  14
HETATM   14  C11 UNL     1      19.733   2.634  51.459  1.00  0.00     0.297 C 
HETATM   15  O2  UNL     1      18.840   3.284  52.053  1.00  0.00    -0.259 OA
HETATM   16  N1  UNL     1      19.744   1.227  51.277  1.00  0.00    -0.312 N 
HETATM   17  C12 UNL     1      20.884   0.648  50.550  1.00  0.00     0.160 C 
BRANCH  16  18
HETATM   18  C13 UNL     1      18.773   0.314  51.721  1.00  0.00     0.037 A 
HETATM   19  C14 UNL     1      17.541   0.095  51.145  1.00  0.00     0.029 A 
HETATM   20  C15 UNL     1      16.596  -0.804  51.589  1.00  0.00     0.002 A 
HETATM   21  C16 UNL     1      16.879  -1.563  52.702  1.00  0.00     0.000 A 
HETATM   22  C17 UNL     1      18.091  -1.394  53.324  1.00  0.00     0.002 A 
HETATM   23  C18 UNL     1      18.990  -0.478  52.828  1.00  0.00     0.029 A 
ENDBRANCH  16  18
ENDBRANCH  13  14
ENDBRANCH  12  13
ENDBRANCH   9  12
BRANCH   1  24
HETATM   24  O1  UNL     1      22.345  -0.507  53.574  1.00  0.00    -0.381 OA
HETATM   25  C1  UNL     1      22.153  -1.382  54.655  1.00  0.00     0.202 C 
ENDBRANCH   1  24
TORSDOF 5
ENDMDL
MODEL 5
REMARK VINA RESULT:      -7.4      1.834      2.754
REMARK  5 active torsions:
REMARK  status: ('A' for Active; 'I' for Inactive)
REMARK    1  A    between atoms: O1_2  and  C2_3 
REMARK    2  A    between atoms: C10_11  and  S1_12 
REMARK    3  A    between atoms: S1_12  and  S2_13 
REMARK    4  A    between atoms: S2_13  and  C11_14 
REMARK       I    between atoms: C11_14  and  N1_16 
REMARK    5  A    between atoms: N1_16  and  C13_18 
ROOT
HETATM    1  C2  UNL     1      24.489   0.205  53.140  1.00  0.00     0.191 A 
HETATM    2  C3  UNL     1      23.290  -0.557  53.572  1.00  0.00    -0.012 A 
HETATM    3  C4  UNL     1      22.334  -1.452  54.035  1.00  0.00     0.011 A 
HETATM    4  C5  UNL     1      20.975  -1.214  54.082  1.00  0.00     0.003 A 
HETATM    5  C6  UNL     1      20.450   0.012  53.642  1.00  0.00     0.030 A 
HETATM    6  C7  UNL     1      21.295   0.988  53.158  1.00  0.00     0.046 A 
HETATM    7  C8  UNL     1      22.607   0.563  53.192  1.00  0.00     0.012 A 
HETATM    8  C9  UNL     1      23.629   1.356  52.765  1.00  0.00     0.023 A 
HETATM    9  C10 UNL     1      22.810   2.441  52.411  1.00  0.00     0.093 A 
HETATM   10  N2  UNL     1      21.480   2.214  52.643  1.00  0.00    -0.344 N 
HETATM   11  C19 UNL     1      20.305   3.010  52.444  1.00  0.00     0.157 C 
ENDROOT
BRANCH   9  12
HETATM   12  S1  UNL     1      23.463   3.948  51.732  1.00  0.00    -0.029 SA
BRANCH  12  13
HETATM   13  S2  UNL     1      23.573   3.870  49.626  1.00  0.00     0.011 SA
BRANCH  13  14
HETATM   14  C11 UNL     1      24.733   5.064  48.983  1.00  0.00     0.297 C 
HETATM   15  O2  UNL     1      24.216   6.120  48.548  1.00  0.00    -0.259 OA
HETATM   16  N1  UNL     1      26.122   4.773  48.996  1.00  0.00    -0.312 N 
HETATM   17  C12 UNL     1      26.536   3.474  49.550  1.00  0.00     0.160 C 
BRANCH  16  18
HETATM   18  C13 UNL     1      27.159   5.598  48.532  1.00  0.00     0.037 A 
HETATM   19  C14 UNL     1      27.035   6.910  48.128  1.00  0.00     0.029 A 
HETATM   20  C15 UNL     1      28.060   7.711  47.674  1.00  0.00     0.002 A 
HETATM   21  C16 UNL     1      29.330   7.182  47.607  1.00  0.00     0.000 A 
HETATM   22  C17 UNL     1      29.523   5.879  47.995  1.00  0.00     0.002 A 
HETATM   23  C18 UNL     1      28.454   5.135  48.439  1.00  0.00     0.029 A 
ENDBRANCH  16  18
ENDBRANCH  13  14
ENDBRANCH  12  13
ENDBRANCH   9  12
BRANCH   1  24
HETATM   24  O1  UNL     1      25.391   0.469  54.165  1.00  0.00    -0.381 OA
HETATM   25  C1  UNL     1      26.085   1.625  53.775  1.00  0.00     0.202 C 
ENDBRANCH   1  24
TORSDOF 5
ENDMDL
MODEL 6
REMARK VINA RESULT:      -7.2      2.189      3.579
REMARK  5 active torsions:
REMARK  status: ('A' for Active; 'I' for Inactive)
REMARK    1  A    between atoms: O1_2  and  C2_3 
REMARK    2  A    between atoms: C10_11  and  S1_12 
REMARK    3  A    between atoms: S1_12  and  S2_13 
REMARK    4  A    between atoms: S2_13  and  C11_14 
REMARK       I    between atoms: C11_14  and  N1_16 
REMARK    5  A    between atoms: N1_16  and  C13_18 
ROOT
HETATM    1  C2  UNL     1      21.093   1.760  52.449  1.00  0.00     0.191 A 
HETATM    2  C3  UNL     1      20.741   0.497  53.146  1.00  0.00    -0.012 A 
HETATM    3  C4  UNL     1      20.171  -0.619  53.746  1.00  0.00     0.011 A 
HETATM    4  C5  UNL     1      20.872  -1.639  54.359  1.00  0.00     0.003 A 
HETATM    5  C6  UNL     1      22.275  -1.607  54.416  1.00  0.00     0.030 A 
HETATM    6  C7  UNL     1      22.962  -0.552  53.856  1.00  0.00     0.046 A 
HETATM    7  C8  UNL     1      22.091   0.359  53.295  1.00  0.00     0.012 A 
HETATM    8  C9  UNL     1      22.535   1.490  52.679  1.00  0.00     0.023 A 
HETATM    9  C10 UNL     1      23.897   1.231  52.900  1.00  0.00     0.093 A 
HETATM   10  N2  UNL     1      24.124   0.060  53.573  1.00  0.00    -0.344 N 
HETATM   11  C19 UNL     1      25.318  -0.599  54.010  1.00  0.00     0.157 C 
ENDROOT
BRANCH   9  12
HETATM   12  S1  UNL     1      25.181   2.329  52.347  1.00  0.00    -0.029 SA
BRANCH  12  13
HETATM   13  S2  UNL     1      24.610   3.379  50.608  1.00  0.00     0.011 SA
BRANCH  13  14
HETATM   14  C11 UNL     1      26.029   3.915  49.667  1.00  0.00     0.297 C 
HETATM   15  O2  UNL     1      26.815   2.998  49.331  1.00  0.00    -0.259 OA
HETATM   16  N1  UNL     1      26.189   5.291  49.359  1.00  0.00    -0.312 N 
HETATM   17  C12 UNL     1      25.155   6.218  49.844  1.00  0.00     0.160 C 
BRANCH  16  18
HETATM   18  C13 UNL     1      27.241   5.873  48.632  1.00  0.00     0.037 A 
HETATM   19  C14 UNL     1      28.523   5.382  48.524  1.00  0.00     0.029 A 
HETATM   20  C15 UNL     1      29.548   5.962  47.808  1.00  0.00     0.002 A 
HETATM   21  C16 UNL     1      29.298   7.135  47.131  1.00  0.00     0.000 A 
HETATM   22  C17 UNL     1      28.039   7.678  47.197  1.00  0.00     0.002 A 
HETATM   23  C18 UNL     1      27.061   7.046  47.931  1.00  0.00     0.029 A 
ENDBRANCH  16  18
ENDBRANCH  13  14
ENDBRANCH  12  13
ENDBRANCH   9  12
BRANCH   1  24
HETATM   24  O1  UNL     1      20.717   1.790  51.110  1.00  0.00    -0.381 OA
HETATM   25  C1  UNL     1      19.589   2.622  51.049  1.00  0.00     0.202 C 
ENDBRANCH   1  24
TORSDOF 5
ENDMDL
MODEL 7
REMARK VINA RESULT:      -7.0      2.486      3.759
REMARK  5 active torsions:
REMARK  status: ('A' for Active; 'I' for Inactive)
REMARK    1  A    between atoms: O1_2  and  C2_3 
REMARK    2  A    between atoms: C10_11  and  S1_12 
REMARK    3  A    between atoms: S1_12  and  S2_13 
REMARK    4  A    between atoms: S2_13  and  C11_14 
REMARK       I    between atoms: C11_14  and  N1_16 
REMARK    5  A    between atoms: N1_16  and  C13_18 
ROOT
HETATM    1  C2  UNL     1      24.213   1.854  51.467  1.00  0.00     0.191 A 
HETATM    2  C3  UNL     1      25.392   1.124  52.001  1.00  0.00    -0.012 A 
HETATM    3  C4  UNL     1      26.625   0.578  52.332  1.00  0.00     0.011 A 
HETATM    4  C5  UNL     1      26.838  -0.381  53.302  1.00  0.00     0.003 A 
HETATM    5  C6  UNL     1      25.764  -0.889  54.051  1.00  0.00     0.030 A 
HETATM    6  C7  UNL     1      24.486  -0.428  53.820  1.00  0.00     0.046 A 
HETATM    7  C8  UNL     1      24.479   0.521  52.819  1.00  0.00     0.012 A 
HETATM    8  C9  UNL     1      23.329   1.125  52.411  1.00  0.00     0.023 A 
HETATM    9  C10 UNL     1      22.496   0.433  53.305  1.00  0.00     0.093 A 
HETATM   10  N2  UNL     1      23.173  -0.450  54.103  1.00  0.00    -0.344 N 
HETATM   11  C19 UNL     1      22.755  -1.350  55.136  1.00  0.00     0.157 C 
ENDROOT
BRANCH   9  12
HETATM   12  S1  UNL     1      20.740   0.698  53.375  1.00  0.00    -0.029 SA
BRANCH  12  13
HETATM   13  S2  UNL     1      19.979   1.361  51.522  1.00  0.00     0.011 SA
BRANCH  13  14
HETATM   14  C11 UNL     1      19.859   3.141  51.458  1.00  0.00     0.297 C 
HETATM   15  O2  UNL     1      19.094   3.648  52.311  1.00  0.00    -0.259 OA
HETATM   16  N1  UNL     1      20.604   3.861  50.489  1.00  0.00    -0.312 N 
HETATM   17  C12 UNL     1      21.451   3.083  49.571  1.00  0.00     0.160 C 
BRANCH  16  18
HETATM   18  C13 UNL     1      20.623   5.254  50.307  1.00  0.00     0.037 A 
HETATM   19  C14 UNL     1      21.586   6.121  50.772  1.00  0.00     0.029 A 
HETATM   20  C15 UNL     1      21.594   7.486  50.588  1.00  0.00     0.002 A 
HETATM   21  C16 UNL     1      20.563   8.063  49.880  1.00  0.00     0.000 A 
HETATM   22  C17 UNL     1      19.569   7.253  49.388  1.00  0.00     0.002 A 
HETATM   23  C18 UNL     1      19.623   5.896  49.609  1.00  0.00     0.029 A 
ENDBRANCH  16  18
ENDBRANCH  13  14
ENDBRANCH  12  13
ENDBRANCH   9  12
BRANCH   1  24
HETATM   24  O1  UNL     1      24.264   3.229  51.667  1.00  0.00    -0.381 OA
HETATM   25  C1  UNL     1      25.201   3.715  50.743  1.00  0.00     0.202 C 
ENDBRANCH   1  24
TORSDOF 5
ENDMDL
MODEL 8
REMARK VINA RESULT:      -7.0      1.813      3.225
REMARK  5 active torsions:
REMARK  status: ('A' for Active; 'I' for Inactive)
REMARK    1  A    between atoms: O1_2  and  C2_3 
REMARK    2  A    between atoms: C10_11  and  S1_12 
REMARK    3  A    between atoms: S1_12  and  S2_13 
REMARK    4  A    between atoms: S2_13  and  C11_14 
REMARK       I    between atoms: C11_14  and  N1_16 
REMARK    5  A    between atoms: N1_16  and  C13_18 
ROOT
HETATM    1  C2  UNL     1      22.888  -0.148  53.777  1.00  0.00     0.191 A 
HETATM    2  C3  UNL     1      24.366  -0.301  53.754  1.00  0.00    -0.012 A 
HETATM    3  C4  UNL     1      25.710  -0.609  53.924  1.00  0.00     0.011 A 
HETATM    4  C5  UNL     1      26.748  -0.081  53.183  1.00  0.00     0.003 A 
HETATM    5  C6  UNL     1      26.494   0.849  52.161  1.00  0.00     0.030 A 
HETATM    6  C7  UNL     1      25.200   1.239  51.891  1.00  0.00     0.046 A 
HETATM    7  C8  UNL     1      24.310   0.603  52.733  1.00  0.00     0.012 A 
HETATM    8  C9  UNL     1      22.969   0.827  52.659  1.00  0.00     0.023 A 
HETATM    9  C10 UNL     1      23.050   1.749  51.603  1.00  0.00     0.093 A 
HETATM   10  N2  UNL     1      24.332   1.972  51.176  1.00  0.00    -0.344 N 
HETATM   11  C19 UNL     1      24.888   2.807  50.153  1.00  0.00     0.157 C 
ENDROOT
BRANCH   9  12
HETATM   12  S1  UNL     1      21.614   2.532  50.906  1.00  0.00    -0.029 SA
BRANCH  12  13
HETATM   13  S2  UNL     1      21.442   4.539  51.533  1.00  0.00     0.011 SA
BRANCH  13  14
HETATM   14  C11 UNL     1      22.997   5.407  51.396  1.00  0.00     0.297 C 
HETATM   15  O2  UNL     1      23.715   5.367  52.422  1.00  0.00    -0.259 OA
HETATM   16  N1  UNL     1      23.328   6.067  50.184  1.00  0.00    -0.312 N 
HETATM   17  C12 UNL     1      22.350   5.999  49.087  1.00  0.00     0.160 C 
BRANCH  16  18
HETATM   18  C13 UNL     1      24.502   6.789  49.914  1.00  0.00     0.037 A 
HETATM   19  C14 UNL     1      24.787   8.067  50.341  1.00  0.00     0.029 A 
HETATM   20  C15 UNL     1      25.943   8.766  50.069  1.00  0.00     0.002 A 
HETATM   21  C16 UNL     1      26.916   8.160  49.306  1.00  0.00     0.000 A 
HETATM   22  C17 UNL     1      26.695   6.885  48.848  1.00  0.00     0.002 A 
HETATM   23  C18 UNL     1      25.517   6.244  49.157  1.00  0.00     0.029 A 
ENDBRANCH  16  18
ENDBRANCH  13  14
ENDBRANCH  12  13
ENDBRANCH   9  12
BRANCH   1  24
HETATM   24  O1  UNL     1      22.195  -1.315  53.476  1.00  0.00    -0.381 OA
HETATM   25  C1  UNL     1      21.157  -1.395  54.416  1.00  0.00     0.202 C 
ENDBRANCH   1  24
TORSDOF 5
ENDMDL
MODEL 9
REMARK VINA RESULT:      -6.8      1.816      7.726
REMARK  5 active torsions:
REMARK  status: ('A' for Active; 'I' for Inactive)
REMARK    1  A    between atoms: O1_2  and  C2_3 
REMARK    2  A    between atoms: C10_11  and  S1_12 
REMARK    3  A    between atoms: S1_12  and  S2_13 
REMARK    4  A    between atoms: S2_13  and  C11_14 
REMARK       I    between atoms: C11_14  and  N1_16 
REMARK    5  A    between atoms: N1_16  and  C13_18 
ROOT
HETATM    1  C2  UNL     1      26.809   4.850  49.482  1.00  0.00     0.191 A 
HETATM    2  C3  UNL     1      27.487   5.838  48.603  1.00  0.00    -0.012 A 
HETATM    3  C4  UNL     1      28.331   6.633  47.840  1.00  0.00     0.011 A 
HETATM    4  C5  UNL     1      27.936   7.717  47.080  1.00  0.00     0.003 A 
HETATM    5  C6  UNL     1      26.585   8.099  47.032  1.00  0.00     0.030 A 
HETATM    6  C7  UNL     1      25.644   7.391  47.747  1.00  0.00     0.046 A 
HETATM    7  C8  UNL     1      26.232   6.351  48.437  1.00  0.00     0.012 A 
HETATM    8  C9  UNL     1      25.503   5.505  49.218  1.00  0.00     0.023 A 
HETATM    9  C10 UNL     1      24.270   6.129  48.965  1.00  0.00     0.093 A 
HETATM   10  N2  UNL     1      24.368   7.204  48.123  1.00  0.00    -0.344 N 
HETATM   11  C19 UNL     1      23.403   8.121  47.595  1.00  0.00     0.157 C 
ENDROOT
BRANCH   9  12
HETATM   12  S1  UNL     1      22.746   5.557  49.681  1.00  0.00    -0.029 SA
BRANCH  12  13
HETATM   13  S2  UNL     1      22.560   3.460  49.539  1.00  0.00     0.011 SA
BRANCH  13  14
HETATM   14  C11 UNL     1      22.679   2.679  51.140  1.00  0.00     0.297 C 
HETATM   15  O2  UNL     1      23.299   3.342  52.005  1.00  0.00    -0.259 OA
HETATM   16  N1  UNL     1      22.090   1.404  51.347  1.00  0.00    -0.312 N 
HETATM   17  C12 UNL     1      21.401   0.785  50.203  1.00  0.00     0.160 C 
BRANCH  16  18
HETATM   18  C13 UNL     1      22.093   0.659  52.537  1.00  0.00     0.037 A 
HETATM   19  C14 UNL     1      21.025   0.488  53.391  1.00  0.00     0.029 A 
HETATM   20  C15 UNL     1      21.039  -0.245  54.557  1.00  0.00     0.002 A 
HETATM   21  C16 UNL     1      22.207  -0.874  54.927  1.00  0.00     0.000 A 
HETATM   22  C17 UNL     1      23.310  -0.744  54.119  1.00  0.00     0.002 A 
HETATM   23  C18 UNL     1      23.227   0.005  52.967  1.00  0.00     0.029 A 
ENDBRANCH  16  18
ENDBRANCH  13  14
ENDBRANCH  12  13
ENDBRANCH   9  12
BRANCH   1  24
HETATM   24  O1  UNL     1      26.899   3.538  49.030  1.00  0.00    -0.381 OA
HETATM   25  C1  UNL     1      26.384   2.743  50.066  1.00  0.00     0.202 C 
ENDBRANCH   1  24
TORSDOF 5
ENDMDL
