MODEL 1
REMARK VINA RESULT:      -7.1      0.000      0.000
REMARK  9 active torsions:
REMARK  status: ('A' for Active; 'I' for Inactive)
REMARK    1  A    between atoms: C2_2  and  C3_3 
REMARK       I    between atoms: C3_3  and  N1_5 
REMARK    2  A    between atoms: N1_5  and  C4_6 
REMARK    3  A    between atoms: C6_8  and  C7_9 
REMARK    4  A    between atoms: C8_12  and  C9_13 
REMARK    5  A    between atoms: C15_20  and  O2_21 
REMARK    6  A    between atoms: C18_24  and  N5_25 
REMARK    7  A    between atoms: N5_25  and  C20_27 
REMARK    8  A    between atoms: C20_27  and  C21_28 
REMARK    9  A    between atoms: C21_28  and  N6_29 
ROOT
HETATM    1  C4  UNL     1      23.761   1.491  52.888  1.00  0.00     0.062 A 
HETATM    2  C5  UNL     1      22.949   2.443  52.276  1.00  0.00     0.050 A 
HETATM    3  C6  UNL     1      23.448   3.290  51.309  1.00  0.00     0.049 A 
HETATM    4  C15 UNL     1      24.768   3.230  50.909  1.00  0.00     0.084 A 
HETATM    5  C17 UNL     1      25.593   2.280  51.516  1.00  0.00     0.069 A 
HETATM    6  C18 UNL     1      25.076   1.440  52.482  1.00  0.00     0.059 A 
ENDROOT
BRANCH   3   7
HETATM    7  C7  UNL     1      22.563   4.277  50.702  1.00  0.00     0.181 C 
HETATM    8  N2  UNL     1      22.536   5.397  51.339  1.00  0.00    -0.158 NA
HETATM    9  N3  UNL     1      21.899   6.629  51.218  1.00  0.00    -0.303 N 
HETATM   10  C8  UNL     1      21.128   7.382  50.264  1.00  0.00     0.128 C 
HETATM   11  H6  UNL     1      22.052   7.149  52.127  1.00  0.00     0.183 HD
HETATM   12  C12 UNL     1      20.061   6.509  49.722  1.00  0.00     0.001 C 
HETATM   13  C13 UNL     1      19.855   5.314  49.198  1.00  0.00     0.017 C 
HETATM   14  C14 UNL     1      20.815   4.225  48.922  1.00  0.00     0.119 C 
HETATM   15  N4  UNL     1      21.901   3.817  49.533  1.00  0.00    -0.239 NA
BRANCH  10  16
HETATM   16  C9  UNL     1      21.974   7.871  49.083  1.00  0.00     0.014 A 
HETATM   17  C10 UNL     1      22.067   9.393  48.972  1.00  0.00     0.007 A 
HETATM   18  C11 UNL     1      23.251   8.579  49.373  1.00  0.00     0.007 A 
ENDBRANCH  10  16
ENDBRANCH   3   7
BRANCH   4  19
HETATM   19  O2  UNL     1      25.170   4.125  49.929  1.00  0.00    -0.355 OA
HETATM   20  C16 UNL     1      26.503   4.074  49.462  1.00  0.00     0.210 C 
ENDBRANCH   4  19
BRANCH   1  21
HETATM   21  N1  UNL     1      23.149   0.682  53.850  1.00  0.00    -0.322 N 
HETATM   22  C3  UNL     1      22.367  -0.408  53.374  1.00  0.00     0.244 C 
HETATM   23  O1  UNL     1      22.360  -0.464  52.121  1.00  0.00    -0.268 OA
HETATM   24  H4  UNL     1      23.267   0.881  54.867  1.00  0.00     0.169 HD
BRANCH  22  25
HETATM   25  C2  UNL     1      21.688  -1.312  54.288  1.00  0.00     0.064 C 
HETATM   26  C1  UNL     1      20.399  -1.590  54.182  1.00  0.00     0.017 C 
ENDBRANCH  22  25
ENDBRANCH   1  21
BRANCH   6  27
HETATM   27  N5  UNL     1      25.920   0.476  53.095  1.00  0.00    -0.382 N 
HETATM   28  C19 UNL     1      26.134  -0.925  52.777  1.00  0.00     0.150 C 
BRANCH  27  29
HETATM   29  C20 UNL     1      26.707   0.970  54.238  1.00  0.00     0.152 C 
BRANCH  29  30
HETATM   30  C21 UNL     1      27.706  -0.083  54.671  1.00  0.00     0.291 C 
BRANCH  30  31
HETATM   31  N6  UNL     1      29.072   0.353  54.579  1.00  0.00     0.081 N 
HETATM   32  C22 UNL     1      29.795  -0.446  53.603  1.00  0.00     0.309 C 
HETATM   33  C23 UNL     1      29.066   1.710  54.051  1.00  0.00     0.309 C 
ENDBRANCH  30  31
ENDBRANCH  29  30
ENDBRANCH  27  29
ENDBRANCH   6  27
TORSDOF 9
ENDMDL
MODEL 2
REMARK VINA RESULT:      -7.0      2.831      5.674
REMARK  9 active torsions:
REMARK  status: ('A' for Active; 'I' for Inactive)
REMARK    1  A    between atoms: C2_2  and  C3_3 
REMARK       I    between atoms: C3_3  and  N1_5 
REMARK    2  A    between atoms: N1_5  and  C4_6 
REMARK    3  A    between atoms: C6_8  and  C7_9 
REMARK    4  A    between atoms: C8_12  and  C9_13 
REMARK    5  A    between atoms: C15_20  and  O2_21 
REMARK    6  A    between atoms: C18_24  and  N5_25 
REMARK    7  A    between atoms: N5_25  and  C20_27 
REMARK    8  A    between atoms: C20_27  and  C21_28 
REMARK    9  A    between atoms: C21_28  and  N6_29 
ROOT
HETATM    1  C4  UNL     1      24.346   1.027  51.881  1.00  0.00     0.062 A 
HETATM    2  C5  UNL     1      23.040   1.369  51.532  1.00  0.00     0.050 A 
HETATM    3  C6  UNL     1      21.967   0.955  52.294  1.00  0.00     0.049 A 
HETATM    4  C15 UNL     1      22.141   0.189  53.429  1.00  0.00     0.084 A 
HETATM    5  C17 UNL     1      23.446  -0.160  53.789  1.00  0.00     0.069 A 
HETATM    6  C18 UNL     1      24.507   0.263  53.014  1.00  0.00     0.059 A 
ENDROOT
BRANCH   3   7
HETATM    7  C7  UNL     1      20.619   1.329  51.886  1.00  0.00     0.181 C 
HETATM    8  N2  UNL     1      20.049   0.446  51.141  1.00  0.00    -0.158 NA
HETATM    9  N3  UNL     1      18.825   0.286  50.495  1.00  0.00    -0.303 N 
HETATM   10  C8  UNL     1      17.510   0.870  50.465  1.00  0.00     0.128 C 
HETATM   11  H6  UNL     1      18.931  -0.529  49.828  1.00  0.00     0.183 HD
HETATM   12  C12 UNL     1      17.647   2.340  50.353  1.00  0.00     0.001 C 
HETATM   13  C13 UNL     1      18.277   3.374  50.882  1.00  0.00     0.017 C 
HETATM   14  C14 UNL     1      19.258   3.418  51.987  1.00  0.00     0.119 C 
HETATM   15  N4  UNL     1      20.194   2.591  52.382  1.00  0.00    -0.239 NA
BRANCH  10  16
HETATM   16  C9  UNL     1      16.709   0.572  51.737  1.00  0.00     0.014 A 
HETATM   17  C10 UNL     1      15.615  -0.481  51.552  1.00  0.00     0.007 A 
HETATM   18  C11 UNL     1      16.838  -0.777  52.355  1.00  0.00     0.007 A 
ENDBRANCH  10  16
ENDBRANCH   3   7
BRANCH   4  19
HETATM   19  O2  UNL     1      20.999  -0.174  54.125  1.00  0.00    -0.355 OA
HETATM   20  C16 UNL     1      20.708  -1.546  54.295  1.00  0.00     0.210 C 
ENDBRANCH   4  19
BRANCH   1  21
HETATM   21  N1  UNL     1      25.355   1.504  51.039  1.00  0.00    -0.322 N 
HETATM   22  C3  UNL     1      25.630   2.901  51.090  1.00  0.00     0.244 C 
HETATM   23  O1  UNL     1      24.891   3.492  51.913  1.00  0.00    -0.268 OA
HETATM   24  H4  UNL     1      25.874   0.856  50.409  1.00  0.00     0.169 HD
BRANCH  22  25
HETATM   25  C2  UNL     1      26.659   3.502  50.258  1.00  0.00     0.064 C 
HETATM   26  C1  UNL     1      26.384   4.405  49.331  1.00  0.00     0.017 C 
ENDBRANCH  22  25
ENDBRANCH   1  21
BRANCH   6  27
HETATM   27  N5  UNL     1      25.830  -0.097  53.385  1.00  0.00    -0.382 N 
HETATM   28  C19 UNL     1      26.618  -1.268  53.043  1.00  0.00     0.150 C 
BRANCH  27  29
HETATM   29  C20 UNL     1      26.520   0.869  54.257  1.00  0.00     0.152 C 
BRANCH  29  30
HETATM   30  C21 UNL     1      27.806   0.264  54.783  1.00  0.00     0.291 C 
BRANCH  30  31
HETATM   31  N6  UNL     1      28.974   1.034  54.455  1.00  0.00     0.081 N 
HETATM   32  C22 UNL     1      29.880   0.255  53.625  1.00  0.00     0.309 C 
HETATM   33  C23 UNL     1      28.547   2.154  53.628  1.00  0.00     0.309 C 
ENDBRANCH  30  31
ENDBRANCH  29  30
ENDBRANCH  27  29
ENDBRANCH   6  27
TORSDOF 9
ENDMDL
MODEL 3
REMARK VINA RESULT:      -6.9      2.407      4.724
REMARK  9 active torsions:
REMARK  status: ('A' for Active; 'I' for Inactive)
REMARK    1  A    between atoms: C2_2  and  C3_3 
REMARK       I    between atoms: C3_3  and  N1_5 
REMARK    2  A    between atoms: N1_5  and  C4_6 
REMARK    3  A    between atoms: C6_8  and  C7_9 
REMARK    4  A    between atoms: C8_12  and  C9_13 
REMARK    5  A    between atoms: C15_20  and  O2_21 
REMARK    6  A    between atoms: C18_24  and  N5_25 
REMARK    7  A    between atoms: N5_25  and  C20_27 
REMARK    8  A    between atoms: C20_27  and  C21_28 
REMARK    9  A    between atoms: C21_28  and  N6_29 
ROOT
HETATM    1  C4  UNL     1      24.376   1.007  51.917  1.00  0.00     0.062 A 
HETATM    2  C5  UNL     1      23.081   1.367  51.550  1.00  0.00     0.050 A 
HETATM    3  C6  UNL     1      21.991   0.958  52.290  1.00  0.00     0.049 A 
HETATM    4  C15 UNL     1      22.137   0.180  53.420  1.00  0.00     0.084 A 
HETATM    5  C17 UNL     1      23.432  -0.188  53.799  1.00  0.00     0.069 A 
HETATM    6  C18 UNL     1      24.511   0.230  53.046  1.00  0.00     0.059 A 
ENDROOT
BRANCH   3   7
HETATM    7  C7  UNL     1      20.654   1.351  51.863  1.00  0.00     0.181 C 
HETATM    8  N2  UNL     1      20.399   2.597  52.069  1.00  0.00    -0.158 NA
HETATM    9  N3  UNL     1      19.334   3.471  51.867  1.00  0.00    -0.303 N 
HETATM   10  C8  UNL     1      18.077   3.536  51.168  1.00  0.00     0.128 C 
HETATM   11  H6  UNL     1      19.550   4.355  52.408  1.00  0.00     0.183 HD
HETATM   12  C12 UNL     1      17.317   2.295  51.445  1.00  0.00     0.001 C 
HETATM   13  C13 UNL     1      17.433   0.980  51.460  1.00  0.00     0.017 C 
HETATM   14  C14 UNL     1      18.600   0.131  51.140  1.00  0.00     0.119 C 
HETATM   15  N4  UNL     1      19.891   0.290  51.306  1.00  0.00    -0.239 NA
BRANCH  10  16
HETATM   16  C9  UNL     1      18.258   3.641  49.649  1.00  0.00     0.014 A 
HETATM   17  C10 UNL     1      17.889   5.008  49.072  1.00  0.00     0.007 A 
HETATM   18  C11 UNL     1      19.310   4.555  49.123  1.00  0.00     0.007 A 
ENDBRANCH  10  16
ENDBRANCH   3   7
BRANCH   4  19
HETATM   19  O2  UNL     1      20.979  -0.177  54.094  1.00  0.00    -0.355 OA
HETATM   20  C16 UNL     1      20.715  -1.546  54.323  1.00  0.00     0.210 C 
ENDBRANCH   4  19
BRANCH   1  21
HETATM   21  N1  UNL     1      25.405   1.480  51.098  1.00  0.00    -0.322 N 
HETATM   22  C3  UNL     1      25.639   2.885  51.103  1.00  0.00     0.244 C 
HETATM   23  O1  UNL     1      24.853   3.485  51.873  1.00  0.00    -0.268 OA
HETATM   24  H4  UNL     1      25.966   0.824  50.514  1.00  0.00     0.169 HD
BRANCH  22  25
HETATM   25  C2  UNL     1      26.684   3.484  50.289  1.00  0.00     0.064 C 
HETATM   26  C1  UNL     1      26.425   4.367  49.339  1.00  0.00     0.017 C 
ENDBRANCH  22  25
ENDBRANCH   1  21
BRANCH   6  27
HETATM   27  N5  UNL     1      25.823  -0.148  53.436  1.00  0.00    -0.382 N 
HETATM   28  C19 UNL     1      26.620  -1.303  53.060  1.00  0.00     0.150 C 
BRANCH  27  29
HETATM   29  C20 UNL     1      26.488   0.775  54.371  1.00  0.00     0.152 C 
BRANCH  29  30
HETATM   30  C21 UNL     1      27.825   0.204  54.797  1.00  0.00     0.291 C 
BRANCH  30  31
HETATM   31  N6  UNL     1      28.942   1.033  54.435  1.00  0.00     0.081 N 
HETATM   32  C22 UNL     1      29.857   0.304  53.571  1.00  0.00     0.309 C 
HETATM   33  C23 UNL     1      28.431   2.133  53.629  1.00  0.00     0.309 C 
ENDBRANCH  30  31
ENDBRANCH  29  30
ENDBRANCH  27  29
ENDBRANCH   6  27
TORSDOF 9
ENDMDL
MODEL 4
REMARK VINA RESULT:      -6.9      1.299      2.348
REMARK  9 active torsions:
REMARK  status: ('A' for Active; 'I' for Inactive)
REMARK    1  A    between atoms: C2_2  and  C3_3 
REMARK       I    between atoms: C3_3  and  N1_5 
REMARK    2  A    between atoms: N1_5  and  C4_6 
REMARK    3  A    between atoms: C6_8  and  C7_9 
REMARK    4  A    between atoms: C8_12  and  C9_13 
REMARK    5  A    between atoms: C15_20  and  O2_21 
REMARK    6  A    between atoms: C18_24  and  N5_25 
REMARK    7  A    between atoms: N5_25  and  C20_27 
REMARK    8  A    between atoms: C20_27  and  C21_28 
REMARK    9  A    between atoms: C21_28  and  N6_29 
ROOT
HETATM    1  C4  UNL     1      24.469   2.515  52.226  1.00  0.00     0.062 A 
HETATM    2  C5  UNL     1      23.810   3.604  51.659  1.00  0.00     0.050 A 
HETATM    3  C6  UNL     1      24.417   4.383  50.697  1.00  0.00     0.049 A 
HETATM    4  C15 UNL     1      25.698   4.118  50.257  1.00  0.00     0.084 A 
HETATM    5  C17 UNL     1      26.370   3.028  50.818  1.00  0.00     0.069 A 
HETATM    6  C18 UNL     1      25.746   2.259  51.780  1.00  0.00     0.059 A 
ENDROOT
BRANCH   3   7
HETATM    7  C7  UNL     1      23.692   5.518  50.139  1.00  0.00     0.181 C 
HETATM    8  N2  UNL     1      23.015   5.222  49.083  1.00  0.00    -0.158 NA
HETATM    9  N3  UNL     1      22.180   5.879  48.184  1.00  0.00    -0.303 N 
HETATM   10  C8  UNL     1      21.471   7.124  48.046  1.00  0.00     0.128 C 
HETATM   11  H6  UNL     1      22.043   5.233  47.358  1.00  0.00     0.183 HD
HETATM   12  C12 UNL     1      22.397   8.235  48.366  1.00  0.00     0.001 C 
HETATM   13  C13 UNL     1      23.270   8.639  49.270  1.00  0.00     0.017 C 
HETATM   14  C14 UNL     1      23.706   7.985  50.522  1.00  0.00     0.119 C 
HETATM   15  N4  UNL     1      23.872   6.729  50.860  1.00  0.00    -0.239 NA
BRANCH  10  16
HETATM   16  C9  UNL     1      20.276   7.225  49.000  1.00  0.00     0.014 A 
HETATM   17  C10 UNL     1      18.916   7.089  48.312  1.00  0.00     0.007 A 
HETATM   18  C11 UNL     1      19.433   6.015  49.210  1.00  0.00     0.007 A 
ENDBRANCH  10  16
ENDBRANCH   3   7
BRANCH   4  19
HETATM   19  O2  UNL     1      26.218   4.960  49.286  1.00  0.00    -0.355 OA
HETATM   20  C16 UNL     1      27.498   4.684  48.756  1.00  0.00     0.210 C 
ENDBRANCH   4  19
BRANCH   1  21
HETATM   21  N1  UNL     1      23.756   1.793  53.187  1.00  0.00    -0.322 N 
HETATM   22  C3  UNL     1      22.814   0.838  52.710  1.00  0.00     0.244 C 
HETATM   23  O1  UNL     1      22.781   0.803  51.457  1.00  0.00    -0.268 OA
HETATM   24  H4  UNL     1      23.917   1.957  54.204  1.00  0.00     0.169 HD
BRANCH  22  25
HETATM   25  C2  UNL     1      22.020   0.032  53.623  1.00  0.00     0.064 C 
HETATM   26  C1  UNL     1      22.566  -0.819  54.476  1.00  0.00     0.017 C 
ENDBRANCH  22  25
ENDBRANCH   1  21
BRANCH   6  27
HETATM   27  N5  UNL     1      26.435   1.154  52.346  1.00  0.00    -0.382 N 
HETATM   28  C19 UNL     1      26.578  -0.210  51.868  1.00  0.00     0.150 C 
BRANCH  27  29
HETATM   29  C20 UNL     1      27.114   1.428  53.624  1.00  0.00     0.152 C 
BRANCH  29  30
HETATM   30  C21 UNL     1      27.495   0.124  54.296  1.00  0.00     0.291 C 
BRANCH  30  31
HETATM   31  N6  UNL     1      28.868   0.081  54.718  1.00  0.00     0.081 N 
HETATM   32  C22 UNL     1      29.634  -0.813  53.863  1.00  0.00     0.309 C 
HETATM   33  C23 UNL     1      29.435   1.405  54.512  1.00  0.00     0.309 C 
ENDBRANCH  30  31
ENDBRANCH  29  30
ENDBRANCH  27  29
ENDBRANCH   6  27
TORSDOF 9
ENDMDL
MODEL 5
REMARK VINA RESULT:      -6.9      2.285      5.324
REMARK  9 active torsions:
REMARK  status: ('A' for Active; 'I' for Inactive)
REMARK    1  A    between atoms: C2_2  and  C3_3 
REMARK       I    between atoms: C3_3  and  N1_5 
REMARK    2  A    between atoms: N1_5  and  C4_6 
REMARK    3  A    between atoms: C6_8  and  C7_9 
REMARK    4  A    between atoms: C8_12  and  C9_13 
REMARK    5  A    between atoms: C15_20  and  O2_21 
REMARK    6  A    between atoms: C18_24  and  N5_25 
REMARK    7  A    between atoms: N5_25  and  C20_27 
REMARK    8  A    between atoms: C20_27  and  C21_28 
REMARK    9  A    between atoms: C21_28  and  N6_29 
ROOT
HETATM    1  C4  UNL     1      24.636   1.116  51.988  1.00  0.00     0.062 A 
HETATM    2  C5  UNL     1      24.938   2.225  51.201  1.00  0.00     0.050 A 
HETATM    3  C6  UNL     1      24.024   3.242  51.020  1.00  0.00     0.049 A 
HETATM    4  C15 UNL     1      22.777   3.204  51.609  1.00  0.00     0.084 A 
HETATM    5  C17 UNL     1      22.461   2.097  52.402  1.00  0.00     0.069 A 
HETATM    6  C18 UNL     1      23.388   1.088  52.572  1.00  0.00     0.059 A 
ENDROOT
BRANCH   3   7
HETATM    7  C7  UNL     1      24.382   4.378  50.180  1.00  0.00     0.181 C 
HETATM    8  N2  UNL     1      25.333   5.096  50.670  1.00  0.00    -0.158 NA
HETATM    9  N3  UNL     1      26.041   6.240  50.314  1.00  0.00    -0.303 N 
HETATM   10  C8  UNL     1      26.252   7.096  49.176  1.00  0.00     0.128 C 
HETATM   11  H6  UNL     1      26.584   6.549  51.168  1.00  0.00     0.183 HD
HETATM   12  C12 UNL     1      24.936   7.439  48.590  1.00  0.00     0.001 C 
HETATM   13  C13 UNL     1      23.800   6.899  48.185  1.00  0.00     0.017 C 
HETATM   14  C14 UNL     1      23.375   5.484  48.181  1.00  0.00     0.119 C 
HETATM   15  N4  UNL     1      23.615   4.479  48.988  1.00  0.00    -0.239 NA
BRANCH  10  16
HETATM   16  C9  UNL     1      27.086   6.420  48.082  1.00  0.00     0.014 A 
HETATM   17  C10 UNL     1      28.558   6.839  48.073  1.00  0.00     0.007 A 
HETATM   18  C11 UNL     1      28.153   5.466  48.495  1.00  0.00     0.007 A 
ENDBRANCH  10  16
ENDBRANCH   3   7
BRANCH   4  19
HETATM   19  O2  UNL     1      21.933   4.276  51.366  1.00  0.00    -0.355 OA
HETATM   20  C16 UNL     1      20.536   4.079  51.448  1.00  0.00     0.210 C 
ENDBRANCH   4  19
BRANCH   1  21
HETATM   21  N1  UNL     1      25.638   0.149  52.105  1.00  0.00    -0.322 N 
HETATM   22  C3  UNL     1      26.686   0.415  53.032  1.00  0.00     0.244 C 
HETATM   23  O1  UNL     1      26.527   1.515  53.611  1.00  0.00    -0.268 OA
HETATM   24  H4  UNL     1      25.607  -0.722  51.533  1.00  0.00     0.169 HD
BRANCH  22  25
HETATM   25  C2  UNL     1      27.778  -0.523  53.233  1.00  0.00     0.064 C 
HETATM   26  C1  UNL     1      28.810  -0.253  54.015  1.00  0.00     0.017 C 
ENDBRANCH  22  25
ENDBRANCH   1  21
BRANCH   6  27
HETATM   27  N5  UNL     1      23.061  -0.034  53.377  1.00  0.00    -0.382 N 
HETATM   28  C19 UNL     1      23.624  -0.482  54.640  1.00  0.00     0.150 C 
BRANCH  27  29
HETATM   29  C20 UNL     1      21.979  -0.885  52.855  1.00  0.00     0.152 C 
BRANCH  29  30
HETATM   30  C21 UNL     1      20.831  -0.926  53.843  1.00  0.00     0.291 C 
BRANCH  30  31
HETATM   31  N6  UNL     1      19.636  -0.295  53.355  1.00  0.00     0.081 N 
HETATM   32  C22 UNL     1      19.759  -0.001  51.936  1.00  0.00     0.309 C 
HETATM   33  C23 UNL     1      18.551  -1.259  53.465  1.00  0.00     0.309 C 
ENDBRANCH  30  31
ENDBRANCH  29  30
ENDBRANCH  27  29
ENDBRANCH   6  27
TORSDOF 9
ENDMDL
MODEL 6
REMARK VINA RESULT:      -6.7      2.536      8.537
REMARK  9 active torsions:
REMARK  status: ('A' for Active; 'I' for Inactive)
REMARK    1  A    between atoms: C2_2  and  C3_3 
REMARK       I    between atoms: C3_3  and  N1_5 
REMARK    2  A    between atoms: N1_5  and  C4_6 
REMARK    3  A    between atoms: C6_8  and  C7_9 
REMARK    4  A    between atoms: C8_12  and  C9_13 
REMARK    5  A    between atoms: C15_20  and  O2_21 
REMARK    6  A    between atoms: C18_24  and  N5_25 
REMARK    7  A    between atoms: N5_25  and  C20_27 
REMARK    8  A    between atoms: C20_27  and  C21_28 
REMARK    9  A    between atoms: C21_28  and  N6_29 
ROOT
HETATM    1  C4  UNL     1      22.414   2.190  51.622  1.00  0.00     0.062 A 
HETATM    2  C5  UNL     1      23.769   2.074  51.923  1.00  0.00     0.050 A 
HETATM    3  C6  UNL     1      24.221   1.134  52.827  1.00  0.00     0.049 A 
HETATM    4  C15 UNL     1      23.353   0.274  53.466  1.00  0.00     0.084 A 
HETATM    5  C17 UNL     1      21.991   0.380  53.173  1.00  0.00     0.069 A 
HETATM    6  C18 UNL     1      21.557   1.326  52.266  1.00  0.00     0.059 A 
ENDROOT
BRANCH   3   7
HETATM    7  C7  UNL     1      25.647   1.056  53.118  1.00  0.00     0.181 C 
HETATM    8  N2  UNL     1      25.940   0.161  53.997  1.00  0.00    -0.158 NA
HETATM    9  N3  UNL     1      27.085  -0.323  54.624  1.00  0.00    -0.303 N 
HETATM   10  C8  UNL     1      28.518  -0.258  54.505  1.00  0.00     0.128 C 
HETATM   11  H6  UNL     1      26.765  -0.924  55.434  1.00  0.00     0.183 HD
HETATM   12  C12 UNL     1      28.917   1.159  54.345  1.00  0.00     0.001 C 
HETATM   13  C13 UNL     1      28.642   2.249  53.651  1.00  0.00     0.017 C 
HETATM   14  C14 UNL     1      27.639   2.465  52.587  1.00  0.00     0.119 C 
HETATM   15  N4  UNL     1      26.438   1.980  52.382  1.00  0.00    -0.239 NA
BRANCH  10  16
HETATM   16  C9  UNL     1      29.039  -1.029  53.288  1.00  0.00     0.014 A 
HETATM   17  C10 UNL     1      29.861  -2.270  53.642  1.00  0.00     0.007 A 
HETATM   18  C11 UNL     1      28.504  -2.396  53.033  1.00  0.00     0.007 A 
ENDBRANCH  10  16
ENDBRANCH   3   7
BRANCH   4  19
HETATM   19  O2  UNL     1      23.908  -0.634  54.355  1.00  0.00    -0.355 OA
HETATM   20  C16 UNL     1      23.063  -1.291  55.278  1.00  0.00     0.210 C 
ENDBRANCH   4  19
BRANCH   1  21
HETATM   21  N1  UNL     1      22.070   3.173  50.689  1.00  0.00    -0.322 N 
HETATM   22  C3  UNL     1      22.045   2.782  49.320  1.00  0.00     0.244 C 
HETATM   23  O1  UNL     1      22.347   1.573  49.175  1.00  0.00    -0.268 OA
HETATM   24  H4  UNL     1      21.846   4.143  50.996  1.00  0.00     0.169 HD
BRANCH  22  25
HETATM   25  C2  UNL     1      21.700   3.723  48.268  1.00  0.00     0.064 C 
HETATM   26  C1  UNL     1      22.585   4.554  47.740  1.00  0.00     0.017 C 
ENDBRANCH  22  25
ENDBRANCH   1  21
BRANCH   6  27
HETATM   27  N5  UNL     1      20.171   1.429  51.972  1.00  0.00    -0.382 N 
HETATM   28  C19 UNL     1      19.293   2.587  51.973  1.00  0.00     0.150 C 
BRANCH  27  29
HETATM   29  C20 UNL     1      19.513   0.164  51.608  1.00  0.00     0.152 C 
BRANCH  29  30
HETATM   30  C21 UNL     1      18.049   0.411  51.305  1.00  0.00     0.291 C 
BRANCH  30  31
HETATM   31  N6  UNL     1      17.177  -0.600  51.836  1.00  0.00     0.081 N 
HETATM   32  C22 UNL     1      17.794  -1.253  52.980  1.00  0.00     0.309 C 
HETATM   33  C23 UNL     1      15.992   0.068  52.355  1.00  0.00     0.309 C 
ENDBRANCH  30  31
ENDBRANCH  29  30
ENDBRANCH  27  29
ENDBRANCH   6  27
TORSDOF 9
ENDMDL
MODEL 7
REMARK VINA RESULT:      -6.7      2.209      8.604
REMARK  9 active torsions:
REMARK  status: ('A' for Active; 'I' for Inactive)
REMARK    1  A    between atoms: C2_2  and  C3_3 
REMARK       I    between atoms: C3_3  and  N1_5 
REMARK    2  A    between atoms: N1_5  and  C4_6 
REMARK    3  A    between atoms: C6_8  and  C7_9 
REMARK    4  A    between atoms: C8_12  and  C9_13 
REMARK    5  A    between atoms: C15_20  and  O2_21 
REMARK    6  A    between atoms: C18_24  and  N5_25 
REMARK    7  A    between atoms: N5_25  and  C20_27 
REMARK    8  A    between atoms: C20_27  and  C21_28 
REMARK    9  A    between atoms: C21_28  and  N6_29 
ROOT
HETATM    1  C4  UNL     1      22.792   2.262  51.203  1.00  0.00     0.062 A 
HETATM    2  C5  UNL     1      24.114   2.138  51.623  1.00  0.00     0.050 A 
HETATM    3  C6  UNL     1      24.487   1.166  52.529  1.00  0.00     0.049 A 
HETATM    4  C15 UNL     1      23.569   0.280  53.053  1.00  0.00     0.084 A 
HETATM    5  C17 UNL     1      22.239   0.393  52.639  1.00  0.00     0.069 A 
HETATM    6  C18 UNL     1      21.884   1.372  51.733  1.00  0.00     0.059 A 
ENDROOT
BRANCH   3   7
HETATM    7  C7  UNL     1      25.881   1.081  52.947  1.00  0.00     0.181 C 
HETATM    8  N2  UNL     1      26.093   0.166  53.830  1.00  0.00    -0.158 NA
HETATM    9  N3  UNL     1      27.177  -0.332  54.548  1.00  0.00    -0.303 N 
HETATM   10  C8  UNL     1      28.615  -0.265  54.562  1.00  0.00     0.128 C 
HETATM   11  H6  UNL     1      26.785  -0.950  55.313  1.00  0.00     0.183 HD
HETATM   12  C12 UNL     1      29.024   1.155  54.469  1.00  0.00     0.001 C 
HETATM   13  C13 UNL     1      28.812   2.260  53.777  1.00  0.00     0.017 C 
HETATM   14  C14 UNL     1      27.910   2.499  52.631  1.00  0.00     0.119 C 
HETATM   15  N4  UNL     1      26.734   2.019  52.307  1.00  0.00    -0.239 NA
BRANCH  10  16
HETATM   16  C9  UNL     1      29.246  -1.010  53.380  1.00  0.00     0.014 A 
HETATM   17  C10 UNL     1      30.085  -2.223  53.786  1.00  0.00     0.007 A 
HETATM   18  C11 UNL     1      28.778  -2.393  53.085  1.00  0.00     0.007 A 
ENDBRANCH  10  16
ENDBRANCH   3   7
BRANCH   4  19
HETATM   19  O2  UNL     1      24.045  -0.660  53.955  1.00  0.00    -0.355 OA
HETATM   20  C16 UNL     1      23.173  -1.157  54.949  1.00  0.00     0.210 C 
ENDBRANCH   4  19
BRANCH   1  21
HETATM   21  N1  UNL     1      22.529   3.278  50.280  1.00  0.00    -0.322 N 
HETATM   22  C3  UNL     1      22.232   4.567  50.807  1.00  0.00     0.244 C 
HETATM   23  O1  UNL     1      22.258   4.575  52.061  1.00  0.00    -0.268 OA
HETATM   24  H4  UNL     1      22.552   3.087  49.255  1.00  0.00     0.169 HD
BRANCH  22  25
HETATM   25  C2  UNL     1      21.945   5.696  49.937  1.00  0.00     0.064 C 
HETATM   26  C1  UNL     1      22.022   6.950  50.353  1.00  0.00     0.017 C 
ENDBRANCH  22  25
ENDBRANCH   1  21
BRANCH   6  27
HETATM   27  N5  UNL     1      20.531   1.482  51.317  1.00  0.00    -0.382 N 
HETATM   28  C19 UNL     1      19.860   0.946  50.145  1.00  0.00     0.150 C 
BRANCH  27  29
HETATM   29  C20 UNL     1      19.663   2.266  52.212  1.00  0.00     0.152 C 
BRANCH  29  30
HETATM   30  C21 UNL     1      18.350   2.572  51.521  1.00  0.00     0.291 C 
BRANCH  30  31
HETATM   31  N6  UNL     1      18.029   3.972  51.499  1.00  0.00     0.081 N 
HETATM   32  C22 UNL     1      18.325   4.541  50.193  1.00  0.00     0.309 C 
HETATM   33  C23 UNL     1      16.588   4.097  51.665  1.00  0.00     0.309 C 
ENDBRANCH  30  31
ENDBRANCH  29  30
ENDBRANCH  27  29
ENDBRANCH   6  27
TORSDOF 9
ENDMDL
MODEL 8
REMARK VINA RESULT:      -6.6      2.376      8.863
REMARK  9 active torsions:
REMARK  status: ('A' for Active; 'I' for Inactive)
REMARK    1  A    between atoms: C2_2  and  C3_3 
REMARK       I    between atoms: C3_3  and  N1_5 
REMARK    2  A    between atoms: N1_5  and  C4_6 
REMARK    3  A    between atoms: C6_8  and  C7_9 
REMARK    4  A    between atoms: C8_12  and  C9_13 
REMARK    5  A    between atoms: C15_20  and  O2_21 
REMARK    6  A    between atoms: C18_24  and  N5_25 
REMARK    7  A    between atoms: N5_25  and  C20_27 
REMARK    8  A    between atoms: C20_27  and  C21_28 
REMARK    9  A    between atoms: C21_28  and  N6_29 
ROOT
HETATM    1  C4  UNL     1      24.359   6.098  50.058  1.00  0.00     0.062 A 
HETATM    2  C5  UNL     1      24.778   5.014  50.827  1.00  0.00     0.050 A 
HETATM    3  C6  UNL     1      24.322   3.738  50.569  1.00  0.00     0.049 A 
HETATM    4  C15 UNL     1      23.435   3.483  49.543  1.00  0.00     0.084 A 
HETATM    5  C17 UNL     1      23.007   4.562  48.765  1.00  0.00     0.069 A 
HETATM    6  C18 UNL     1      23.474   5.832  49.037  1.00  0.00     0.059 A 
ENDROOT
BRANCH   3   7
HETATM    7  C7  UNL     1      24.781   2.636  51.406  1.00  0.00     0.181 C 
HETATM    8  N2  UNL     1      25.933   2.177  51.057  1.00  0.00    -0.158 NA
HETATM    9  N3  UNL     1      26.809   1.180  51.479  1.00  0.00    -0.303 N 
HETATM   10  C8  UNL     1      27.017   0.296  52.596  1.00  0.00     0.128 C 
HETATM   11  H6  UNL     1      27.537   1.064  50.720  1.00  0.00     0.183 HD
HETATM   12  C12 UNL     1      25.732  -0.362  52.925  1.00  0.00     0.001 C 
HETATM   13  C13 UNL     1      24.455  -0.108  53.149  1.00  0.00     0.017 C 
HETATM   14  C14 UNL     1      23.734   1.182  53.144  1.00  0.00     0.119 C 
HETATM   15  N4  UNL     1      23.873   2.279  52.439  1.00  0.00    -0.239 NA
BRANCH  10  16
HETATM   16  C9  UNL     1      27.494   1.039  53.849  1.00  0.00     0.014 A 
HETATM   17  C10 UNL     1      28.925   0.697  54.268  1.00  0.00     0.007 A 
HETATM   18  C11 UNL     1      28.591   2.037  53.705  1.00  0.00     0.007 A 
ENDBRANCH  10  16
ENDBRANCH   3   7
BRANCH   4  19
HETATM   19  O2  UNL     1      23.038   2.166  49.366  1.00  0.00    -0.355 OA
HETATM   20  C16 UNL     1      22.131   1.859  48.327  1.00  0.00     0.210 C 
ENDBRANCH   4  19
BRANCH   1  21
HETATM   21  N1  UNL     1      24.889   7.344  50.405  1.00  0.00    -0.322 N 
HETATM   22  C3  UNL     1      26.183   7.658  49.900  1.00  0.00     0.244 C 
HETATM   23  O1  UNL     1      26.648   6.727  49.200  1.00  0.00    -0.268 OA
HETATM   24  H4  UNL     1      24.351   8.003  51.008  1.00  0.00     0.169 HD
BRANCH  22  25
HETATM   25  C2  UNL     1      26.827   8.926  50.199  1.00  0.00     0.064 C 
HETATM   26  C1  UNL     1      28.035   9.231  49.752  1.00  0.00     0.017 C 
ENDBRANCH  22  25
ENDBRANCH   1  21
BRANCH   6  27
HETATM   27  N5  UNL     1      23.034   6.924  48.243  1.00  0.00    -0.382 N 
HETATM   28  C19 UNL     1      23.641   7.543  47.077  1.00  0.00     0.150 C 
BRANCH  27  29
HETATM   29  C20 UNL     1      21.761   7.531  48.664  1.00  0.00     0.152 C 
BRANCH  29  30
HETATM   30  C21 UNL     1      21.993   8.957  49.120  1.00  0.00     0.291 C 
BRANCH  30  31
HETATM   31  N6  UNL     1      20.836   9.797  48.979  1.00  0.00     0.081 N 
HETATM   32  C22 UNL     1      20.415   9.852  47.588  1.00  0.00     0.309 C 
HETATM   33  C23 UNL     1      19.740   9.163  49.698  1.00  0.00     0.309 C 
ENDBRANCH  30  31
ENDBRANCH  29  30
ENDBRANCH  27  29
ENDBRANCH   6  27
TORSDOF 9
ENDMDL
MODEL 9
REMARK VINA RESULT:      -6.6      2.392      8.597
REMARK  9 active torsions:
REMARK  status: ('A' for Active; 'I' for Inactive)
REMARK    1  A    between atoms: C2_2  and  C3_3 
REMARK       I    between atoms: C3_3  and  N1_5 
REMARK    2  A    between atoms: N1_5  and  C4_6 
REMARK    3  A    between atoms: C6_8  and  C7_9 
REMARK    4  A    between atoms: C8_12  and  C9_13 
REMARK    5  A    between atoms: C15_20  and  O2_21 
REMARK    6  A    between atoms: C18_24  and  N5_25 
REMARK    7  A    between atoms: N5_25  and  C20_27 
REMARK    8  A    between atoms: C20_27  and  C21_28 
REMARK    9  A    between atoms: C21_28  and  N6_29 
ROOT
HETATM    1  C4  UNL     1      24.079   5.709  50.326  1.00  0.00     0.062 A 
HETATM    2  C5  UNL     1      24.575   4.629  51.054  1.00  0.00     0.050 A 
HETATM    3  C6  UNL     1      24.106   3.349  50.841  1.00  0.00     0.049 A 
HETATM    4  C15 UNL     1      23.131   3.086  49.902  1.00  0.00     0.084 A 
HETATM    5  C17 UNL     1      22.625   4.160  49.164  1.00  0.00     0.069 A 
HETATM    6  C18 UNL     1      23.106   5.434  49.391  1.00  0.00     0.059 A 
ENDROOT
BRANCH   3   7
HETATM    7  C7  UNL     1      24.648   2.253  51.633  1.00  0.00     0.181 C 
HETATM    8  N2  UNL     1      25.815   1.869  51.243  1.00  0.00    -0.158 NA
HETATM    9  N3  UNL     1      26.756   0.912  51.613  1.00  0.00    -0.303 N 
HETATM   10  C8  UNL     1      27.043   0.010  52.697  1.00  0.00     0.128 C 
HETATM   11  H6  UNL     1      27.468   0.858  50.832  1.00  0.00     0.183 HD
HETATM   12  C12 UNL     1      25.806  -0.728  53.040  1.00  0.00     0.001 C 
HETATM   13  C13 UNL     1      24.523  -0.552  53.304  1.00  0.00     0.017 C 
HETATM   14  C14 UNL     1      23.732   0.695  53.355  1.00  0.00     0.119 C 
HETATM   15  N4  UNL     1      23.790   1.816  52.679  1.00  0.00    -0.239 NA
BRANCH  10  16
HETATM   16  C9  UNL     1      27.512   0.744  53.959  1.00  0.00     0.014 A 
HETATM   17  C10 UNL     1      28.991   0.534  54.287  1.00  0.00     0.007 A 
HETATM   18  C11 UNL     1      28.491   1.856  53.807  1.00  0.00     0.007 A 
ENDBRANCH  10  16
ENDBRANCH   3   7
BRANCH   4  19
HETATM   19  O2  UNL     1      22.730   1.766  49.763  1.00  0.00    -0.355 OA
HETATM   20  C16 UNL     1      21.804   1.436  48.748  1.00  0.00     0.210 C 
ENDBRANCH   4  19
BRANCH   1  21
HETATM   21  N1  UNL     1      24.630   6.959  50.622  1.00  0.00    -0.322 N 
HETATM   22  C3  UNL     1      25.867   7.284  49.995  1.00  0.00     0.244 C 
HETATM   23  O1  UNL     1      26.270   6.357  49.253  1.00  0.00    -0.268 OA
HETATM   24  H4  UNL     1      24.146   7.613  51.274  1.00  0.00     0.169 HD
BRANCH  22  25
HETATM   25  C2  UNL     1      26.526   8.557  50.232  1.00  0.00     0.064 C 
HETATM   26  C1  UNL     1      27.625   8.917  49.589  1.00  0.00     0.017 C 
ENDBRANCH  22  25
ENDBRANCH   1  21
BRANCH   6  27
HETATM   27  N5  UNL     1      22.588   6.522  48.639  1.00  0.00    -0.382 N 
HETATM   28  C19 UNL     1      21.514   7.451  48.947  1.00  0.00     0.150 C 
BRANCH  27  29
HETATM   29  C20 UNL     1      23.237   6.749  47.337  1.00  0.00     0.152 C 
BRANCH  29  30
HETATM   30  C21 UNL     1      22.805   8.086  46.771  1.00  0.00     0.291 C 
BRANCH  30  31
HETATM   31  N6  UNL     1      23.900   8.986  46.535  1.00  0.00     0.081 N 
HETATM   32  C22 UNL     1      24.111   9.843  47.691  1.00  0.00     0.309 C 
HETATM   33  C23 UNL     1      25.110   8.186  46.412  1.00  0.00     0.309 C 
ENDBRANCH  30  31
ENDBRANCH  29  30
ENDBRANCH  27  29
ENDBRANCH   6  27
TORSDOF 9
ENDMDL
