MODEL 1
REMARK VINA RESULT:      -8.1      0.000      0.000
REMARK  2 active torsions:
REMARK  status: ('A' for Active; 'I' for Inactive)
REMARK    1  A    between atoms: C4_4  and  N1_5 
REMARK       I    between atoms: N1_5  and  C5_6 
REMARK       I    between atoms: C5_6  and  N2_8 
REMARK    2  A    between atoms: N2_8  and  C6_9 
ROOT
HETATM    1  C1  UNL     1      18.868  -0.502  52.825  1.00  0.00     0.040 C 
HETATM    2  C2  UNL     1      20.110  -0.205  53.533  1.00  0.00    -0.086 C 
HETATM    3  C3  UNL     1      21.264  -0.179  52.602  1.00  0.00     0.100 A 
HETATM    4  C4  UNL     1      22.781  -0.097  52.508  1.00  0.00     0.094 A 
HETATM    5  C9  UNL     1      22.040  -0.053  53.529  1.00  0.00     0.077 A 
HETATM    6  C10 UNL     1      21.052   0.106  54.732  1.00  0.00     0.049 C 
HETATM    7  C11 UNL     1      21.223   1.387  52.860  1.00  0.00     0.319 A 
HETATM    8  O2  UNL     1      20.277   2.427  53.063  1.00  0.00    -0.192 OA
HETATM    9  N4  UNL     1      21.621   1.837  51.497  1.00  0.00     0.135 N 
HETATM   10  C12 UNL     1      21.938   2.050  50.113  1.00  0.00     0.277 C 
HETATM   11  C13 UNL     1      20.652   1.601  49.365  1.00  0.00     0.033 C 
HETATM   12  C14 UNL     1      20.022   0.592  50.397  1.00  0.00     0.039 C 
HETATM   13  C15 UNL     1      21.227   0.321  51.135  1.00  0.00     0.246 C 
ENDROOT
BRANCH   4  14
HETATM   14  N1  UNL     1      24.081  -0.189  53.287  1.00  0.00    -0.329 N 
HETATM   15  C5  UNL     1      25.471  -0.007  53.407  1.00  0.00     0.322 C 
HETATM   16  O1  UNL     1      25.997   0.488  52.347  1.00  0.00    -0.247 OA
HETATM   17  N2  UNL     1      26.180  -0.331  54.547  1.00  0.00    -0.293 N 
HETATM   18  H5  UNL     1      25.606  -0.712  55.300  1.00  0.00     0.172 HD
HETATM   19  H4  UNL     1      23.668  -0.565  54.205  1.00  0.00     0.165 HD
BRANCH  17  20
HETATM   20  C6  UNL     1      27.549  -0.035  54.354  1.00  0.00     0.132 A 
HETATM   21  C7  UNL     1      28.688  -0.479  53.918  1.00  0.00     0.070 A 
HETATM   22  C8  UNL     1      29.256   0.790  54.293  1.00  0.00     0.122 A 
HETATM   23  N3  UNL     1      28.101   1.218  54.726  1.00  0.00    -0.243 NA
ENDBRANCH  17  20
ENDBRANCH   4  14
TORSDOF 2
ENDMDL
MODEL 2
REMARK VINA RESULT:      -7.8      3.937      6.949
REMARK  2 active torsions:
REMARK  status: ('A' for Active; 'I' for Inactive)
REMARK    1  A    between atoms: C4_4  and  N1_5 
REMARK       I    between atoms: N1_5  and  C5_6 
REMARK       I    between atoms: C5_6  and  N2_8 
REMARK    2  A    between atoms: N2_8  and  C6_9 
ROOT
HETATM    1  C1  UNL     1      28.473  -0.490  53.493  1.00  0.00     0.040 C 
HETATM    2  C2  UNL     1      28.261   0.931  53.231  1.00  0.00    -0.086 C 
HETATM    3  C3  UNL     1      27.075   1.146  52.368  1.00  0.00     0.100 A 
HETATM    4  C4  UNL     1      26.291   2.179  51.571  1.00  0.00     0.094 A 
HETATM    5  C9  UNL     1      27.319   2.334  52.287  1.00  0.00     0.077 A 
HETATM    6  C10 UNL     1      28.522   2.465  53.278  1.00  0.00     0.049 C 
HETATM    7  C11 UNL     1      26.417   1.712  53.697  1.00  0.00     0.319 A 
HETATM    8  O2  UNL     1      26.410   1.459  55.095  1.00  0.00    -0.192 OA
HETATM    9  N4  UNL     1      25.027   1.226  53.469  1.00  0.00     0.135 N 
HETATM   10  C12 UNL     1      23.788   0.604  53.095  1.00  0.00     0.277 C 
HETATM   11  C13 UNL     1      24.075  -0.915  53.249  1.00  0.00     0.033 C 
HETATM   12  C14 UNL     1      25.640  -0.962  53.074  1.00  0.00     0.039 C 
HETATM   13  C15 UNL     1      25.777   0.298  52.393  1.00  0.00     0.246 C 
ENDROOT
BRANCH   4  14
HETATM   14  N1  UNL     1      26.316   3.581  50.990  1.00  0.00    -0.329 N 
HETATM   15  C5  UNL     1      25.880   4.550  50.068  1.00  0.00     0.322 C 
HETATM   16  O1  UNL     1      25.002   4.095  49.251  1.00  0.00    -0.247 OA
HETATM   17  N2  UNL     1      26.354   5.848  50.054  1.00  0.00    -0.293 N 
HETATM   18  H5  UNL     1      27.048   6.044  50.775  1.00  0.00     0.172 HD
HETATM   19  H4  UNL     1      27.018   4.007  51.682  1.00  0.00     0.165 HD
BRANCH  17  20
HETATM   20  C6  UNL     1      25.726   6.570  49.014  1.00  0.00     0.132 A 
HETATM   21  C7  UNL     1      25.855   7.047  47.813  1.00  0.00     0.070 A 
HETATM   22  C8  UNL     1      24.512   7.552  47.937  1.00  0.00     0.122 A 
HETATM   23  N3  UNL     1      24.403   7.065  49.142  1.00  0.00    -0.243 NA
ENDBRANCH  17  20
ENDBRANCH   4  14
TORSDOF 2
ENDMDL
MODEL 3
REMARK VINA RESULT:      -7.5      1.789      2.513
REMARK  2 active torsions:
REMARK  status: ('A' for Active; 'I' for Inactive)
REMARK    1  A    between atoms: C4_4  and  N1_5 
REMARK       I    between atoms: N1_5  and  C5_6 
REMARK       I    between atoms: C5_6  and  N2_8 
REMARK    2  A    between atoms: N2_8  and  C6_9 
ROOT
HETATM    1  C1  UNL     1      20.586   1.001  49.899  1.00  0.00     0.040 C 
HETATM    2  C2  UNL     1      21.489   0.871  51.039  1.00  0.00    -0.086 C 
HETATM    3  C3  UNL     1      22.450   1.999  51.093  1.00  0.00     0.100 A 
HETATM    4  C4  UNL     1      23.696   2.536  51.784  1.00  0.00     0.094 A 
HETATM    5  C9  UNL     1      23.048   1.477  52.014  1.00  0.00     0.077 A 
HETATM    6  C10 UNL     1      22.132   0.244  52.311  1.00  0.00     0.049 C 
HETATM    7  C11 UNL     1      21.591   2.454  52.348  1.00  0.00     0.319 A 
HETATM    8  O2  UNL     1      20.240   2.473  52.786  1.00  0.00    -0.192 OA
HETATM    9  N4  UNL     1      21.684   3.927  52.146  1.00  0.00     0.135 N 
HETATM   10  C12 UNL     1      21.833   5.291  51.726  1.00  0.00     0.277 C 
HETATM   11  C13 UNL     1      20.973   5.376  50.434  1.00  0.00     0.033 C 
HETATM   12  C14 UNL     1      20.976   3.876  49.953  1.00  0.00     0.039 C 
HETATM   13  C15 UNL     1      22.146   3.462  50.679  1.00  0.00     0.246 C 
ENDROOT
BRANCH   4  14
HETATM   14  N1  UNL     1      24.853   2.191  52.704  1.00  0.00    -0.329 N 
HETATM   15  C5  UNL     1      26.082   1.560  52.968  1.00  0.00     0.322 C 
HETATM   16  O1  UNL     1      26.532   0.912  51.958  1.00  0.00    -0.247 OA
HETATM   17  N2  UNL     1      26.724   1.638  54.189  1.00  0.00    -0.293 N 
HETATM   18  H5  UNL     1      26.230   2.198  54.884  1.00  0.00     0.172 HD
HETATM   19  H4  UNL     1      24.527   2.757  53.557  1.00  0.00     0.165 HD
BRANCH  17  20
HETATM   20  C6  UNL     1      27.929   0.900  54.138  1.00  0.00     0.132 A 
HETATM   21  C7  UNL     1      29.197   0.940  53.863  1.00  0.00     0.070 A 
HETATM   22  C8  UNL     1      29.257  -0.451  54.231  1.00  0.00     0.122 A 
HETATM   23  N3  UNL     1      27.981  -0.470  54.502  1.00  0.00    -0.243 NA
ENDBRANCH  17  20
ENDBRANCH   4  14
TORSDOF 2
ENDMDL
MODEL 4
REMARK VINA RESULT:      -7.5      2.651      3.825
REMARK  2 active torsions:
REMARK  status: ('A' for Active; 'I' for Inactive)
REMARK    1  A    between atoms: C4_4  and  N1_5 
REMARK       I    between atoms: N1_5  and  C5_6 
REMARK       I    between atoms: C5_6  and  N2_8 
REMARK    2  A    between atoms: N2_8  and  C6_9 
ROOT
HETATM    1  C1  UNL     1      21.630   1.794  48.727  1.00  0.00     0.040 C 
HETATM    2  C2  UNL     1      22.451   1.852  49.933  1.00  0.00    -0.086 C 
HETATM    3  C3  UNL     1      23.625   2.738  49.742  1.00  0.00     0.100 A 
HETATM    4  C4  UNL     1      24.933   3.215  50.356  1.00  0.00     0.094 A 
HETATM    5  C9  UNL     1      24.072   2.420  50.826  1.00  0.00     0.077 A 
HETATM    6  C10 UNL     1      22.910   1.535  51.387  1.00  0.00     0.049 C 
HETATM    7  C11 UNL     1      22.841   3.710  50.722  1.00  0.00     0.319 A 
HETATM    8  O2  UNL     1      21.511   4.119  51.008  1.00  0.00    -0.192 OA
HETATM    9  N4  UNL     1      23.246   5.004  50.106  1.00  0.00     0.135 N 
HETATM   10  C12 UNL     1      23.689   6.120  49.318  1.00  0.00     0.277 C 
HETATM   11  C13 UNL     1      22.905   5.966  47.985  1.00  0.00     0.033 C 
HETATM   12  C14 UNL     1      22.609   4.419  47.969  1.00  0.00     0.039 C 
HETATM   13  C15 UNL     1      23.645   4.033  48.889  1.00  0.00     0.246 C 
ENDROOT
BRANCH   4  14
HETATM   14  N1  UNL     1      25.964   2.957  51.440  1.00  0.00    -0.329 N 
HETATM   15  C5  UNL     1      26.789   2.096  52.187  1.00  0.00     0.322 C 
HETATM   16  O1  UNL     1      26.668   0.869  51.838  1.00  0.00    -0.247 OA
HETATM   17  N2  UNL     1      27.633   2.539  53.187  1.00  0.00    -0.293 N 
HETATM   18  H5  UNL     1      27.609   3.548  53.335  1.00  0.00     0.172 HD
HETATM   19  H4  UNL     1      26.121   3.979  51.730  1.00  0.00     0.165 HD
BRANCH  17  20
HETATM   20  C6  UNL     1      28.322   1.439  53.747  1.00  0.00     0.132 A 
HETATM   21  C7  UNL     1      29.390   0.703  53.689  1.00  0.00     0.070 A 
HETATM   22  C8  UNL     1      28.857  -0.050  54.793  1.00  0.00     0.122 A 
HETATM   23  N3  UNL     1      27.791   0.701  54.835  1.00  0.00    -0.243 NA
ENDBRANCH  17  20
ENDBRANCH   4  14
TORSDOF 2
ENDMDL
MODEL 5
REMARK VINA RESULT:      -7.4      3.286      6.840
REMARK  2 active torsions:
REMARK  status: ('A' for Active; 'I' for Inactive)
REMARK    1  A    between atoms: C4_4  and  N1_5 
REMARK       I    between atoms: N1_5  and  C5_6 
REMARK       I    between atoms: C5_6  and  N2_8 
REMARK    2  A    between atoms: N2_8  and  C6_9 
ROOT
HETATM    1  C1  UNL     1      25.095  -1.042  54.113  1.00  0.00     0.040 C 
HETATM    2  C2  UNL     1      24.561   0.046  53.298  1.00  0.00    -0.086 C 
HETATM    3  C3  UNL     1      25.155   1.348  53.685  1.00  0.00     0.100 A 
HETATM    4  C4  UNL     1      25.081   2.855  53.483  1.00  0.00     0.094 A 
HETATM    5  C9  UNL     1      24.405   1.941  52.934  1.00  0.00     0.077 A 
HETATM    6  C10 UNL     1      23.689   0.749  52.218  1.00  0.00     0.049 C 
HETATM    7  C11 UNL     1      25.911   1.227  52.295  1.00  0.00     0.319 A 
HETATM    8  O2  UNL     1      26.508   0.237  51.469  1.00  0.00    -0.192 OA
HETATM    9  N4  UNL     1      27.200   1.854  52.699  1.00  0.00     0.135 N 
HETATM   10  C12 UNL     1      28.373   2.411  53.313  1.00  0.00     0.277 C 
HETATM   11  C13 UNL     1      28.852   1.291  54.278  1.00  0.00     0.033 C 
HETATM   12  C14 UNL     1      27.512   0.507  54.544  1.00  0.00     0.039 C 
HETATM   13  C15 UNL     1      26.613   1.565  54.166  1.00  0.00     0.246 C 
ENDROOT
BRANCH   4  14
HETATM   14  N1  UNL     1      24.246   3.995  52.927  1.00  0.00    -0.329 N 
HETATM   15  C5  UNL     1      23.914   4.907  51.908  1.00  0.00     0.322 C 
HETATM   16  O1  UNL     1      24.656   4.780  50.871  1.00  0.00    -0.247 OA
HETATM   17  N2  UNL     1      22.895   5.832  52.026  1.00  0.00    -0.293 N 
HETATM   18  H5  UNL     1      22.401   5.795  52.918  1.00  0.00     0.172 HD
HETATM   19  H4  UNL     1      23.580   4.100  53.762  1.00  0.00     0.165 HD
BRANCH  17  20
HETATM   20  C6  UNL     1      22.813   6.599  50.842  1.00  0.00     0.132 A 
HETATM   21  C7  UNL     1      22.319   6.666  49.643  1.00  0.00     0.070 A 
HETATM   22  C8  UNL     1      22.989   7.933  49.505  1.00  0.00     0.122 A 
HETATM   23  N3  UNL     1      23.475   7.846  50.712  1.00  0.00    -0.243 NA
ENDBRANCH  17  20
ENDBRANCH   4  14
TORSDOF 2
ENDMDL
MODEL 6
REMARK VINA RESULT:      -7.1      2.374      6.815
REMARK  2 active torsions:
REMARK  status: ('A' for Active; 'I' for Inactive)
REMARK    1  A    between atoms: C4_4  and  N1_5 
REMARK       I    between atoms: N1_5  and  C5_6 
REMARK       I    between atoms: C5_6  and  N2_8 
REMARK    2  A    between atoms: N2_8  and  C6_9 
ROOT
HETATM    1  C1  UNL     1      26.391   2.664  50.947  1.00  0.00     0.040 C 
HETATM    2  C2  UNL     1      25.142   2.506  51.687  1.00  0.00    -0.086 C 
HETATM    3  C3  UNL     1      24.978   1.114  52.171  1.00  0.00     0.100 A 
HETATM    4  C4  UNL     1      24.018   0.134  52.831  1.00  0.00     0.094 A 
HETATM    5  C9  UNL     1      23.857   1.359  52.570  1.00  0.00     0.077 A 
HETATM    6  C10 UNL     1      23.775   2.900  52.316  1.00  0.00     0.049 C 
HETATM    7  C11 UNL     1      25.264   1.752  53.596  1.00  0.00     0.319 A 
HETATM    8  O2  UNL     1      26.066   2.764  54.188  1.00  0.00    -0.192 OA
HETATM    9  N4  UNL     1      26.028   0.618  54.187  1.00  0.00     0.135 N 
HETATM   10  C12 UNL     1      26.796  -0.546  54.529  1.00  0.00     0.277 C 
HETATM   11  C13 UNL     1      28.060  -0.432  53.633  1.00  0.00     0.033 C 
HETATM   12  C14 UNL     1      27.525   0.449  52.442  1.00  0.00     0.039 C 
HETATM   13  C15 UNL     1      26.126   0.183  52.643  1.00  0.00     0.246 C 
ENDROOT
BRANCH   4  14
HETATM   14  N1  UNL     1      22.575  -0.111  53.233  1.00  0.00    -0.329 N 
HETATM   15  C5  UNL     1      21.218  -0.315  52.922  1.00  0.00     0.322 C 
HETATM   16  O1  UNL     1      20.992  -0.296  51.661  1.00  0.00    -0.247 OA
HETATM   17  N2  UNL     1      20.245  -0.513  53.883  1.00  0.00    -0.293 N 
HETATM   18  H5  UNL     1      20.597  -0.502  54.840  1.00  0.00     0.172 HD
HETATM   19  H4  UNL     1      22.735  -0.175  54.293  1.00  0.00     0.165 HD
BRANCH  17  20
HETATM   20  C6  UNL     1      18.989  -0.684  53.256  1.00  0.00     0.132 A 
HETATM   21  C7  UNL     1      18.137  -0.185  52.413  1.00  0.00     0.070 A 
HETATM   22  C8  UNL     1      17.297  -1.322  52.684  1.00  0.00     0.122 A 
HETATM   23  N3  UNL     1      18.167  -1.808  53.526  1.00  0.00    -0.243 NA
ENDBRANCH  17  20
ENDBRANCH   4  14
TORSDOF 2
ENDMDL
MODEL 7
REMARK VINA RESULT:      -7.0      5.946      7.210
REMARK  2 active torsions:
REMARK  status: ('A' for Active; 'I' for Inactive)
REMARK    1  A    between atoms: C4_4  and  N1_5 
REMARK       I    between atoms: N1_5  and  C5_6 
REMARK       I    between atoms: C5_6  and  N2_8 
REMARK    2  A    between atoms: N2_8  and  C6_9 
ROOT
HETATM    1  C1  UNL     1      23.181   2.933  49.181  1.00  0.00     0.040 C 
HETATM    2  C2  UNL     1      24.546   3.348  49.494  1.00  0.00    -0.086 C 
HETATM    3  C3  UNL     1      24.757   4.782  49.181  1.00  0.00     0.100 A 
HETATM    4  C4  UNL     1      25.795   5.889  49.072  1.00  0.00     0.094 A 
HETATM    5  C9  UNL     1      25.942   4.687  49.429  1.00  0.00     0.077 A 
HETATM    6  C10 UNL     1      26.023   3.220  49.966  1.00  0.00     0.049 C 
HETATM    7  C11 UNL     1      24.780   4.952  50.758  1.00  0.00     0.319 A 
HETATM    8  O2  UNL     1      24.145   4.423  51.915  1.00  0.00    -0.192 OA
HETATM    9  N4  UNL     1      24.111   6.281  50.839  1.00  0.00     0.135 N 
HETATM   10  C12 UNL     1      23.388   7.512  50.694  1.00  0.00     0.277 C 
HETATM   11  C13 UNL     1      21.976   7.060  50.229  1.00  0.00     0.033 C 
HETATM   12  C14 UNL     1      22.294   5.671  49.558  1.00  0.00     0.039 C 
HETATM   13  C15 UNL     1      23.695   5.902  49.333  1.00  0.00     0.246 C 
ENDROOT
BRANCH   4  14
HETATM   14  N1  UNL     1      27.280   6.198  49.019  1.00  0.00    -0.329 N 
HETATM   15  C5  UNL     1      28.606   5.866  48.683  1.00  0.00     0.322 C 
HETATM   16  O1  UNL     1      28.701   4.714  48.128  1.00  0.00    -0.247 OA
HETATM   17  N2  UNL     1      29.679   6.700  48.929  1.00  0.00    -0.293 N 
HETATM   18  H5  UNL     1      29.427   7.582  49.375  1.00  0.00     0.172 HD
HETATM   19  H4  UNL     1      27.233   7.184  49.443  1.00  0.00     0.165 HD
BRANCH  17  20
HETATM   20  C6  UNL     1      30.870   6.085  48.480  1.00  0.00     0.132 A 
HETATM   21  C7  UNL     1      31.650   5.877  47.463  1.00  0.00     0.070 A 
HETATM   22  C8  UNL     1      32.496   5.117  48.345  1.00  0.00     0.122 A 
HETATM   23  N3  UNL     1      31.699   5.337  49.355  1.00  0.00    -0.243 NA
ENDBRANCH  17  20
ENDBRANCH   4  14
TORSDOF 2
ENDMDL
MODEL 8
REMARK VINA RESULT:      -6.8      5.017      6.519
REMARK  2 active torsions:
REMARK  status: ('A' for Active; 'I' for Inactive)
REMARK    1  A    between atoms: C4_4  and  N1_5 
REMARK       I    between atoms: N1_5  and  C5_6 
REMARK       I    between atoms: C5_6  and  N2_8 
REMARK    2  A    between atoms: N2_8  and  C6_9 
ROOT
HETATM    1  C1  UNL     1      20.793   2.087  52.704  1.00  0.00     0.040 C 
HETATM    2  C2  UNL     1      21.278   3.231  51.937  1.00  0.00    -0.086 C 
HETATM    3  C3  UNL     1      22.671   3.576  52.312  1.00  0.00     0.100 A 
HETATM    4  C4  UNL     1      23.786   4.597  52.139  1.00  0.00     0.094 A 
HETATM    5  C9  UNL     1      22.639   4.570  51.613  1.00  0.00     0.077 A 
HETATM    6  C10 UNL     1      21.247   4.406  50.916  1.00  0.00     0.049 C 
HETATM    7  C11 UNL     1      23.025   2.987  50.881  1.00  0.00     0.319 A 
HETATM    8  O2  UNL     1      22.619   1.942  50.008  1.00  0.00    -0.192 OA
HETATM    9  N4  UNL     1      24.335   2.367  51.225  1.00  0.00     0.135 N 
HETATM   10  C12 UNL     1      25.521   1.782  51.784  1.00  0.00     0.277 C 
HETATM   11  C13 UNL     1      24.979   0.653  52.704  1.00  0.00     0.033 C 
HETATM   12  C14 UNL     1      23.530   1.179  53.029  1.00  0.00     0.039 C 
HETATM   13  C15 UNL     1      23.772   2.562  52.718  1.00  0.00     0.246 C 
ENDROOT
BRANCH   4  14
HETATM   14  N1  UNL     1      24.128   5.992  51.647  1.00  0.00    -0.329 N 
HETATM   15  C5  UNL     1      24.860   6.876  50.832  1.00  0.00     0.322 C 
HETATM   16  O1  UNL     1      25.705   6.270  50.082  1.00  0.00    -0.247 OA
HETATM   17  N2  UNL     1      24.677   8.245  50.848  1.00  0.00    -0.293 N 
HETATM   18  H5  UNL     1      23.961   8.561  51.502  1.00  0.00     0.172 HD
HETATM   19  H4  UNL     1      23.403   6.528  52.230  1.00  0.00     0.165 HD
BRANCH  17  20
HETATM   20  C6  UNL     1      25.558   8.851  49.923  1.00  0.00     0.132 A 
HETATM   21  C7  UNL     1      25.772   9.130  48.673  1.00  0.00     0.070 A 
HETATM   22  C8  UNL     1      27.000   9.757  49.087  1.00  0.00     0.122 A 
HETATM   23  N3  UNL     1      26.766   9.468  50.338  1.00  0.00    -0.243 NA
ENDBRANCH  17  20
ENDBRANCH   4  14
TORSDOF 2
ENDMDL
MODEL 9
REMARK VINA RESULT:      -6.8      7.546     10.029
REMARK  2 active torsions:
REMARK  status: ('A' for Active; 'I' for Inactive)
REMARK    1  A    between atoms: C4_4  and  N1_5 
REMARK       I    between atoms: N1_5  and  C5_6 
REMARK       I    between atoms: C5_6  and  N2_8 
REMARK    2  A    between atoms: N2_8  and  C6_9 
ROOT
HETATM    1  C1  UNL     1      28.895   8.436  45.523  1.00  0.00     0.040 C 
HETATM    2  C2  UNL     1      28.104   8.090  46.700  1.00  0.00    -0.086 C 
HETATM    3  C3  UNL     1      28.618   6.860  47.351  1.00  0.00     0.100 A 
HETATM    4  C4  UNL     1      28.347   5.820  48.428  1.00  0.00     0.094 A 
HETATM    5  C9  UNL     1      27.681   6.848  48.125  1.00  0.00     0.077 A 
HETATM    6  C10 UNL     1      26.973   8.197  47.765  1.00  0.00     0.049 C 
HETATM    7  C11 UNL     1      29.107   7.863  48.480  1.00  0.00     0.319 A 
HETATM    8  O2  UNL     1      29.639   9.174  48.609  1.00  0.00    -0.192 OA
HETATM    9  N4  UNL     1      30.375   7.170  48.844  1.00  0.00     0.135 N 
HETATM   10  C12 UNL     1      31.576   6.396  48.980  1.00  0.00     0.277 C 
HETATM   11  C13 UNL     1      32.345   6.669  47.658  1.00  0.00     0.033 C 
HETATM   12  C14 UNL     1      31.170   7.057  46.683  1.00  0.00     0.039 C 
HETATM   13  C15 UNL     1      30.109   6.443  47.435  1.00  0.00     0.246 C 
ENDROOT
BRANCH   4  14
HETATM   14  N1  UNL     1      27.306   5.259  49.379  1.00  0.00    -0.329 N 
HETATM   15  C5  UNL     1      26.503   4.208  49.860  1.00  0.00     0.322 C 
HETATM   16  O1  UNL     1      26.675   3.117  49.210  1.00  0.00    -0.247 OA
HETATM   17  N2  UNL     1      25.628   4.351  50.921  1.00  0.00    -0.293 N 
HETATM   18  H5  UNL     1      25.617   5.286  51.328  1.00  0.00     0.172 HD
HETATM   19  H4  UNL     1      27.167   6.143  49.972  1.00  0.00     0.165 HD
BRANCH  17  20
HETATM   20  C6  UNL     1      24.970   3.123  51.159  1.00  0.00     0.132 A 
HETATM   21  C7  UNL     1      23.942   2.385  50.867  1.00  0.00     0.070 A 
HETATM   22  C8  UNL     1      24.466   1.402  51.778  1.00  0.00     0.122 A 
HETATM   23  N3  UNL     1      25.492   2.158  52.058  1.00  0.00    -0.243 NA
ENDBRANCH  17  20
ENDBRANCH   4  14
TORSDOF 2
ENDMDL
