MODEL 1
REMARK VINA RESULT:      -7.4      0.000      0.000
REMARK  4 active torsions:
REMARK  status: ('A' for Active; 'I' for Inactive)
REMARK    1  A    between atoms: O1_2  and  C2_3 
REMARK    2  A    between atoms: C7_8  and  O2_9 
REMARK    3  A    between atoms: C9_11  and  N1_12 
REMARK    4  A    between atoms: N1_12  and  C11_14 
ROOT
HETATM    1  C2  UNL     1      25.955   0.299  53.163  1.00  0.00     0.103 A 
HETATM    2  C3  UNL     1      24.955  -0.527  53.690  1.00  0.00     0.071 A 
HETATM    3  C4  UNL     1      23.598  -0.232  53.501  1.00  0.00     0.066 A 
HETATM    4  C5  UNL     1      23.321   0.905  52.773  1.00  0.00     0.022 A 
HETATM    5  C6  UNL     1      24.291   1.732  52.245  1.00  0.00     0.055 A 
HETATM    6  C7  UNL     1      25.622   1.426  52.442  1.00  0.00     0.102 A 
HETATM    7  C9  UNL     1      22.041   1.181  52.599  1.00  0.00     0.049 A 
HETATM    8  P1  UNL     1      20.652   0.186  53.245  1.00  0.00    -0.055 P 
HETATM    9  C17 UNL     1      21.460  -1.229  54.133  1.00  0.00     0.186 A 
HETATM   10  N2  UNL     1      22.866  -1.091  54.046  1.00  0.00    -0.284 NA
HETATM   11  H15 UNL     1      19.868   1.029  54.106  1.00  0.00     0.065 HD
ENDROOT
BRANCH   7  12
HETATM   12  N1  UNL     1      21.586   2.294  51.888  1.00  0.00    -0.350 N 
HETATM   13  C10 UNL     1      20.885   3.404  52.508  1.00  0.00     0.156 C 
BRANCH  12  14
HETATM   14  C11 UNL     1      21.799   2.383  50.484  1.00  0.00     0.036 A 
HETATM   15  C12 UNL     1      21.587   1.300  49.651  1.00  0.00     0.033 A 
HETATM   16  C13 UNL     1      21.786   1.359  48.290  1.00  0.00     0.046 A 
HETATM   17  C14 UNL     1      22.214   2.538  47.713  1.00  0.00     0.138 A 
HETATM   18  F1  UNL     1      22.416   2.620  46.379  1.00  0.00    -0.204 F 
HETATM   19  C15 UNL     1      22.429   3.630  48.547  1.00  0.00     0.074 A 
HETATM   20 CL1  UNL     1      22.973   5.105  47.761  1.00  0.00    -0.081 Cl
HETATM   21  C16 UNL     1      22.229   3.572  49.916  1.00  0.00     0.056 A 
ENDBRANCH  12  14
ENDBRANCH   7  12
BRANCH   6  22
HETATM   22  O2  UNL     1      26.590   2.239  51.922  1.00  0.00    -0.353 OA
HETATM   23  C8  UNL     1      26.506   2.969  50.742  1.00  0.00     0.210 C 
ENDBRANCH   6  22
BRANCH   1  24
HETATM   24  O1  UNL     1      27.311   0.046  53.327  1.00  0.00    -0.353 OA
HETATM   25  C1  UNL     1      27.871   0.161  54.627  1.00  0.00     0.210 C 
ENDBRANCH   1  24
TORSDOF 4
ENDMDL
MODEL 2
REMARK VINA RESULT:      -7.1      1.744      2.391
REMARK  4 active torsions:
REMARK  status: ('A' for Active; 'I' for Inactive)
REMARK    1  A    between atoms: O1_2  and  C2_3 
REMARK    2  A    between atoms: C7_8  and  O2_9 
REMARK    3  A    between atoms: C9_11  and  N1_12 
REMARK    4  A    between atoms: N1_12  and  C11_14 
ROOT
HETATM    1  C2  UNL     1      25.856  -0.349  53.714  1.00  0.00     0.103 A 
HETATM    2  C3  UNL     1      24.719  -0.820  54.381  1.00  0.00     0.071 A 
HETATM    3  C4  UNL     1      23.430  -0.514  53.922  1.00  0.00     0.066 A 
HETATM    4  C5  UNL     1      23.361   0.269  52.789  1.00  0.00     0.022 A 
HETATM    5  C6  UNL     1      24.469   0.744  52.117  1.00  0.00     0.055 A 
HETATM    6  C7  UNL     1      25.729   0.432  52.584  1.00  0.00     0.102 A 
HETATM    7  C9  UNL     1      22.146   0.558  52.361  1.00  0.00     0.049 A 
HETATM    8  P1  UNL     1      20.593   0.009  53.152  1.00  0.00    -0.055 P 
HETATM    9  C17 UNL     1      21.138  -1.009  54.604  1.00  0.00     0.186 A 
HETATM   10  N2  UNL     1      22.553  -1.030  54.653  1.00  0.00    -0.284 NA
HETATM   11  H15 UNL     1      19.848   1.181  53.522  1.00  0.00     0.065 HD
ENDROOT
BRANCH   7  12
HETATM   12  N1  UNL     1      21.896   1.339  51.230  1.00  0.00    -0.350 N 
HETATM   13  C10 UNL     1      21.286   0.817  50.020  1.00  0.00     0.156 C 
BRANCH  12  14
HETATM   14  C11 UNL     1      22.241   2.720  51.222  1.00  0.00     0.036 A 
HETATM   15  C12 UNL     1      21.857   3.565  52.247  1.00  0.00     0.033 A 
HETATM   16  C13 UNL     1      22.178   4.904  52.263  1.00  0.00     0.046 A 
HETATM   17  C14 UNL     1      22.910   5.444  51.226  1.00  0.00     0.138 A 
HETATM   18  F1  UNL     1      23.236   6.756  51.220  1.00  0.00    -0.204 F 
HETATM   19  C15 UNL     1      23.298   4.597  50.193  1.00  0.00     0.074 A 
HETATM   20 CL1  UNL     1      24.228   5.336  48.897  1.00  0.00    -0.081 Cl
HETATM   21  C16 UNL     1      22.977   3.250  50.174  1.00  0.00     0.056 A 
ENDBRANCH  12  14
ENDBRANCH   7  12
BRANCH   6  22
HETATM   22  O2  UNL     1      26.832   0.897  51.924  1.00  0.00    -0.353 OA
HETATM   23  C8  UNL     1      27.246   2.222  51.844  1.00  0.00     0.210 C 
ENDBRANCH   6  22
BRANCH   1  24
HETATM   24  O1  UNL     1      27.150  -0.627  54.134  1.00  0.00    -0.353 OA
HETATM   25  C1  UNL     1      27.796   0.296  54.999  1.00  0.00     0.210 C 
ENDBRANCH   1  24
TORSDOF 4
ENDMDL
MODEL 3
REMARK VINA RESULT:      -7.1      3.799      6.170
REMARK  4 active torsions:
REMARK  status: ('A' for Active; 'I' for Inactive)
REMARK    1  A    between atoms: O1_2  and  C2_3 
REMARK    2  A    between atoms: C7_8  and  O2_9 
REMARK    3  A    between atoms: C9_11  and  N1_12 
REMARK    4  A    between atoms: N1_12  and  C11_14 
ROOT
HETATM    1  C2  UNL     1      23.010   2.958  49.137  1.00  0.00     0.103 A 
HETATM    2  C3  UNL     1      22.132   2.069  49.769  1.00  0.00     0.071 A 
HETATM    3  C4  UNL     1      22.498   1.406  50.949  1.00  0.00     0.066 A 
HETATM    4  C5  UNL     1      23.757   1.684  51.435  1.00  0.00     0.022 A 
HETATM    5  C6  UNL     1      24.638   2.556  50.828  1.00  0.00     0.055 A 
HETATM    6  C7  UNL     1      24.260   3.200  49.667  1.00  0.00     0.102 A 
HETATM    7  C9  UNL     1      24.100   1.054  52.544  1.00  0.00     0.049 A 
HETATM    8  P1  UNL     1      23.045  -0.132  53.450  1.00  0.00    -0.055 P 
HETATM    9  C17 UNL     1      21.468  -0.198  52.476  1.00  0.00     0.186 A 
HETATM   10  N2  UNL     1      21.577   0.660  51.354  1.00  0.00    -0.284 NA
HETATM   11  H15 UNL     1      23.739  -1.389  53.501  1.00  0.00     0.065 HD
ENDROOT
BRANCH   7  12
HETATM   12  N1  UNL     1      25.337   1.220  53.170  1.00  0.00    -0.350 N 
HETATM   13  C10 UNL     1      25.694   2.406  53.928  1.00  0.00     0.156 C 
BRANCH  12  14
HETATM   14  C11 UNL     1      26.326   0.200  53.086  1.00  0.00     0.036 A 
HETATM   15  C12 UNL     1      26.010  -1.077  52.659  1.00  0.00     0.033 A 
HETATM   16  C13 UNL     1      26.947  -2.082  52.568  1.00  0.00     0.046 A 
HETATM   17  C14 UNL     1      28.259  -1.826  52.912  1.00  0.00     0.138 A 
HETATM   18  F1  UNL     1      29.195  -2.797  52.831  1.00  0.00    -0.204 F 
HETATM   19  C15 UNL     1      28.580  -0.543  53.342  1.00  0.00     0.074 A 
HETATM   20 CL1  UNL     1      30.264  -0.272  53.768  1.00  0.00    -0.081 Cl
HETATM   21  C16 UNL     1      27.640   0.469  53.434  1.00  0.00     0.056 A 
ENDBRANCH  12  14
ENDBRANCH   7  12
BRANCH   6  22
HETATM   22  O2  UNL     1      25.125   4.067  49.060  1.00  0.00    -0.353 OA
HETATM   23  C8  UNL     1      26.309   4.561  49.596  1.00  0.00     0.210 C 
ENDBRANCH   6  22
BRANCH   1  24
HETATM   24  O1  UNL     1      22.691   3.637  47.968  1.00  0.00    -0.353 OA
HETATM   25  C1  UNL     1      21.660   3.116  47.142  1.00  0.00     0.210 C 
ENDBRANCH   1  24
TORSDOF 4
ENDMDL
MODEL 4
REMARK VINA RESULT:      -7.1      2.923      4.034
REMARK  4 active torsions:
REMARK  status: ('A' for Active; 'I' for Inactive)
REMARK    1  A    between atoms: O1_2  and  C2_3 
REMARK    2  A    between atoms: C7_8  and  O2_9 
REMARK    3  A    between atoms: C9_11  and  N1_12 
REMARK    4  A    between atoms: N1_12  and  C11_14 
ROOT
HETATM    1  C2  UNL     1      26.132  -0.034  52.941  1.00  0.00     0.103 A 
HETATM    2  C3  UNL     1      26.772   0.783  52.001  1.00  0.00     0.071 A 
HETATM    3  C4  UNL     1      26.118   1.887  51.437  1.00  0.00     0.066 A 
HETATM    4  C5  UNL     1      24.827   2.110  51.865  1.00  0.00     0.022 A 
HETATM    5  C6  UNL     1      24.178   1.318  52.791  1.00  0.00     0.055 A 
HETATM    6  C7  UNL     1      24.838   0.235  53.334  1.00  0.00     0.102 A 
HETATM    7  C9  UNL     1      24.213   3.149  51.330  1.00  0.00     0.049 A 
HETATM    8  P1  UNL     1      24.940   4.278  50.090  1.00  0.00    -0.055 P 
HETATM    9  C17 UNL     1      26.658   3.633  49.816  1.00  0.00     0.186 A 
HETATM   10  N2  UNL     1      26.858   2.486  50.623  1.00  0.00    -0.284 NA
HETATM   11  H15 UNL     1      24.116   4.230  48.913  1.00  0.00     0.065 HD
ENDROOT
BRANCH   7  12
HETATM   12  N1  UNL     1      22.904   3.517  51.651  1.00  0.00    -0.350 N 
HETATM   13  C10 UNL     1      22.581   4.627  52.530  1.00  0.00     0.156 C 
BRANCH  12  14
HETATM   14  C11 UNL     1      21.804   2.794  51.111  1.00  0.00     0.036 A 
HETATM   15  C12 UNL     1      21.978   1.856  50.110  1.00  0.00     0.033 A 
HETATM   16  C13 UNL     1      20.931   1.143  49.570  1.00  0.00     0.046 A 
HETATM   17  C14 UNL     1      19.648   1.359  50.032  1.00  0.00     0.138 A 
HETATM   18  F1  UNL     1      18.605   0.671  49.517  1.00  0.00    -0.204 F 
HETATM   19  C15 UNL     1      19.469   2.302  51.038  1.00  0.00     0.074 A 
HETATM   20 CL1  UNL     1      17.815   2.537  51.588  1.00  0.00    -0.081 Cl
HETATM   21  C16 UNL     1      20.520   3.020  51.583  1.00  0.00     0.056 A 
ENDBRANCH  12  14
ENDBRANCH   7  12
BRANCH   6  22
HETATM   22  O2  UNL     1      24.204  -0.555  54.252  1.00  0.00    -0.353 OA
HETATM   23  C8  UNL     1      22.859  -0.907  54.248  1.00  0.00     0.210 C 
ENDBRANCH   6  22
BRANCH   1  24
HETATM   24  O1  UNL     1      26.741  -1.138  53.524  1.00  0.00    -0.353 OA
HETATM   25  C1  UNL     1      27.168  -2.200  52.684  1.00  0.00     0.210 C 
ENDBRANCH   1  24
TORSDOF 4
ENDMDL
MODEL 5
REMARK VINA RESULT:      -7.0      2.863      4.372
REMARK  4 active torsions:
REMARK  status: ('A' for Active; 'I' for Inactive)
REMARK    1  A    between atoms: O1_2  and  C2_3 
REMARK    2  A    between atoms: C7_8  and  O2_9 
REMARK    3  A    between atoms: C9_11  and  N1_12 
REMARK    4  A    between atoms: N1_12  and  C11_14 
ROOT
HETATM    1  C2  UNL     1      22.416  -0.256  52.682  1.00  0.00     0.103 A 
HETATM    2  C3  UNL     1      21.451   0.194  51.772  1.00  0.00     0.071 A 
HETATM    3  C4  UNL     1      21.521   1.481  51.220  1.00  0.00     0.066 A 
HETATM    4  C5  UNL     1      22.585   2.257  51.626  1.00  0.00     0.022 A 
HETATM    5  C6  UNL     1      23.547   1.833  52.520  1.00  0.00     0.055 A 
HETATM    6  C7  UNL     1      23.461   0.563  53.054  1.00  0.00     0.102 A 
HETATM    7  C9  UNL     1      22.646   3.470  51.106  1.00  0.00     0.049 A 
HETATM    8  P1  UNL     1      21.444   4.169  49.921  1.00  0.00    -0.055 P 
HETATM    9  C17 UNL     1      20.211   2.810  49.645  1.00  0.00     0.186 A 
HETATM   10  N2  UNL     1      20.570   1.689  50.432  1.00  0.00    -0.284 NA
HETATM   11  H15 UNL     1      20.874   5.348  50.514  1.00  0.00     0.065 HD
ENDROOT
BRANCH   7  12
HETATM   12  N1  UNL     1      23.657   4.385  51.409  1.00  0.00    -0.350 N 
HETATM   13  C10 UNL     1      23.623   5.254  52.572  1.00  0.00     0.156 C 
BRANCH  12  14
HETATM   14  C11 UNL     1      24.795   4.503  50.562  1.00  0.00     0.036 A 
HETATM   15  C12 UNL     1      25.596   3.414  50.275  1.00  0.00     0.033 A 
HETATM   16  C13 UNL     1      26.702   3.500  49.459  1.00  0.00     0.046 A 
HETATM   17  C14 UNL     1      27.042   4.713  48.896  1.00  0.00     0.138 A 
HETATM   18  F1  UNL     1      28.122   4.822  48.092  1.00  0.00    -0.204 F 
HETATM   19  C15 UNL     1      26.237   5.812  49.182  1.00  0.00     0.074 A 
HETATM   20 CL1  UNL     1      26.716   7.331  48.439  1.00  0.00    -0.081 Cl
HETATM   21  C16 UNL     1      25.125   5.727  50.002  1.00  0.00     0.056 A 
ENDBRANCH  12  14
ENDBRANCH   7  12
BRANCH   6  22
HETATM   22  O2  UNL     1      24.409   0.134  53.940  1.00  0.00    -0.353 OA
HETATM   23  C8  UNL     1      25.701   0.630  54.069  1.00  0.00     0.210 C 
ENDBRANCH   6  22
BRANCH   1  24
HETATM   24  O1  UNL     1      22.386  -1.521  53.253  1.00  0.00    -0.353 OA
HETATM   25  C1  UNL     1      21.533  -1.743  54.366  1.00  0.00     0.210 C 
ENDBRANCH   1  24
TORSDOF 4
ENDMDL
MODEL 6
REMARK VINA RESULT:      -6.8      2.715      3.753
REMARK  4 active torsions:
REMARK  status: ('A' for Active; 'I' for Inactive)
REMARK    1  A    between atoms: O1_2  and  C2_3 
REMARK    2  A    between atoms: C7_8  and  O2_9 
REMARK    3  A    between atoms: C9_11  and  N1_12 
REMARK    4  A    between atoms: N1_12  and  C11_14 
ROOT
HETATM    1  C2  UNL     1      22.927  -0.194  53.574  1.00  0.00     0.103 A 
HETATM    2  C3  UNL     1      24.281  -0.050  53.248  1.00  0.00     0.071 A 
HETATM    3  C4  UNL     1      24.721   0.998  52.429  1.00  0.00     0.066 A 
HETATM    4  C5  UNL     1      23.748   1.862  51.975  1.00  0.00     0.022 A 
HETATM    5  C6  UNL     1      22.409   1.738  52.284  1.00  0.00     0.055 A 
HETATM    6  C7  UNL     1      21.994   0.699  53.092  1.00  0.00     0.102 A 
HETATM    7  C9  UNL     1      24.166   2.846  51.200  1.00  0.00     0.049 A 
HETATM    8  P1  UNL     1      25.901   3.129  50.701  1.00  0.00    -0.055 P 
HETATM    9  C17 UNL     1      26.856   1.771  51.529  1.00  0.00     0.186 A 
HETATM   10  N2  UNL     1      25.962   0.951  52.260  1.00  0.00    -0.284 NA
HETATM   11  H15 UNL     1      25.961   3.078  49.266  1.00  0.00     0.065 HD
ENDROOT
BRANCH   7  12
HETATM   12  N1  UNL     1      23.314   3.809  50.655  1.00  0.00    -0.350 N 
HETATM   13  C10 UNL     1      22.801   4.939  51.409  1.00  0.00     0.156 C 
BRANCH  12  14
HETATM   14  C11 UNL     1      22.903   3.715  49.296  1.00  0.00     0.036 A 
HETATM   15  C12 UNL     1      22.602   2.497  48.715  1.00  0.00     0.033 A 
HETATM   16  C13 UNL     1      22.203   2.378  47.403  1.00  0.00     0.046 A 
HETATM   17  C14 UNL     1      22.092   3.507  46.618  1.00  0.00     0.138 A 
HETATM   18  F1  UNL     1      21.701   3.415  45.327  1.00  0.00    -0.204 F 
HETATM   19  C15 UNL     1      22.393   4.735  47.198  1.00  0.00     0.074 A 
HETATM   20 CL1  UNL     1      22.235   6.141  46.154  1.00  0.00    -0.081 Cl
HETATM   21  C16 UNL     1      22.795   4.857  48.518  1.00  0.00     0.056 A 
ENDBRANCH  12  14
ENDBRANCH   7  12
BRANCH   6  22
HETATM   22  O2  UNL     1      20.669   0.570  53.404  1.00  0.00    -0.353 OA
HETATM   23  C8  UNL     1      19.685   0.003  52.601  1.00  0.00     0.210 C 
ENDBRANCH   6  22
BRANCH   1  24
HETATM   24  O1  UNL     1      22.446  -1.217  54.381  1.00  0.00    -0.353 OA
HETATM   25  C1  UNL     1      23.154  -1.532  55.571  1.00  0.00     0.210 C 
ENDBRANCH   1  24
TORSDOF 4
ENDMDL
MODEL 7
REMARK VINA RESULT:      -6.7      3.974      6.111
REMARK  4 active torsions:
REMARK  status: ('A' for Active; 'I' for Inactive)
REMARK    1  A    between atoms: O1_2  and  C2_3 
REMARK    2  A    between atoms: C7_8  and  O2_9 
REMARK    3  A    between atoms: C9_11  and  N1_12 
REMARK    4  A    between atoms: N1_12  and  C11_14 
ROOT
HETATM    1  C2  UNL     1      19.772   0.097  52.361  1.00  0.00     0.103 A 
HETATM    2  C3  UNL     1      19.712   0.658  51.079  1.00  0.00     0.071 A 
HETATM    3  C4  UNL     1      20.641   1.623  50.667  1.00  0.00     0.066 A 
HETATM    4  C5  UNL     1      21.599   1.975  51.592  1.00  0.00     0.022 A 
HETATM    5  C6  UNL     1      21.676   1.436  52.860  1.00  0.00     0.055 A 
HETATM    6  C7  UNL     1      20.753   0.487  53.248  1.00  0.00     0.102 A 
HETATM    7  C9  UNL     1      22.471   2.888  51.202  1.00  0.00     0.049 A 
HETATM    8  P1  UNL     1      22.487   3.695  49.562  1.00  0.00    -0.055 P 
HETATM    9  C17 UNL     1      21.064   2.931  48.648  1.00  0.00     0.186 A 
HETATM   10  N2  UNL     1      20.418   1.995  49.492  1.00  0.00    -0.284 NA
HETATM   11  H15 UNL     1      22.343   5.111  49.766  1.00  0.00     0.065 HD
ENDROOT
BRANCH   7  12
HETATM   12  N1  UNL     1      23.506   3.359  52.014  1.00  0.00    -0.350 N 
HETATM   13  C10 UNL     1      23.458   4.633  52.708  1.00  0.00     0.156 C 
BRANCH  12  14
HETATM   14  C11 UNL     1      24.683   2.581  52.197  1.00  0.00     0.036 A 
HETATM   15  C12 UNL     1      25.643   2.481  51.207  1.00  0.00     0.033 A 
HETATM   16  C13 UNL     1      26.791   1.735  51.358  1.00  0.00     0.046 A 
HETATM   17  C14 UNL     1      27.011   1.052  52.537  1.00  0.00     0.138 A 
HETATM   18  F1  UNL     1      28.130   0.314  52.708  1.00  0.00    -0.204 F 
HETATM   19  C15 UNL     1      26.048   1.150  53.535  1.00  0.00     0.074 A 
HETATM   20 CL1  UNL     1      26.379   0.261  55.015  1.00  0.00    -0.081 Cl
HETATM   21  C16 UNL     1      24.893   1.900  53.385  1.00  0.00     0.056 A 
ENDBRANCH  12  14
ENDBRANCH   7  12
BRANCH   6  22
HETATM   22  O2  UNL     1      20.821  -0.055  54.501  1.00  0.00    -0.353 OA
HETATM   23  C8  UNL     1      21.775  -0.958  54.958  1.00  0.00     0.210 C 
ENDBRANCH   6  22
BRANCH   1  24
HETATM   24  O1  UNL     1      18.873  -0.861  52.811  1.00  0.00    -0.353 OA
HETATM   25  C1  UNL     1      17.568  -0.882  52.252  1.00  0.00     0.210 C 
ENDBRANCH   1  24
TORSDOF 4
ENDMDL
MODEL 8
REMARK VINA RESULT:      -6.5      2.447      3.162
REMARK  4 active torsions:
REMARK  status: ('A' for Active; 'I' for Inactive)
REMARK    1  A    between atoms: O1_2  and  C2_3 
REMARK    2  A    between atoms: C7_8  and  O2_9 
REMARK    3  A    between atoms: C9_11  and  N1_12 
REMARK    4  A    between atoms: N1_12  and  C11_14 
ROOT
HETATM    1  C2  UNL     1      26.567   2.381  51.756  1.00  0.00     0.103 A 
HETATM    2  C3  UNL     1      25.635   1.612  52.466  1.00  0.00     0.071 A 
HETATM    3  C4  UNL     1      24.317   1.472  52.012  1.00  0.00     0.066 A 
HETATM    4  C5  UNL     1      24.006   2.129  50.841  1.00  0.00     0.022 A 
HETATM    5  C6  UNL     1      24.907   2.891  50.127  1.00  0.00     0.055 A 
HETATM    6  C7  UNL     1      26.201   3.018  50.590  1.00  0.00     0.102 A 
HETATM    7  C9  UNL     1      22.761   1.997  50.419  1.00  0.00     0.049 A 
HETATM    8  P1  UNL     1      21.460   1.031  51.262  1.00  0.00    -0.055 P 
HETATM    9  C17 UNL     1      22.297   0.318  52.756  1.00  0.00     0.186 A 
HETATM   10  N2  UNL     1      23.646   0.747  52.783  1.00  0.00    -0.284 NA
HETATM   11  H15 UNL     1      20.383   1.927  51.582  1.00  0.00     0.065 HD
ENDROOT
BRANCH   7  12
HETATM   12  N1  UNL     1      22.279   2.596  49.252  1.00  0.00    -0.350 N 
HETATM   13  C10 UNL     1      22.552   2.083  47.922  1.00  0.00     0.156 C 
BRANCH  12  14
HETATM   14  C11 UNL     1      21.476   3.769  49.328  1.00  0.00     0.036 A 
HETATM   15  C12 UNL     1      20.208   3.812  48.779  1.00  0.00     0.033 A 
HETATM   16  C13 UNL     1      19.412   4.933  48.839  1.00  0.00     0.046 A 
HETATM   17  C14 UNL     1      19.878   6.071  49.467  1.00  0.00     0.138 A 
HETATM   18  F1  UNL     1      19.114   7.183  49.537  1.00  0.00    -0.204 F 
HETATM   19  C15 UNL     1      21.154   6.031  50.020  1.00  0.00     0.074 A 
HETATM   20 CL1  UNL     1      21.698   7.506  50.807  1.00  0.00    -0.081 Cl
HETATM   21  C16 UNL     1      21.957   4.904  49.962  1.00  0.00     0.056 A 
ENDBRANCH  12  14
ENDBRANCH   7  12
BRANCH   6  22
HETATM   22  O2  UNL     1      27.102   3.770  49.888  1.00  0.00    -0.353 OA
HETATM   23  C8  UNL     1      26.804   4.808  49.012  1.00  0.00     0.210 C 
ENDBRANCH   6  22
BRANCH   1  24
HETATM   24  O1  UNL     1      27.882   2.548  52.169  1.00  0.00    -0.353 OA
HETATM   25  C1  UNL     1      28.283   1.979  53.407  1.00  0.00     0.210 C 
ENDBRANCH   1  24
TORSDOF 4
ENDMDL
MODEL 9
REMARK VINA RESULT:      -6.5      3.085      4.665
REMARK  4 active torsions:
REMARK  status: ('A' for Active; 'I' for Inactive)
REMARK    1  A    between atoms: O1_2  and  C2_3 
REMARK    2  A    between atoms: C7_8  and  O2_9 
REMARK    3  A    between atoms: C9_11  and  N1_12 
REMARK    4  A    between atoms: N1_12  and  C11_14 
ROOT
HETATM    1  C2  UNL     1      22.008   0.953  53.117  1.00  0.00     0.103 A 
HETATM    2  C3  UNL     1      20.755   1.573  53.034  1.00  0.00     0.071 A 
HETATM    3  C4  UNL     1      20.479   2.518  52.037  1.00  0.00     0.066 A 
HETATM    4  C5  UNL     1      21.506   2.789  51.159  1.00  0.00     0.022 A 
HETATM    5  C6  UNL     1      22.747   2.190  51.222  1.00  0.00     0.055 A 
HETATM    6  C7  UNL     1      23.000   1.262  52.211  1.00  0.00     0.102 A 
HETATM    7  C9  UNL     1      21.243   3.683  50.222  1.00  0.00     0.049 A 
HETATM    8  P1  UNL     1      19.654   4.562  50.021  1.00  0.00    -0.055 P 
HETATM    9  C17 UNL     1      18.575   3.898  51.377  1.00  0.00     0.186 A 
HETATM   10  N2  UNL     1      19.307   2.951  52.134  1.00  0.00    -0.284 NA
HETATM   11  H15 UNL     1      19.912   5.971  50.134  1.00  0.00     0.065 HD
ENDROOT
BRANCH   7  12
HETATM   12  N1  UNL     1      22.170   4.074  49.253  1.00  0.00    -0.350 N 
HETATM   13  C10 UNL     1      22.128   3.612  47.877  1.00  0.00     0.156 C 
BRANCH  12  14
HETATM   14  C11 UNL     1      23.223   4.971  49.589  1.00  0.00     0.036 A 
HETATM   15  C12 UNL     1      23.022   6.024  50.462  1.00  0.00     0.033 A 
HETATM   16  C13 UNL     1      24.023   6.905  50.804  1.00  0.00     0.046 A 
HETATM   17  C14 UNL     1      25.285   6.749  50.266  1.00  0.00     0.138 A 
HETATM   18  F1  UNL     1      26.283   7.602  50.587  1.00  0.00    -0.204 F 
HETATM   19  C15 UNL     1      25.490   5.690  49.387  1.00  0.00     0.074 A 
HETATM   20 CL1  UNL     1      27.114   5.538  48.731  1.00  0.00    -0.081 Cl
HETATM   21  C16 UNL     1      24.485   4.803  49.042  1.00  0.00     0.056 A 
ENDBRANCH  12  14
ENDBRANCH   7  12
BRANCH   6  22
HETATM   22  O2  UNL     1      24.227   0.663  52.281  1.00  0.00    -0.353 OA
HETATM   23  C8  UNL     1      25.435   1.288  52.567  1.00  0.00     0.210 C 
ENDBRANCH   6  22
BRANCH   1  24
HETATM   24  O1  UNL     1      22.325   0.012  54.088  1.00  0.00    -0.353 OA
HETATM   25  C1  UNL     1      21.303  -0.859  54.549  1.00  0.00     0.210 C 
ENDBRANCH   1  24
TORSDOF 4
ENDMDL
