MODEL 1
REMARK VINA RESULT:      -9.3      0.000      0.000
REMARK  4 active torsions:
REMARK  status: ('A' for Active; 'I' for Inactive)
REMARK       I    between atoms: N1_2  and  C2_3 
REMARK    1  A    between atoms: N1_2  and  C10_14 
REMARK    2  A    between atoms: C2_3  and  C3_5 
REMARK    3  A    between atoms: C13_18  and  N3_19 
REMARK    4  A    between atoms: N3_19  and  C14_20 
ROOT
HETATM    1  C10 UNL     1      24.299   3.174  51.376  1.00  0.00     0.152 A 
HETATM    2  C11 UNL     1      24.600   3.452  50.061  1.00  0.00     0.071 A 
HETATM    3  C12 UNL     1      25.907   3.326  49.680  1.00  0.00     0.140 A 
HETATM    4  N2  UNL     1      26.819   2.946  50.583  1.00  0.00    -0.075 NA
HETATM    5  C13 UNL     1      26.574   2.666  51.868  1.00  0.00     0.728 A 
HETATM    6  N4  UNL     1      25.290   2.802  52.195  1.00  0.00    -0.045 NA
ENDROOT
BRANCH   1   7
HETATM    7  N1  UNL     1      22.957   3.286  51.834  1.00  0.00    -0.305 N 
HETATM    8  C1  UNL     1      22.579   4.617  52.244  1.00  0.00     0.161 C 
HETATM    9  C2  UNL     1      22.540   1.937  51.677  1.00  0.00     0.238 C 
HETATM   10  O1  UNL     1      23.640   1.539  51.236  1.00  0.00    -0.272 OA
BRANCH   9  11
HETATM   11  C3  UNL     1      21.174   1.553  52.037  1.00  0.00     0.147 C 
HETATM   12  C4  UNL     1      21.180   0.399  52.972  1.00  0.00     0.017 C 
HETATM   13  C5  UNL     1      20.300  -0.522  53.337  1.00  0.00     0.031 C 
HETATM   14 CL1  UNL     1      20.795  -1.727  54.523  1.00  0.00    -0.085 Cl
HETATM   15  C6  UNL     1      18.921  -0.605  52.810  1.00  0.00     0.023 C 
HETATM   16  C7  UNL     1      18.422  -0.108  51.675  1.00  0.00     0.003 C 
HETATM   17  C8  UNL     1      19.193   0.653  50.695  1.00  0.00     0.021 C 
HETATM   18  C9  UNL     1      20.318   1.327  50.861  1.00  0.00     0.028 C 
HETATM   19 CL2  UNL     1      20.931   2.113  49.419  1.00  0.00    -0.088 Cl
ENDBRANCH   9  11
ENDBRANCH   1   7
BRANCH   5  20
HETATM   20  N3  UNL     1      27.501   2.267  52.838  1.00  0.00    -0.188 N 
HETATM   21  H11 UNL     1      27.848   3.000  53.504  1.00  0.00     0.184 HD
BRANCH  20  22
HETATM   22  C14 UNL     1      28.042   0.972  53.036  1.00  0.00     0.049 A 
HETATM   23  C15 UNL     1      29.290   0.670  53.531  1.00  0.00     0.033 A 
HETATM   24  C16 UNL     1      29.797  -0.581  53.715  1.00  0.00     0.044 A 
HETATM   25  C17 UNL     1      29.018  -1.670  53.387  1.00  0.00     0.116 A 
HETATM   26  F1  UNL     1      29.400  -2.962  53.521  1.00  0.00    -0.206 F 
HETATM   27  C18 UNL     1      27.759  -1.440  52.887  1.00  0.00     0.044 A 
HETATM   28  C19 UNL     1      27.306  -0.151  52.724  1.00  0.00     0.033 A 
ENDBRANCH  20  22
ENDBRANCH   5  20
TORSDOF 4
ENDMDL
MODEL 2
REMARK VINA RESULT:      -8.5      2.813      5.702
REMARK  4 active torsions:
REMARK  status: ('A' for Active; 'I' for Inactive)
REMARK       I    between atoms: N1_2  and  C2_3 
REMARK    1  A    between atoms: N1_2  and  C10_14 
REMARK    2  A    between atoms: C2_3  and  C3_5 
REMARK    3  A    between atoms: C13_18  and  N3_19 
REMARK    4  A    between atoms: N3_19  and  C14_20 
ROOT
HETATM    1  C10 UNL     1      22.874   2.034  51.564  1.00  0.00     0.152 A 
HETATM    2  C11 UNL     1      21.572   2.184  51.986  1.00  0.00     0.071 A 
HETATM    3  C12 UNL     1      21.136   1.344  52.975  1.00  0.00     0.140 A 
HETATM    4  N2  UNL     1      21.977   0.433  53.478  1.00  0.00    -0.075 NA
HETATM    5  C13 UNL     1      23.247   0.251  53.100  1.00  0.00     0.728 A 
HETATM    6  N4  UNL     1      23.629   1.088  52.136  1.00  0.00    -0.045 NA
ENDROOT
BRANCH   1   7
HETATM    7  N1  UNL     1      23.387   2.877  50.538  1.00  0.00    -0.305 N 
HETATM    8  C1  UNL     1      22.995   2.493  49.204  1.00  0.00     0.161 C 
HETATM    9  C2  UNL     1      24.117   3.800  51.335  1.00  0.00     0.238 C 
HETATM   10  O1  UNL     1      23.823   3.255  52.421  1.00  0.00    -0.272 OA
BRANCH   9  11
HETATM   11  C3  UNL     1      24.844   4.895  50.692  1.00  0.00     0.147 C 
HETATM   12  C4  UNL     1      23.935   5.704  49.841  1.00  0.00     0.017 C 
HETATM   13  C5  UNL     1      24.091   6.546  48.830  1.00  0.00     0.031 C 
HETATM   14 CL1  UNL     1      22.653   7.282  48.125  1.00  0.00    -0.085 Cl
HETATM   15  C6  UNL     1      25.402   6.912  48.252  1.00  0.00     0.023 C 
HETATM   16  C7  UNL     1      26.561   6.251  48.309  1.00  0.00     0.003 C 
HETATM   17  C8  UNL     1      26.754   4.975  48.993  1.00  0.00     0.021 C 
HETATM   18  C9  UNL     1      26.040   4.436  49.967  1.00  0.00     0.028 C 
HETATM   19 CL2  UNL     1      26.606   2.873  50.523  1.00  0.00    -0.088 Cl
ENDBRANCH   9  11
ENDBRANCH   1   7
BRANCH   5  20
HETATM   20  N3  UNL     1      24.153  -0.690  53.603  1.00  0.00    -0.188 N 
HETATM   21  H11 UNL     1      23.762  -1.603  53.942  1.00  0.00     0.184 HD
BRANCH  20  22
HETATM   22  C14 UNL     1      25.561  -0.562  53.713  1.00  0.00     0.049 A 
HETATM   23  C15 UNL     1      26.247   0.162  54.661  1.00  0.00     0.033 A 
HETATM   24  C16 UNL     1      27.602   0.277  54.754  1.00  0.00     0.044 A 
HETATM   25  C17 UNL     1      28.391  -0.377  53.833  1.00  0.00     0.116 A 
HETATM   26  F1  UNL     1      29.744  -0.346  53.814  1.00  0.00    -0.206 F 
HETATM   27  C18 UNL     1      27.769  -1.119  52.858  1.00  0.00     0.044 A 
HETATM   28  C19 UNL     1      26.396  -1.194  52.817  1.00  0.00     0.033 A 
ENDBRANCH  20  22
ENDBRANCH   5  20
TORSDOF 4
ENDMDL
MODEL 3
REMARK VINA RESULT:      -8.5      1.146      2.331
REMARK  4 active torsions:
REMARK  status: ('A' for Active; 'I' for Inactive)
REMARK       I    between atoms: N1_2  and  C2_3 
REMARK    1  A    between atoms: N1_2  and  C10_14 
REMARK    2  A    between atoms: C2_3  and  C3_5 
REMARK    3  A    between atoms: C13_18  and  N3_19 
REMARK    4  A    between atoms: N3_19  and  C14_20 
ROOT
HETATM    1  C10 UNL     1      23.472   2.742  51.371  1.00  0.00     0.152 A 
HETATM    2  C11 UNL     1      23.740   3.424  50.205  1.00  0.00     0.071 A 
HETATM    3  C12 UNL     1      25.043   3.767  49.967  1.00  0.00     0.140 A 
HETATM    4  N2  UNL     1      25.981   3.431  50.859  1.00  0.00    -0.075 NA
HETATM    5  C13 UNL     1      25.769   2.769  52.002  1.00  0.00     0.728 A 
HETATM    6  N4  UNL     1      24.488   2.456  52.193  1.00  0.00    -0.045 NA
ENDROOT
BRANCH   1   7
HETATM    7  N1  UNL     1      22.136   2.357  51.675  1.00  0.00    -0.305 N 
HETATM    8  C1  UNL     1      21.320   3.421  52.208  1.00  0.00     0.161 C 
HETATM    9  C2  UNL     1      22.192   0.990  51.292  1.00  0.00     0.238 C 
HETATM   10  O1  UNL     1      23.390   1.029  50.938  1.00  0.00    -0.272 OA
BRANCH   9  11
HETATM   11  C3  UNL     1      21.001   0.149  51.431  1.00  0.00     0.147 C 
HETATM   12  C4  UNL     1      19.856   0.731  50.685  1.00  0.00     0.017 C 
HETATM   13  C5  UNL     1      18.539   0.598  50.728  1.00  0.00     0.031 C 
HETATM   14 CL1  UNL     1      17.567   1.534  49.595  1.00  0.00    -0.085 Cl
HETATM   15  C6  UNL     1      17.826  -0.291  51.670  1.00  0.00     0.023 C 
HETATM   16  C7  UNL     1      18.244  -0.787  52.838  1.00  0.00     0.003 C 
HETATM   17  C8  UNL     1      19.554  -0.527  53.428  1.00  0.00     0.021 C 
HETATM   18  C9  UNL     1      20.673  -0.144  52.835  1.00  0.00     0.028 C 
HETATM   19 CL2  UNL     1      22.045   0.061  53.906  1.00  0.00    -0.088 Cl
ENDBRANCH   9  11
ENDBRANCH   1   7
BRANCH   5  20
HETATM   20  N3  UNL     1      26.725   2.402  52.957  1.00  0.00    -0.188 N 
HETATM   21  H11 UNL     1      26.985   3.117  53.680  1.00  0.00     0.184 HD
BRANCH  20  22
HETATM   22  C14 UNL     1      27.399   1.160  53.071  1.00  0.00     0.049 A 
HETATM   23  C15 UNL     1      26.887  -0.082  52.774  1.00  0.00     0.033 A 
HETATM   24  C16 UNL     1      27.547  -1.269  52.889  1.00  0.00     0.044 A 
HETATM   25  C17 UNL     1      28.849  -1.265  53.341  1.00  0.00     0.116 A 
HETATM   26  F1  UNL     1      29.615  -2.370  53.500  1.00  0.00    -0.206 F 
HETATM   27  C18 UNL     1      29.423  -0.057  53.656  1.00  0.00     0.044 A 
HETATM   28  C19 UNL     1      28.702   1.107  53.519  1.00  0.00     0.033 A 
ENDBRANCH  20  22
ENDBRANCH   5  20
TORSDOF 4
ENDMDL
MODEL 4
REMARK VINA RESULT:      -8.4      3.693      6.502
REMARK  4 active torsions:
REMARK  status: ('A' for Active; 'I' for Inactive)
REMARK       I    between atoms: N1_2  and  C2_3 
REMARK    1  A    between atoms: N1_2  and  C10_14 
REMARK    2  A    between atoms: C2_3  and  C3_5 
REMARK    3  A    between atoms: C13_18  and  N3_19 
REMARK    4  A    between atoms: N3_19  and  C14_20 
ROOT
HETATM    1  C10 UNL     1      24.502   3.047  50.892  1.00  0.00     0.152 A 
HETATM    2  C11 UNL     1      23.775   3.543  51.951  1.00  0.00     0.071 A 
HETATM    3  C12 UNL     1      23.744   2.791  53.094  1.00  0.00     0.140 A 
HETATM    4  N2  UNL     1      24.407   1.629  53.131  1.00  0.00    -0.075 NA
HETATM    5  C13 UNL     1      25.124   1.108  52.129  1.00  0.00     0.728 A 
HETATM    6  N4  UNL     1      25.127   1.873  51.038  1.00  0.00    -0.045 NA
ENDROOT
BRANCH   1   7
HETATM    7  N1  UNL     1      24.573   3.783  49.676  1.00  0.00    -0.305 N 
HETATM    8  C1  UNL     1      23.457   3.568  48.787  1.00  0.00     0.161 C 
HETATM    9  C2  UNL     1      25.804   4.461  49.883  1.00  0.00     0.238 C 
HETATM   10  O1  UNL     1      26.013   3.957  51.007  1.00  0.00    -0.272 OA
BRANCH   9  11
HETATM   11  C3  UNL     1      26.312   5.371  48.855  1.00  0.00     0.147 C 
HETATM   12  C4  UNL     1      27.747   5.104  48.577  1.00  0.00     0.017 C 
HETATM   13  C5  UNL     1      28.744   5.786  48.033  1.00  0.00     0.031 C 
HETATM   14 CL1  UNL     1      30.322   5.012  47.920  1.00  0.00    -0.085 Cl
HETATM   15  C6  UNL     1      28.617   7.163  47.510  1.00  0.00     0.023 C 
HETATM   16  C7  UNL     1      27.705   8.094  47.804  1.00  0.00     0.003 C 
HETATM   17  C8  UNL     1      26.606   7.909  48.747  1.00  0.00     0.021 C 
HETATM   18  C9  UNL     1      26.049   6.785  49.166  1.00  0.00     0.028 C 
HETATM   19 CL2  UNL     1      24.739   6.990  50.313  1.00  0.00    -0.088 Cl
ENDBRANCH   9  11
ENDBRANCH   1   7
BRANCH   5  20
HETATM   20  N3  UNL     1      25.829  -0.101  52.133  1.00  0.00    -0.188 N 
HETATM   21  H11 UNL     1      25.362  -0.933  51.696  1.00  0.00     0.184 HD
BRANCH  20  22
HETATM   22  C14 UNL     1      27.120  -0.347  52.665  1.00  0.00     0.049 A 
HETATM   23  C15 UNL     1      27.990   0.589  53.174  1.00  0.00     0.033 A 
HETATM   24  C16 UNL     1      29.229   0.338  53.682  1.00  0.00     0.044 A 
HETATM   25  C17 UNL     1      29.689  -0.961  53.704  1.00  0.00     0.116 A 
HETATM   26  F1  UNL     1      30.896  -1.345  54.180  1.00  0.00    -0.206 F 
HETATM   27  C18 UNL     1      28.870  -1.947  53.210  1.00  0.00     0.044 A 
HETATM   28  C19 UNL     1      27.628  -1.627  52.710  1.00  0.00     0.033 A 
ENDBRANCH  20  22
ENDBRANCH   5  20
TORSDOF 4
ENDMDL
MODEL 5
REMARK VINA RESULT:      -8.3      2.752      5.362
REMARK  4 active torsions:
REMARK  status: ('A' for Active; 'I' for Inactive)
REMARK       I    between atoms: N1_2  and  C2_3 
REMARK    1  A    between atoms: N1_2  and  C10_14 
REMARK    2  A    between atoms: C2_3  and  C3_5 
REMARK    3  A    between atoms: C13_18  and  N3_19 
REMARK    4  A    between atoms: N3_19  and  C14_20 
ROOT
HETATM    1  C10 UNL     1      22.441   1.229  51.849  1.00  0.00     0.152 A 
HETATM    2  C11 UNL     1      21.358   1.372  52.689  1.00  0.00     0.071 A 
HETATM    3  C12 UNL     1      21.387   0.678  53.867  1.00  0.00     0.140 A 
HETATM    4  N2  UNL     1      22.444  -0.093  54.147  1.00  0.00    -0.075 NA
HETATM    5  C13 UNL     1      23.515  -0.262  53.365  1.00  0.00     0.728 A 
HETATM    6  N4  UNL     1      23.445   0.431  52.229  1.00  0.00    -0.045 NA
ENDROOT
BRANCH   1   7
HETATM    7  N1  UNL     1      22.470   1.925  50.608  1.00  0.00    -0.305 N 
HETATM    8  C1  UNL     1      21.779   1.253  49.535  1.00  0.00     0.161 C 
HETATM    9  C2  UNL     1      23.225   3.066  50.996  1.00  0.00     0.238 C 
HETATM   10  O1  UNL     1      23.365   2.699  52.182  1.00  0.00    -0.272 OA
BRANCH   9  11
HETATM   11  C3  UNL     1      23.524   4.106  50.010  1.00  0.00     0.147 C 
HETATM   12  C4  UNL     1      24.965   4.089  49.647  1.00  0.00     0.017 C 
HETATM   13  C5  UNL     1      25.809   4.953  49.105  1.00  0.00     0.031 C 
HETATM   14 CL1  UNL     1      27.481   4.450  48.865  1.00  0.00    -0.085 Cl
HETATM   15  C6  UNL     1      25.438   6.322  48.685  1.00  0.00     0.023 C 
HETATM   16  C7  UNL     1      24.411   7.075  49.085  1.00  0.00     0.003 C 
HETATM   17  C8  UNL     1      23.410   6.659  50.063  1.00  0.00     0.021 C 
HETATM   18  C9  UNL     1      23.061   5.438  50.429  1.00  0.00     0.028 C 
HETATM   19 CL2  UNL     1      21.803   5.361  51.649  1.00  0.00    -0.088 Cl
ENDBRANCH   9  11
ENDBRANCH   1   7
BRANCH   5  20
HETATM   20  N3  UNL     1      24.636  -1.059  53.625  1.00  0.00    -0.188 N 
HETATM   21  H11 UNL     1      24.473  -2.084  53.782  1.00  0.00     0.184 HD
BRANCH  20  22
HETATM   22  C14 UNL     1      25.990  -0.647  53.705  1.00  0.00     0.049 A 
HETATM   23  C15 UNL     1      26.483   0.416  54.427  1.00  0.00     0.033 A 
HETATM   24  C16 UNL     1      27.788   0.802  54.494  1.00  0.00     0.044 A 
HETATM   25  C17 UNL     1      28.731   0.086  53.788  1.00  0.00     0.116 A 
HETATM   26  F1  UNL     1      30.056   0.363  53.769  1.00  0.00    -0.206 F 
HETATM   27  C18 UNL     1      28.306  -0.989  53.045  1.00  0.00     0.044 A 
HETATM   28  C19 UNL     1      26.973  -1.326  53.018  1.00  0.00     0.033 A 
ENDBRANCH  20  22
ENDBRANCH   5  20
TORSDOF 4
ENDMDL
MODEL 6
REMARK VINA RESULT:      -8.1      4.718      6.764
REMARK  4 active torsions:
REMARK  status: ('A' for Active; 'I' for Inactive)
REMARK       I    between atoms: N1_2  and  C2_3 
REMARK    1  A    between atoms: N1_2  and  C10_14 
REMARK    2  A    between atoms: C2_3  and  C3_5 
REMARK    3  A    between atoms: C13_18  and  N3_19 
REMARK    4  A    between atoms: N3_19  and  C14_20 
ROOT
HETATM    1  C10 UNL     1      23.508   5.092  50.403  1.00  0.00     0.152 A 
HETATM    2  C11 UNL     1      22.334   5.805  50.502  1.00  0.00     0.071 A 
HETATM    3  C12 UNL     1      22.439   7.153  50.713  1.00  0.00     0.140 A 
HETATM    4  N2  UNL     1      23.652   7.708  50.812  1.00  0.00    -0.075 NA
HETATM    5  C13 UNL     1      24.817   7.057  50.722  1.00  0.00     0.728 A 
HETATM    6  N4  UNL     1      24.669   5.748  50.517  1.00  0.00    -0.045 NA
ENDROOT
BRANCH   1   7
HETATM    7  N1  UNL     1      23.466   3.687  50.183  1.00  0.00    -0.305 N 
HETATM    8  C1  UNL     1      23.320   3.307  48.799  1.00  0.00     0.161 C 
HETATM    9  C2  UNL     1      23.595   3.235  51.525  1.00  0.00     0.238 C 
HETATM   10  O1  UNL     1      23.661   4.383  52.015  1.00  0.00    -0.272 OA
BRANCH   9  11
HETATM   11  C3  UNL     1      23.602   1.799  51.809  1.00  0.00     0.147 C 
HETATM   12  C4  UNL     1      22.513   1.444  52.755  1.00  0.00     0.017 C 
HETATM   13  C5  UNL     1      22.269   0.430  53.572  1.00  0.00     0.031 C 
HETATM   14 CL1  UNL     1      20.787   0.463  54.524  1.00  0.00    -0.085 Cl
HETATM   15  C6  UNL     1      23.164  -0.735  53.737  1.00  0.00     0.023 C 
HETATM   16  C7  UNL     1      24.468  -0.840  53.466  1.00  0.00     0.003 C 
HETATM   17  C8  UNL     1      25.291   0.239  52.927  1.00  0.00     0.021 C 
HETATM   18  C9  UNL     1      24.919   1.312  52.251  1.00  0.00     0.028 C 
HETATM   19 CL2  UNL     1      26.226   2.379  51.775  1.00  0.00    -0.088 Cl
ENDBRANCH   9  11
ENDBRANCH   1   7
BRANCH   5  20
HETATM   20  N3  UNL     1      26.102   7.604  50.821  1.00  0.00    -0.188 N 
HETATM   21  H11 UNL     1      26.568   7.575  51.761  1.00  0.00     0.184 HD
BRANCH  20  22
HETATM   22  C14 UNL     1      26.867   8.205  49.790  1.00  0.00     0.049 A 
HETATM   23  C15 UNL     1      26.991   7.759  48.494  1.00  0.00     0.033 A 
HETATM   24  C16 UNL     1      27.731   8.346  47.512  1.00  0.00     0.044 A 
HETATM   25  C17 UNL     1      28.434   9.495  47.806  1.00  0.00     0.116 A 
HETATM   26  F1  UNL     1      29.205  10.175  46.925  1.00  0.00    -0.206 F 
HETATM   27  C18 UNL     1      28.354   9.995  49.083  1.00  0.00     0.044 A 
HETATM   28  C19 UNL     1      27.589   9.353  50.030  1.00  0.00     0.033 A 
ENDBRANCH  20  22
ENDBRANCH   5  20
TORSDOF 4
ENDMDL
MODEL 7
REMARK VINA RESULT:      -8.1      3.395      7.156
REMARK  4 active torsions:
REMARK  status: ('A' for Active; 'I' for Inactive)
REMARK       I    between atoms: N1_2  and  C2_3 
REMARK    1  A    between atoms: N1_2  and  C10_14 
REMARK    2  A    between atoms: C2_3  and  C3_5 
REMARK    3  A    between atoms: C13_18  and  N3_19 
REMARK    4  A    between atoms: N3_19  and  C14_20 
ROOT
HETATM    1  C10 UNL     1      23.437   0.182  53.221  1.00  0.00     0.152 A 
HETATM    2  C11 UNL     1      22.378  -0.554  52.738  1.00  0.00     0.071 A 
HETATM    3  C12 UNL     1      21.487   0.093  51.925  1.00  0.00     0.140 A 
HETATM    4  N2  UNL     1      21.681   1.387  51.641  1.00  0.00    -0.075 NA
HETATM    5  C13 UNL     1      22.692   2.140  52.087  1.00  0.00     0.728 A 
HETATM    6  N4  UNL     1      23.533   1.471  52.874  1.00  0.00    -0.045 NA
ENDROOT
BRANCH   1   7
HETATM    7  N1  UNL     1      24.397  -0.434  54.072  1.00  0.00    -0.305 N 
HETATM    8  C1  UNL     1      23.841  -1.019  55.268  1.00  0.00     0.161 C 
HETATM    9  C2  UNL     1      25.575  -0.187  53.316  1.00  0.00     0.238 C 
HETATM   10  O1  UNL     1      24.982   0.415  52.394  1.00  0.00    -0.272 OA
BRANCH   9  11
HETATM   11  C3  UNL     1      26.868  -0.656  53.815  1.00  0.00     0.147 C 
HETATM   12  C4  UNL     1      27.774   0.490  54.087  1.00  0.00     0.017 C 
HETATM   13  C5  UNL     1      29.083   0.645  54.217  1.00  0.00     0.031 C 
HETATM   14 CL1  UNL     1      29.705   2.260  54.549  1.00  0.00    -0.085 Cl
HETATM   15  C6  UNL     1      30.063  -0.456  54.102  1.00  0.00     0.023 C 
HETATM   16  C7  UNL     1      29.933  -1.639  53.496  1.00  0.00     0.003 C 
HETATM   17  C8  UNL     1      28.729  -2.084  52.799  1.00  0.00     0.021 C 
HETATM   18  C9  UNL     1      27.482  -1.669  52.943  1.00  0.00     0.028 C 
HETATM   19 CL2  UNL     1      26.312  -2.465  51.908  1.00  0.00    -0.088 Cl
ENDBRANCH   9  11
ENDBRANCH   1   7
BRANCH   5  20
HETATM   20  N3  UNL     1      22.925   3.493  51.811  1.00  0.00    -0.188 N 
HETATM   21  H11 UNL     1      22.283   4.193  52.256  1.00  0.00     0.184 HD
BRANCH  20  22
HETATM   22  C14 UNL     1      23.939   4.045  50.988  1.00  0.00     0.049 A 
HETATM   23  C15 UNL     1      24.233   5.380  50.833  1.00  0.00     0.033 A 
HETATM   24  C16 UNL     1      25.211   5.898  50.037  1.00  0.00     0.044 A 
HETATM   25  C17 UNL     1      26.000   5.035  49.306  1.00  0.00     0.116 A 
HETATM   26  F1  UNL     1      27.002   5.418  48.481  1.00  0.00    -0.206 F 
HETATM   27  C18 UNL     1      25.760   3.687  49.415  1.00  0.00     0.044 A 
HETATM   28  C19 UNL     1      24.755   3.229  50.236  1.00  0.00     0.033 A 
ENDBRANCH  20  22
ENDBRANCH   5  20
TORSDOF 4
ENDMDL
MODEL 8
REMARK VINA RESULT:      -8.0      2.584      5.052
REMARK  4 active torsions:
REMARK  status: ('A' for Active; 'I' for Inactive)
REMARK       I    between atoms: N1_2  and  C2_3 
REMARK    1  A    between atoms: N1_2  and  C10_14 
REMARK    2  A    between atoms: C2_3  and  C3_5 
REMARK    3  A    between atoms: C13_18  and  N3_19 
REMARK    4  A    between atoms: N3_19  and  C14_20 
ROOT
HETATM    1  C10 UNL     1      22.277   1.695  52.171  1.00  0.00     0.152 A 
HETATM    2  C11 UNL     1      21.061   1.064  52.026  1.00  0.00     0.071 A 
HETATM    3  C12 UNL     1      20.895  -0.127  52.679  1.00  0.00     0.140 A 
HETATM    4  N2  UNL     1      21.900  -0.616  53.414  1.00  0.00    -0.075 NA
HETATM    5  C13 UNL     1      23.096  -0.040  53.583  1.00  0.00     0.728 A 
HETATM    6  N4  UNL     1      23.214   1.116  52.930  1.00  0.00    -0.045 NA
ENDROOT
BRANCH   1   7
HETATM    7  N1  UNL     1      22.512   2.937  51.517  1.00  0.00    -0.305 N 
HETATM    8  C1  UNL     1      22.111   4.094  52.280  1.00  0.00     0.161 C 
HETATM    9  C2  UNL     1      23.082   2.461  50.305  1.00  0.00     0.238 C 
HETATM   10  O1  UNL     1      22.999   1.254  50.619  1.00  0.00    -0.272 OA
BRANCH   9  11
HETATM   11  C3  UNL     1      23.498   3.416  49.277  1.00  0.00     0.147 C 
HETATM   12  C4  UNL     1      24.189   4.581  49.887  1.00  0.00     0.017 C 
HETATM   13  C5  UNL     1      24.458   5.821  49.508  1.00  0.00     0.031 C 
HETATM   14 CL1  UNL     1      25.336   6.864  50.624  1.00  0.00    -0.085 Cl
HETATM   15  C6  UNL     1      24.068   6.390  48.200  1.00  0.00     0.023 C 
HETATM   16  C7  UNL     1      23.106   5.993  47.363  1.00  0.00     0.003 C 
HETATM   17  C8  UNL     1      22.217   4.860  47.600  1.00  0.00     0.021 C 
HETATM   18  C9  UNL     1      22.395   3.813  48.388  1.00  0.00     0.028 C 
HETATM   19 CL2  UNL     1      21.075   2.659  48.395  1.00  0.00    -0.088 Cl
ENDBRANCH   9  11
ENDBRANCH   1   7
BRANCH   5  20
HETATM   20  N3  UNL     1      24.168  -0.523  54.342  1.00  0.00    -0.188 N 
HETATM   21  H11 UNL     1      23.943  -0.975  55.262  1.00  0.00     0.184 HD
BRANCH  20  22
HETATM   22  C14 UNL     1      25.547  -0.478  54.017  1.00  0.00     0.049 A 
HETATM   23  C15 UNL     1      26.150  -1.048  52.920  1.00  0.00     0.033 A 
HETATM   24  C16 UNL     1      27.479  -0.997  52.620  1.00  0.00     0.044 A 
HETATM   25  C17 UNL     1      28.327  -0.321  53.470  1.00  0.00     0.116 A 
HETATM   26  F1  UNL     1      29.663  -0.195  53.288  1.00  0.00    -0.206 F 
HETATM   27  C18 UNL     1      27.790   0.272  54.586  1.00  0.00     0.044 A 
HETATM   28  C19 UNL     1      26.439   0.183  54.833  1.00  0.00     0.033 A 
ENDBRANCH  20  22
ENDBRANCH   5  20
TORSDOF 4
ENDMDL
MODEL 9
REMARK VINA RESULT:      -8.0      3.997      7.248
REMARK  4 active torsions:
REMARK  status: ('A' for Active; 'I' for Inactive)
REMARK       I    between atoms: N1_2  and  C2_3 
REMARK    1  A    between atoms: N1_2  and  C10_14 
REMARK    2  A    between atoms: C2_3  and  C3_5 
REMARK    3  A    between atoms: C13_18  and  N3_19 
REMARK    4  A    between atoms: N3_19  and  C14_20 
ROOT
HETATM    1  C10 UNL     1      22.235   4.064  50.128  1.00  0.00     0.152 A 
HETATM    2  C11 UNL     1      21.233   4.865  50.629  1.00  0.00     0.071 A 
HETATM    3  C12 UNL     1      20.271   4.258  51.390  1.00  0.00     0.140 A 
HETATM    4  N2  UNL     1      20.345   2.940  51.610  1.00  0.00    -0.075 NA
HETATM    5  C13 UNL     1      21.298   2.125  51.145  1.00  0.00     0.728 A 
HETATM    6  N4  UNL     1      22.212   2.757  50.409  1.00  0.00    -0.045 NA
ENDROOT
BRANCH   1   7
HETATM    7  N1  UNL     1      23.264   4.636  49.328  1.00  0.00    -0.305 N 
HETATM    8  C1  UNL     1      22.958   4.691  47.919  1.00  0.00     0.161 C 
HETATM    9  C2  UNL     1      24.216   4.927  50.342  1.00  0.00     0.238 C 
HETATM   10  O1  UNL     1      23.513   4.482  51.275  1.00  0.00    -0.272 OA
BRANCH   9  11
HETATM   11  C3  UNL     1      25.491   5.548  49.982  1.00  0.00     0.147 C 
HETATM   12  C4  UNL     1      25.279   6.684  49.049  1.00  0.00     0.017 C 
HETATM   13  C5  UNL     1      26.034   7.348  48.186  1.00  0.00     0.031 C 
HETATM   14 CL1  UNL     1      25.301   8.668  47.278  1.00  0.00    -0.085 Cl
HETATM   15  C6  UNL     1      27.460   7.053  47.935  1.00  0.00     0.023 C 
HETATM   16  C7  UNL     1      28.139   5.925  48.163  1.00  0.00     0.003 C 
HETATM   17  C8  UNL     1      27.562   4.712  48.737  1.00  0.00     0.021 C 
HETATM   18  C9  UNL     1      26.476   4.578  49.479  1.00  0.00     0.028 C 
HETATM   19 CL2  UNL     1      26.117   2.935  49.975  1.00  0.00    -0.088 Cl
ENDBRANCH   9  11
ENDBRANCH   1   7
BRANCH   5  20
HETATM   20  N3  UNL     1      21.406   0.745  51.354  1.00  0.00    -0.188 N 
HETATM   21  H11 UNL     1      21.171   0.114  50.549  1.00  0.00     0.184 HD
BRANCH  20  22
HETATM   22  C14 UNL     1      21.801   0.079  52.542  1.00  0.00     0.049 A 
HETATM   23  C15 UNL     1      20.974  -0.554  53.442  1.00  0.00     0.033 A 
HETATM   24  C16 UNL     1      21.368  -1.189  54.581  1.00  0.00     0.044 A 
HETATM   25  C17 UNL     1      22.710  -1.222  54.895  1.00  0.00     0.116 A 
HETATM   26  F1  UNL     1      23.231  -1.819  55.992  1.00  0.00    -0.206 F 
HETATM   27  C18 UNL     1      23.591  -0.609  54.038  1.00  0.00     0.044 A 
HETATM   28  C19 UNL     1      23.129   0.017  52.903  1.00  0.00     0.033 A 
ENDBRANCH  20  22
ENDBRANCH   5  20
TORSDOF 4
ENDMDL
