MODEL 1
REMARK VINA RESULT:      -8.2      0.000      0.000
REMARK  6 active torsions:
REMARK  status: ('A' for Active; 'I' for Inactive)
REMARK    1  A    between atoms: C1_2  and  C2_3 
REMARK    2  A    between atoms: C1_2  and  C9_12 
REMARK    3  A    between atoms: C2_3  and  C3_4 
REMARK    4  A    between atoms: C6_7  and  O2_8 
REMARK    5  A    between atoms: C7_9  and  O3_10 
REMARK    6  A    between atoms: C12_15  and  O4_16 
ROOT
HETATM    1  O1  UNL     1      24.787   2.635  53.552  1.00  0.00    -0.290 OA
HETATM    2  C1  UNL     1      24.980   1.612  52.843  1.00  0.00     0.186 C 
ENDROOT
BRANCH   2   3
HETATM    3  C2  UNL     1      23.931   1.304  51.845  1.00  0.00     0.124 C 
BRANCH   3   4
HETATM    4  C3  UNL     1      22.729   0.707  52.412  1.00  0.00    -0.048 A 
HETATM    5  C4  UNL     1      21.526   0.837  51.722  1.00  0.00     0.010 A 
HETATM    6  C5  UNL     1      20.341   0.304  52.183  1.00  0.00     0.040 A 
HETATM    7  C6  UNL     1      20.319  -0.385  53.367  1.00  0.00     0.098 A 
HETATM    8  C7  UNL     1      21.505  -0.520  54.059  1.00  0.00     0.099 A 
HETATM    9  C8  UNL     1      22.682   0.013  53.593  1.00  0.00     0.047 A 
BRANCH   7  10
HETATM   10  O2  UNL     1      19.095  -0.915  53.808  1.00  0.00    -0.358 OA
HETATM   11  H5  UNL     1      19.034  -1.027  54.827  1.00  0.00     0.217 HD
ENDBRANCH   7  10
BRANCH   8  12
HETATM   12  O3  UNL     1      21.420  -1.229  55.252  1.00  0.00    -0.358 OA
HETATM   13  H6  UNL     1      20.754  -1.990  55.361  1.00  0.00     0.217 HD
ENDBRANCH   8  12
ENDBRANCH   3   4
ENDBRANCH   2   3
BRANCH   2  14
HETATM   14  C9  UNL     1      26.156   0.754  52.964  1.00  0.00     0.115 C 
HETATM   15  C10 UNL     1      26.030  -0.532  52.677  1.00  0.00     0.043 C 
HETATM   16  C11 UNL     1      26.919  -1.687  52.668  1.00  0.00     0.039 C 
HETATM   17  C12 UNL     1      28.149  -1.892  53.112  1.00  0.00     0.065 C 
HETATM   18  C13 UNL     1      29.136  -1.060  53.795  1.00  0.00     0.034 C 
HETATM   19  C14 UNL     1      29.278   0.256  53.834  1.00  0.00     0.002 C 
HETATM   20  C15 UNL     1      28.658   1.504  53.318  1.00  0.00     0.203 C 
HETATM   21  O5  UNL     1      27.248   1.498  53.384  1.00  0.00    -0.344 OA
BRANCH  17  22
HETATM   22  O4  UNL     1      28.599  -3.185  52.876  1.00  0.00    -0.361 OA
HETATM   23  H10 UNL     1      29.211  -3.360  52.088  1.00  0.00     0.217 HD
ENDBRANCH  17  22
ENDBRANCH   2  14
TORSDOF 6
ENDMDL
MODEL 2
REMARK VINA RESULT:      -7.9      1.228      6.406
REMARK  6 active torsions:
REMARK  status: ('A' for Active; 'I' for Inactive)
REMARK    1  A    between atoms: C1_2  and  C2_3 
REMARK    2  A    between atoms: C1_2  and  C9_12 
REMARK    3  A    between atoms: C2_3  and  C3_4 
REMARK    4  A    between atoms: C6_7  and  O2_8 
REMARK    5  A    between atoms: C7_9  and  O3_10 
REMARK    6  A    between atoms: C12_15  and  O4_16 
ROOT
HETATM    1  O1  UNL     1      25.461   2.565  53.700  1.00  0.00    -0.290 OA
HETATM    2  C1  UNL     1      25.009   1.640  52.975  1.00  0.00     0.186 C 
ENDROOT
BRANCH   2   3
HETATM    3  C2  UNL     1      25.918   1.132  51.924  1.00  0.00     0.124 C 
BRANCH   3   4
HETATM    4  C3  UNL     1      26.756   0.019  52.351  1.00  0.00    -0.048 A 
HETATM    5  C4  UNL     1      26.329  -1.280  52.088  1.00  0.00     0.010 A 
HETATM    6  C5  UNL     1      27.056  -2.393  52.455  1.00  0.00     0.040 A 
HETATM    7  C6  UNL     1      28.252  -2.240  53.106  1.00  0.00     0.098 A 
HETATM    8  C7  UNL     1      28.686  -0.957  53.372  1.00  0.00     0.099 A 
HETATM    9  C8  UNL     1      27.955   0.147  53.002  1.00  0.00     0.047 A 
BRANCH   7  10
HETATM   10  O2  UNL     1      28.969  -3.393  53.466  1.00  0.00    -0.358 OA
HETATM   11  H5  UNL     1      29.498  -3.812  52.692  1.00  0.00     0.217 HD
ENDBRANCH   7  10
BRANCH   8  12
HETATM   12  O3  UNL     1      29.905  -0.865  54.034  1.00  0.00    -0.358 OA
HETATM   13  H6  UNL     1      30.774  -0.772  53.515  1.00  0.00     0.217 HD
ENDBRANCH   8  12
ENDBRANCH   3   4
ENDBRANCH   2   3
BRANCH   2  14
HETATM   14  C9  UNL     1      23.671   1.073  53.130  1.00  0.00     0.115 C 
HETATM   15  C10 UNL     1      23.513   0.045  53.949  1.00  0.00     0.043 C 
HETATM   16  C11 UNL     1      22.392  -0.783  54.373  1.00  0.00     0.039 C 
HETATM   17  C12 UNL     1      21.143  -0.908  53.954  1.00  0.00     0.065 C 
HETATM   18  C13 UNL     1      20.357  -0.276  52.898  1.00  0.00     0.034 C 
HETATM   19  C14 UNL     1      20.508   0.890  52.289  1.00  0.00     0.002 C 
HETATM   20  C15 UNL     1      21.392   2.083  52.274  1.00  0.00     0.203 C 
HETATM   21  O5  UNL     1      22.765   1.764  52.339  1.00  0.00    -0.344 OA
BRANCH  17  22
HETATM   22  O4  UNL     1      20.422  -1.848  54.679  1.00  0.00    -0.361 OA
HETATM   23  H10 UNL     1      20.240  -2.756  54.269  1.00  0.00     0.217 HD
ENDBRANCH  17  22
ENDBRANCH   2  14
TORSDOF 6
ENDMDL
MODEL 3
REMARK VINA RESULT:      -7.9      1.532      6.671
REMARK  6 active torsions:
REMARK  status: ('A' for Active; 'I' for Inactive)
REMARK    1  A    between atoms: C1_2  and  C2_3 
REMARK    2  A    between atoms: C1_2  and  C9_12 
REMARK    3  A    between atoms: C2_3  and  C3_4 
REMARK    4  A    between atoms: C6_7  and  O2_8 
REMARK    5  A    between atoms: C7_9  and  O3_10 
REMARK    6  A    between atoms: C12_15  and  O4_16 
ROOT
HETATM    1  O1  UNL     1      25.999   2.415  54.151  1.00  0.00    -0.290 OA
HETATM    2  C1  UNL     1      25.465   1.768  53.212  1.00  0.00     0.186 C 
ENDROOT
BRANCH   2   3
HETATM    3  C2  UNL     1      26.377   1.284  52.152  1.00  0.00     0.124 C 
BRANCH   3   4
HETATM    4  C3  UNL     1      27.108   0.074  52.505  1.00  0.00    -0.048 A 
HETATM    5  C4  UNL     1      26.525  -1.163  52.239  1.00  0.00     0.010 A 
HETATM    6  C5  UNL     1      27.143  -2.359  52.538  1.00  0.00     0.040 A 
HETATM    7  C6  UNL     1      28.383  -2.357  53.122  1.00  0.00     0.098 A 
HETATM    8  C7  UNL     1      28.970  -1.137  53.390  1.00  0.00     0.099 A 
HETATM    9  C8  UNL     1      28.348   0.050  53.088  1.00  0.00     0.047 A 
BRANCH   7  10
HETATM   10  O2  UNL     1      28.985  -3.591  53.414  1.00  0.00    -0.358 OA
HETATM   11  H5  UNL     1      28.780  -4.327  52.727  1.00  0.00     0.217 HD
ENDBRANCH   7  10
BRANCH   8  12
HETATM   12  O3  UNL     1      30.227  -1.199  53.982  1.00  0.00    -0.358 OA
HETATM   13  H6  UNL     1      31.001  -1.664  53.516  1.00  0.00     0.217 HD
ENDBRANCH   8  12
ENDBRANCH   3   4
ENDBRANCH   2   3
BRANCH   2  14
HETATM   14  C9  UNL     1      24.032   1.489  53.135  1.00  0.00     0.115 C 
HETATM   15  C10 UNL     1      23.242   2.393  52.580  1.00  0.00     0.043 C 
HETATM   16  C11 UNL     1      21.814   2.503  52.315  1.00  0.00     0.039 C 
HETATM   17  C12 UNL     1      20.761   1.796  52.693  1.00  0.00     0.065 C 
HETATM   18  C13 UNL     1      20.578   0.613  53.529  1.00  0.00     0.034 C 
HETATM   19  C14 UNL     1      21.419  -0.358  53.848  1.00  0.00     0.002 C 
HETATM   20  C15 UNL     1      22.818  -0.801  53.618  1.00  0.00     0.203 C 
HETATM   21  O5  UNL     1      23.758   0.249  53.695  1.00  0.00    -0.344 OA
BRANCH  17  22
HETATM   22  O4  UNL     1      19.567   2.289  52.181  1.00  0.00    -0.361 OA
HETATM   23  H10 UNL     1      18.914   1.649  51.746  1.00  0.00     0.217 HD
ENDBRANCH  17  22
ENDBRANCH   2  14
TORSDOF 6
ENDMDL
MODEL 4
REMARK VINA RESULT:      -7.7      3.467      5.655
REMARK  6 active torsions:
REMARK  status: ('A' for Active; 'I' for Inactive)
REMARK    1  A    between atoms: C1_2  and  C2_3 
REMARK    2  A    between atoms: C1_2  and  C9_12 
REMARK    3  A    between atoms: C2_3  and  C3_4 
REMARK    4  A    between atoms: C6_7  and  O2_8 
REMARK    5  A    between atoms: C7_9  and  O3_10 
REMARK    6  A    between atoms: C12_15  and  O4_16 
ROOT
HETATM    1  O1  UNL     1      24.465   3.068  52.999  1.00  0.00    -0.290 OA
HETATM    2  C1  UNL     1      25.156   2.380  52.203  1.00  0.00     0.186 C 
ENDROOT
BRANCH   2   3
HETATM    3  C2  UNL     1      24.782   2.465  50.773  1.00  0.00     0.124 C 
BRANCH   3   4
HETATM    4  C3  UNL     1      25.393   3.583  50.065  1.00  0.00    -0.048 A 
HETATM    5  C4  UNL     1      24.635   4.731  49.845  1.00  0.00     0.010 A 
HETATM    6  C5  UNL     1      25.130   5.836  49.185  1.00  0.00     0.040 A 
HETATM    7  C6  UNL     1      26.418   5.829  48.717  1.00  0.00     0.098 A 
HETATM    8  C7  UNL     1      27.179   4.698  48.930  1.00  0.00     0.099 A 
HETATM    9  C8  UNL     1      26.678   3.600  49.589  1.00  0.00     0.047 A 
BRANCH   7  10
HETATM   10  O2  UNL     1      26.892   6.971  48.050  1.00  0.00    -0.358 OA
HETATM   11  H5  UNL     1      27.810   7.293  48.378  1.00  0.00     0.217 HD
ENDBRANCH   7  10
BRANCH   8  12
HETATM   12  O3  UNL     1      28.476   4.750  48.434  1.00  0.00    -0.358 OA
HETATM   13  H6  UNL     1      29.272   4.533  49.029  1.00  0.00     0.217 HD
ENDBRANCH   8  12
ENDBRANCH   3   4
ENDBRANCH   2   3
BRANCH   2  14
HETATM   14  C9  UNL     1      26.272   1.535  52.623  1.00  0.00     0.115 C 
HETATM   15  C10 UNL     1      26.222   0.242  52.347  1.00  0.00     0.043 C 
HETATM   16  C11 UNL     1      27.091  -0.904  52.580  1.00  0.00     0.039 C 
HETATM   17  C12 UNL     1      28.180  -1.088  53.309  1.00  0.00     0.065 C 
HETATM   18  C13 UNL     1      28.973  -0.231  54.187  1.00  0.00     0.034 C 
HETATM   19  C14 UNL     1      29.097   1.087  54.225  1.00  0.00     0.002 C 
HETATM   20  C15 UNL     1      28.615   2.316  53.544  1.00  0.00     0.203 C 
HETATM   21  O5  UNL     1      27.230   2.299  53.272  1.00  0.00    -0.344 OA
BRANCH  17  22
HETATM   22  O4  UNL     1      28.677  -2.382  53.221  1.00  0.00    -0.361 OA
HETATM   23  H10 UNL     1      28.049  -3.164  53.366  1.00  0.00     0.217 HD
ENDBRANCH  17  22
ENDBRANCH   2  14
TORSDOF 6
ENDMDL
MODEL 5
REMARK VINA RESULT:      -7.6      1.381      2.193
REMARK  6 active torsions:
REMARK  status: ('A' for Active; 'I' for Inactive)
REMARK    1  A    between atoms: C1_2  and  C2_3 
REMARK    2  A    between atoms: C1_2  and  C9_12 
REMARK    3  A    between atoms: C2_3  and  C3_4 
REMARK    4  A    between atoms: C6_7  and  O2_8 
REMARK    5  A    between atoms: C7_9  and  O3_10 
REMARK    6  A    between atoms: C12_15  and  O4_16 
ROOT
HETATM    1  O1  UNL     1      23.599   2.913  52.867  1.00  0.00    -0.290 OA
HETATM    2  C1  UNL     1      24.095   1.825  52.474  1.00  0.00     0.186 C 
ENDROOT
BRANCH   2   3
HETATM    3  C2  UNL     1      23.242   1.002  51.588  1.00  0.00     0.124 C 
BRANCH   3   4
HETATM    4  C3  UNL     1      22.068   0.443  52.246  1.00  0.00    -0.048 A 
HETATM    5  C4  UNL     1      20.807   0.753  51.744  1.00  0.00     0.010 A 
HETATM    6  C5  UNL     1      19.642   0.270  52.302  1.00  0.00     0.040 A 
HETATM    7  C6  UNL     1      19.702  -0.551  53.398  1.00  0.00     0.098 A 
HETATM    8  C7  UNL     1      20.946  -0.865  53.904  1.00  0.00     0.099 A 
HETATM    9  C8  UNL     1      22.102  -0.380  53.342  1.00  0.00     0.047 A 
BRANCH   7  10
HETATM   10  O2  UNL     1      18.497  -1.026  53.942  1.00  0.00    -0.358 OA
HETATM   11  H5  UNL     1      17.737  -1.112  53.257  1.00  0.00     0.217 HD
ENDBRANCH   7  10
BRANCH   8  12
HETATM   12  O3  UNL     1      20.943  -1.701  55.015  1.00  0.00    -0.358 OA
HETATM   13  H6  UNL     1      20.209  -2.393  55.146  1.00  0.00     0.217 HD
ENDBRANCH   8  12
ENDBRANCH   3   4
ENDBRANCH   2   3
BRANCH   2  14
HETATM   14  C9  UNL     1      25.431   1.364  52.845  1.00  0.00     0.115 C 
HETATM   15  C10 UNL     1      26.314   2.259  53.260  1.00  0.00     0.043 C 
HETATM   16  C11 UNL     1      27.700   2.221  53.708  1.00  0.00     0.039 C 
HETATM   17  C12 UNL     1      28.634   1.284  53.700  1.00  0.00     0.065 C 
HETATM   18  C13 UNL     1      28.679  -0.103  53.244  1.00  0.00     0.034 C 
HETATM   19  C14 UNL     1      27.708  -0.985  53.063  1.00  0.00     0.002 C 
HETATM   20  C15 UNL     1      26.233  -1.125  53.178  1.00  0.00     0.203 C 
HETATM   21  O5  UNL     1      25.525  -0.010  52.682  1.00  0.00    -0.344 OA
BRANCH  17  22
HETATM   22  O4  UNL     1      29.837   1.715  54.245  1.00  0.00    -0.361 OA
HETATM   23  H10 UNL     1      29.950   2.693  54.482  1.00  0.00     0.217 HD
ENDBRANCH  17  22
ENDBRANCH   2  14
TORSDOF 6
ENDMDL
MODEL 6
REMARK VINA RESULT:      -7.5      2.099      2.875
REMARK  6 active torsions:
REMARK  status: ('A' for Active; 'I' for Inactive)
REMARK    1  A    between atoms: C1_2  and  C2_3 
REMARK    2  A    between atoms: C1_2  and  C9_12 
REMARK    3  A    between atoms: C2_3  and  C3_4 
REMARK    4  A    between atoms: C6_7  and  O2_8 
REMARK    5  A    between atoms: C7_9  and  O3_10 
REMARK    6  A    between atoms: C12_15  and  O4_16 
ROOT
HETATM    1  O1  UNL     1      24.932   2.700  53.404  1.00  0.00    -0.290 OA
HETATM    2  C1  UNL     1      24.898   1.448  53.274  1.00  0.00     0.186 C 
ENDROOT
BRANCH   2   3
HETATM    3  C2  UNL     1      23.553   0.838  53.180  1.00  0.00     0.124 C 
BRANCH   3   4
HETATM    4  C3  UNL     1      22.885   1.066  51.905  1.00  0.00    -0.048 A 
HETATM    5  C4  UNL     1      21.658   0.450  51.671  1.00  0.00     0.010 A 
HETATM    6  C5  UNL     1      20.956   0.608  50.495  1.00  0.00     0.040 A 
HETATM    7  C6  UNL     1      21.466   1.399  49.499  1.00  0.00     0.098 A 
HETATM    8  C7  UNL     1      22.682   2.014  49.719  1.00  0.00     0.099 A 
HETATM    9  C8  UNL     1      23.375   1.852  50.894  1.00  0.00     0.047 A 
BRANCH   7  10
HETATM   10  O2  UNL     1      20.726   1.540  48.314  1.00  0.00    -0.358 OA
HETATM   11  H5  UNL     1      21.249   1.292  47.465  1.00  0.00     0.217 HD
ENDBRANCH   7  10
BRANCH   8  12
HETATM   12  O3  UNL     1      23.148   2.804  48.674  1.00  0.00    -0.358 OA
HETATM   13  H6  UNL     1      22.501   3.312  48.075  1.00  0.00     0.217 HD
ENDBRANCH   8  12
ENDBRANCH   3   4
ENDBRANCH   2   3
BRANCH   2  14
HETATM   14  C9  UNL     1      26.093   0.609  53.214  1.00  0.00     0.115 C 
HETATM   15  C10 UNL     1      25.953  -0.665  52.883  1.00  0.00     0.043 C 
HETATM   16  C11 UNL     1      26.851  -1.799  52.713  1.00  0.00     0.039 C 
HETATM   17  C12 UNL     1      28.128  -1.999  52.997  1.00  0.00     0.065 C 
HETATM   18  C13 UNL     1      29.177  -1.179  53.596  1.00  0.00     0.034 C 
HETATM   19  C14 UNL     1      29.303   0.136  53.680  1.00  0.00     0.002 C 
HETATM   20  C15 UNL     1      28.608   1.393  53.302  1.00  0.00     0.203 C 
HETATM   21  O5  UNL     1      27.216   1.356  53.535  1.00  0.00    -0.344 OA
BRANCH  17  22
HETATM   22  O4  UNL     1      28.566  -3.271  52.649  1.00  0.00    -0.361 OA
HETATM   23  H10 UNL     1      28.390  -4.045  53.278  1.00  0.00     0.217 HD
ENDBRANCH  17  22
ENDBRANCH   2  14
TORSDOF 6
ENDMDL
MODEL 7
REMARK VINA RESULT:      -7.5      3.307      5.210
REMARK  6 active torsions:
REMARK  status: ('A' for Active; 'I' for Inactive)
REMARK    1  A    between atoms: C1_2  and  C2_3 
REMARK    2  A    between atoms: C1_2  and  C9_12 
REMARK    3  A    between atoms: C2_3  and  C3_4 
REMARK    4  A    between atoms: C6_7  and  O2_8 
REMARK    5  A    between atoms: C7_9  and  O3_10 
REMARK    6  A    between atoms: C12_15  and  O4_16 
ROOT
HETATM    1  O1  UNL     1      22.288   3.236  52.360  1.00  0.00    -0.290 OA
HETATM    2  C1  UNL     1      22.957   2.706  51.433  1.00  0.00     0.186 C 
ENDROOT
BRANCH   2   3
HETATM    3  C2  UNL     1      22.727   1.262  51.208  1.00  0.00     0.124 C 
BRANCH   3   4
HETATM    4  C3  UNL     1      22.782   0.456  52.421  1.00  0.00    -0.048 A 
HETATM    5  C4  UNL     1      24.019   0.220  53.014  1.00  0.00     0.010 A 
HETATM    6  C5  UNL     1      24.166  -0.530  54.163  1.00  0.00     0.040 A 
HETATM    7  C6  UNL     1      23.062  -1.077  54.763  1.00  0.00     0.098 A 
HETATM    8  C7  UNL     1      21.830  -0.849  54.185  1.00  0.00     0.099 A 
HETATM    9  C8  UNL     1      21.692  -0.100  53.041  1.00  0.00     0.047 A 
BRANCH   7  10
HETATM   10  O2  UNL     1      23.245  -1.835  55.931  1.00  0.00    -0.358 OA
HETATM   11  H5  UNL     1      23.202  -1.283  56.796  1.00  0.00     0.217 HD
ENDBRANCH   7  10
BRANCH   8  12
HETATM   12  O3  UNL     1      20.749  -1.428  54.839  1.00  0.00    -0.358 OA
HETATM   13  H6  UNL     1      19.800  -1.103  54.670  1.00  0.00     0.217 HD
ENDBRANCH   8  12
ENDBRANCH   3   4
ENDBRANCH   2   3
BRANCH   2  14
HETATM   14  C9  UNL     1      23.912   3.438  50.605  1.00  0.00     0.115 C 
HETATM   15  C10 UNL     1      25.158   2.995  50.538  1.00  0.00     0.043 C 
HETATM   16  C11 UNL     1      26.374   3.414  49.854  1.00  0.00     0.039 C 
HETATM   17  C12 UNL     1      26.710   4.501  49.179  1.00  0.00     0.065 C 
HETATM   18  C13 UNL     1      26.014   5.737  48.830  1.00  0.00     0.034 C 
HETATM   19  C14 UNL     1      24.721   6.001  48.728  1.00  0.00     0.002 C 
HETATM   20  C15 UNL     1      23.392   5.354  48.871  1.00  0.00     0.203 C 
HETATM   21  O5  UNL     1      23.292   4.526  50.009  1.00  0.00    -0.344 OA
BRANCH  17  22
HETATM   22  O4  UNL     1      28.012   4.456  48.696  1.00  0.00    -0.361 OA
HETATM   23  H10 UNL     1      28.734   4.022  49.259  1.00  0.00     0.217 HD
ENDBRANCH  17  22
ENDBRANCH   2  14
TORSDOF 6
ENDMDL
MODEL 8
REMARK VINA RESULT:      -7.5      2.046      7.535
REMARK  6 active torsions:
REMARK  status: ('A' for Active; 'I' for Inactive)
REMARK    1  A    between atoms: C1_2  and  C2_3 
REMARK    2  A    between atoms: C1_2  and  C9_12 
REMARK    3  A    between atoms: C2_3  and  C3_4 
REMARK    4  A    between atoms: C6_7  and  O2_8 
REMARK    5  A    between atoms: C7_9  and  O3_10 
REMARK    6  A    between atoms: C12_15  and  O4_16 
ROOT
HETATM    1  O1  UNL     1      21.561  -0.136  55.012  1.00  0.00    -0.290 OA
HETATM    2  C1  UNL     1      21.556  -0.432  53.788  1.00  0.00     0.186 C 
ENDROOT
BRANCH   2   3
HETATM    3  C2  UNL     1      22.823  -0.964  53.241  1.00  0.00     0.124 C 
BRANCH   3   4
HETATM    4  C3  UNL     1      23.981  -0.116  53.492  1.00  0.00    -0.048 A 
HETATM    5  C4  UNL     1      23.969   1.193  53.017  1.00  0.00     0.010 A 
HETATM    6  C5  UNL     1      25.020   2.066  53.208  1.00  0.00     0.040 A 
HETATM    7  C6  UNL     1      26.133   1.652  53.891  1.00  0.00     0.098 A 
HETATM    8  C7  UNL     1      26.156   0.357  54.367  1.00  0.00     0.099 A 
HETATM    9  C8  UNL     1      25.105  -0.507  54.173  1.00  0.00     0.047 A 
BRANCH   7  10
HETATM   10  O2  UNL     1      27.185   2.565  54.069  1.00  0.00    -0.358 OA
HETATM   11  H5  UNL     1      28.090   2.123  54.269  1.00  0.00     0.217 HD
ENDBRANCH   7  10
BRANCH   8  12
HETATM   12  O3  UNL     1      27.311  -0.005  55.052  1.00  0.00    -0.358 OA
HETATM   13  H6  UNL     1      28.108  -0.399  54.559  1.00  0.00     0.217 HD
ENDBRANCH   8  12
ENDBRANCH   3   4
ENDBRANCH   2   3
BRANCH   2  14
HETATM   14  C9  UNL     1      20.389  -0.274  52.923  1.00  0.00     0.115 C 
HETATM   15  C10 UNL     1      20.545   0.335  51.758  1.00  0.00     0.043 C 
HETATM   16  C11 UNL     1      19.674   0.683  50.643  1.00  0.00     0.039 C 
HETATM   17  C12 UNL     1      18.362   0.661  50.470  1.00  0.00     0.065 C 
HETATM   18  C13 UNL     1      17.232   0.281  51.314  1.00  0.00     0.034 C 
HETATM   19  C14 UNL     1      17.169  -0.528  52.360  1.00  0.00     0.002 C 
HETATM   20  C15 UNL     1      18.024  -1.406  53.200  1.00  0.00     0.203 C 
HETATM   21  O5  UNL     1      19.269  -0.828  53.526  1.00  0.00    -0.344 OA
BRANCH  17  22
HETATM   22  O4  UNL     1      17.976   1.095  49.209  1.00  0.00    -0.361 OA
HETATM   23  H10 UNL     1      17.413   1.933  49.125  1.00  0.00     0.217 HD
ENDBRANCH  17  22
ENDBRANCH   2  14
TORSDOF 6
ENDMDL
MODEL 9
REMARK VINA RESULT:      -7.4      2.457      6.628
REMARK  6 active torsions:
REMARK  status: ('A' for Active; 'I' for Inactive)
REMARK    1  A    between atoms: C1_2  and  C2_3 
REMARK    2  A    between atoms: C1_2  and  C9_12 
REMARK    3  A    between atoms: C2_3  and  C3_4 
REMARK    4  A    between atoms: C6_7  and  O2_8 
REMARK    5  A    between atoms: C7_9  and  O3_10 
REMARK    6  A    between atoms: C12_15  and  O4_16 
ROOT
HETATM    1  O1  UNL     1      27.164   2.808  51.168  1.00  0.00    -0.290 OA
HETATM    2  C1  UNL     1      26.109   2.335  51.666  1.00  0.00     0.186 C 
ENDROOT
BRANCH   2   3
HETATM    3  C2  UNL     1      26.235   1.733  53.012  1.00  0.00     0.124 C 
BRANCH   3   4
HETATM    4  C3  UNL     1      26.932   0.454  53.027  1.00  0.00    -0.048 A 
HETATM    5  C4  UNL     1      26.259  -0.682  52.585  1.00  0.00     0.010 A 
HETATM    6  C5  UNL     1      26.839  -1.933  52.563  1.00  0.00     0.040 A 
HETATM    7  C6  UNL     1      28.132  -2.091  52.991  1.00  0.00     0.098 A 
HETATM    8  C7  UNL     1      28.809  -0.972  53.431  1.00  0.00     0.099 A 
HETATM    9  C8  UNL     1      28.224   0.271  53.448  1.00  0.00     0.047 A 
BRANCH   7  10
HETATM   10  O2  UNL     1      28.693  -3.377  52.956  1.00  0.00    -0.358 OA
HETATM   11  H5  UNL     1      29.549  -3.442  52.393  1.00  0.00     0.217 HD
ENDBRANCH   7  10
BRANCH   8  12
HETATM   12  O3  UNL     1      30.116  -1.194  53.852  1.00  0.00    -0.358 OA
HETATM   13  H6  UNL     1      30.752  -1.764  53.299  1.00  0.00     0.217 HD
ENDBRANCH   8  12
ENDBRANCH   3   4
ENDBRANCH   2   3
BRANCH   2  14
HETATM   14  C9  UNL     1      24.814   2.359  50.988  1.00  0.00     0.115 C 
HETATM   15  C10 UNL     1      23.837   1.606  51.467  1.00  0.00     0.043 C 
HETATM   16  C11 UNL     1      22.450   1.349  51.104  1.00  0.00     0.039 C 
HETATM   17  C12 UNL     1      21.713   1.658  50.049  1.00  0.00     0.065 C 
HETATM   18  C13 UNL     1      21.968   2.382  48.807  1.00  0.00     0.034 C 
HETATM   19  C14 UNL     1      22.880   3.295  48.511  1.00  0.00     0.002 C 
HETATM   20  C15 UNL     1      24.016   4.036  49.117  1.00  0.00     0.203 C 
HETATM   21  O5  UNL     1      24.860   3.223  49.903  1.00  0.00    -0.344 OA
BRANCH  17  22
HETATM   22  O4  UNL     1      20.409   1.189  50.146  1.00  0.00    -0.361 OA
HETATM   23  H10 UNL     1      19.945   1.199  51.047  1.00  0.00     0.217 HD
ENDBRANCH  17  22
ENDBRANCH   2  14
TORSDOF 6
ENDMDL
