MODEL 1
REMARK VINA RESULT:      -7.4      0.000      0.000
REMARK  1 active torsions:
REMARK  status: ('A' for Active; 'I' for Inactive)
REMARK    1  A    between atoms: O1_2  and  N1_3 
ROOT
HETATM    1  N1  UNL     1      21.367   1.071  52.574  1.00  0.00    -0.123 NA
HETATM    2  S1  UNL     1      22.273   0.322  53.824  1.00  0.00    -0.022 SA
HETATM    3  C2  UNL     1      23.900  -0.165  53.206  1.00  0.00     0.116 C 
HETATM    4  C3  UNL     1      24.638   0.474  52.309  1.00  0.00     0.157 C 
HETATM    5  N2  UNL     1      26.055   0.419  52.293  1.00  0.00    -0.227 NA
HETATM    6  C4  UNL     1      26.827   1.469  52.339  1.00  0.00     0.085 C 
HETATM    7  C5  UNL     1      26.643   2.460  51.515  1.00  0.00     0.022 C 
HETATM    8  C6  UNL     1      25.430   2.961  50.782  1.00  0.00     0.083 C 
HETATM    9  C7  UNL     1      25.640   4.289  50.259  1.00  0.00     0.012 C 
HETATM   10  C8  UNL     1      25.251   5.476  49.754  1.00  0.00     0.131 C 
HETATM   11  O2  UNL     1      24.049   6.198  49.386  1.00  0.00    -0.363 OA
HETATM   12  C9  UNL     1      23.510   6.833  50.605  1.00  0.00     0.180 C 
HETATM   13  C10 UNL     1      22.724   5.713  51.222  1.00  0.00     0.025 C 
HETATM   14  C11 UNL     1      22.470   4.489  50.821  1.00  0.00     0.029 C 
HETATM   15  C12 UNL     1      22.424   3.249  49.999  1.00  0.00    -0.075 C 
HETATM   16  C13 UNL     1      22.811   2.804  48.602  1.00  0.00     0.044 C 
HETATM   17  C14 UNL     1      21.869   2.171  50.551  1.00  0.00    -0.060 C 
HETATM   18  C15 UNL     1      21.633   0.819  50.028  1.00  0.00     0.045 C 
HETATM   19  C16 UNL     1      21.740   2.348  52.070  1.00  0.00     0.133 C 
HETATM   20  C17 UNL     1      23.048   2.859  52.580  1.00  0.00     0.083 C 
HETATM   21  C18 UNL     1      24.212   2.685  51.613  1.00  0.00     0.028 C 
HETATM   22  N3  UNL     1      24.122   1.365  51.235  1.00  0.00    -0.237 NA
ENDROOT
BRANCH   1  23
HETATM   23  O1  UNL     1      20.058   1.105  52.909  1.00  0.00    -0.297 OA
HETATM   24  C1  UNL     1      19.467  -0.150  52.902  1.00  0.00     0.231 C 
ENDBRANCH   1  23
TORSDOF 1
ENDMDL
MODEL 2
REMARK VINA RESULT:      -7.1      2.396      4.975
REMARK  1 active torsions:
REMARK  status: ('A' for Active; 'I' for Inactive)
REMARK    1  A    between atoms: O1_2  and  N1_3 
ROOT
HETATM    1  N1  UNL     1      25.567   1.056  52.573  1.00  0.00    -0.123 NA
HETATM    2  S1  UNL     1      25.739  -0.492  53.295  1.00  0.00    -0.022 SA
HETATM    3  C2  UNL     1      24.413  -0.771  54.490  1.00  0.00     0.116 C 
HETATM    4  C3  UNL     1      23.159  -0.347  54.406  1.00  0.00     0.157 C 
HETATM    5  N2  UNL     1      22.069  -1.037  54.995  1.00  0.00    -0.227 NA
HETATM    6  C4  UNL     1      21.020  -1.443  54.335  1.00  0.00     0.085 C 
HETATM    7  C5  UNL     1      20.362  -0.619  53.571  1.00  0.00     0.022 C 
HETATM    8  C6  UNL     1      20.767   0.627  52.834  1.00  0.00     0.083 C 
HETATM    9  C7  UNL     1      19.784   0.999  51.846  1.00  0.00     0.012 C 
HETATM   10  C8  UNL     1      19.340   1.651  50.754  1.00  0.00     0.131 C 
HETATM   11  O2  UNL     1      19.797   2.578  49.739  1.00  0.00    -0.363 OA
HETATM   12  C9  UNL     1      20.471   1.799  48.681  1.00  0.00     0.180 C 
HETATM   13  C10 UNL     1      21.853   1.634  49.243  1.00  0.00     0.025 C 
HETATM   14  C11 UNL     1      22.419   2.087  50.337  1.00  0.00     0.029 C 
HETATM   15  C12 UNL     1      22.645   2.803  51.622  1.00  0.00    -0.075 C 
HETATM   16  C13 UNL     1      21.928   3.816  52.493  1.00  0.00     0.044 C 
HETATM   17  C14 UNL     1      23.800   2.581  52.250  1.00  0.00    -0.060 C 
HETATM   18  C15 UNL     1      24.355   3.130  53.494  1.00  0.00     0.045 C 
HETATM   19  C16 UNL     1      24.488   1.330  51.688  1.00  0.00     0.133 C 
HETATM   20  C17 UNL     1      23.461   0.246  51.605  1.00  0.00     0.083 C 
HETATM   21  C18 UNL     1      22.206   0.505  52.427  1.00  0.00     0.028 C 
HETATM   22  N3  UNL     1      22.697   0.856  53.664  1.00  0.00    -0.237 NA
ENDROOT
BRANCH   1  23
HETATM   23  O1  UNL     1      26.721   1.414  51.969  1.00  0.00    -0.297 OA
HETATM   24  C1  UNL     1      27.717   1.763  52.872  1.00  0.00     0.231 C 
ENDBRANCH   1  23
TORSDOF 1
ENDMDL
MODEL 3
REMARK VINA RESULT:      -7.1      1.988      4.944
REMARK  1 active torsions:
REMARK  status: ('A' for Active; 'I' for Inactive)
REMARK    1  A    between atoms: O1_2  and  N1_3 
ROOT
HETATM    1  N1  UNL     1      24.992   4.182  49.988  1.00  0.00    -0.123 NA
HETATM    2  S1  UNL     1      26.396   3.203  50.112  1.00  0.00    -0.022 SA
HETATM    3  C2  UNL     1      26.455   2.402  51.730  1.00  0.00     0.116 C 
HETATM    4  C3  UNL     1      25.426   1.968  52.445  1.00  0.00     0.157 C 
HETATM    5  N2  UNL     1      25.517   0.881  53.350  1.00  0.00    -0.227 NA
HETATM    6  C4  UNL     1      24.761  -0.181  53.295  1.00  0.00     0.085 C 
HETATM    7  C5  UNL     1      23.466  -0.065  53.231  1.00  0.00     0.022 C 
HETATM    8  C6  UNL     1      22.567   1.021  52.711  1.00  0.00     0.083 C 
HETATM    9  C7  UNL     1      21.214   0.550  52.539  1.00  0.00     0.012 C 
HETATM   10  C8  UNL     1      19.958   0.601  52.055  1.00  0.00     0.131 C 
HETATM   11  O2  UNL     1      19.116   1.420  51.207  1.00  0.00    -0.363 OA
HETATM   12  C9  UNL     1      19.363   1.027  49.805  1.00  0.00     0.180 C 
HETATM   13  C10 UNL     1      20.589   1.824  49.466  1.00  0.00     0.025 C 
HETATM   14  C11 UNL     1      21.279   2.711  50.145  1.00  0.00     0.029 C 
HETATM   15  C12 UNL     1      21.727   3.632  51.224  1.00  0.00    -0.075 C 
HETATM   16  C13 UNL     1      21.214   4.149  52.555  1.00  0.00     0.044 C 
HETATM   17  C14 UNL     1      22.889   4.260  51.048  1.00  0.00    -0.060 C 
HETATM   18  C15 UNL     1      23.603   5.240  51.877  1.00  0.00     0.045 C 
HETATM   19  C16 UNL     1      23.698   3.594  49.927  1.00  0.00     0.133 C 
HETATM   20  C17 UNL     1      23.674   2.118  50.165  1.00  0.00     0.083 C 
HETATM   21  C18 UNL     1      23.252   1.715  51.572  1.00  0.00     0.028 C 
HETATM   22  N3  UNL     1      24.038   2.501  52.382  1.00  0.00    -0.237 NA
ENDROOT
BRANCH   1  23
HETATM   23  O1  UNL     1      25.121   5.046  48.957  1.00  0.00    -0.297 OA
HETATM   24  C1  UNL     1      26.301   5.776  49.010  1.00  0.00     0.231 C 
ENDBRANCH   1  23
TORSDOF 1
ENDMDL
MODEL 4
REMARK VINA RESULT:      -7.0      2.058      3.071
REMARK  1 active torsions:
REMARK  status: ('A' for Active; 'I' for Inactive)
REMARK    1  A    between atoms: O1_2  and  N1_3 
ROOT
HETATM    1  N1  UNL     1      23.562   2.238  52.010  1.00  0.00    -0.123 NA
HETATM    2  S1  UNL     1      25.213   2.165  52.473  1.00  0.00    -0.022 SA
HETATM    3  C2  UNL     1      26.274   2.429  51.034  1.00  0.00     0.116 C 
HETATM    4  C3  UNL     1      26.035   3.223  50.000  1.00  0.00     0.157 C 
HETATM    5  N2  UNL     1      27.064   3.840  49.245  1.00  0.00    -0.227 NA
HETATM    6  C4  UNL     1      27.157   5.127  49.051  1.00  0.00     0.085 C 
HETATM    7  C5  UNL     1      26.135   5.803  48.611  1.00  0.00     0.022 C 
HETATM    8  C6  UNL     1      24.652   5.579  48.703  1.00  0.00     0.083 C 
HETATM    9  C7  UNL     1      23.916   6.773  48.366  1.00  0.00     0.012 C 
HETATM   10  C8  UNL     1      22.826   7.564  48.332  1.00  0.00     0.131 C 
HETATM   11  O2  UNL     1      21.441   7.584  48.759  1.00  0.00    -0.363 OA
HETATM   12  C9  UNL     1      21.406   8.036  50.165  1.00  0.00     0.180 C 
HETATM   13  C10 UNL     1      21.685   6.764  50.912  1.00  0.00     0.025 C 
HETATM   14  C11 UNL     1      21.855   5.526  50.511  1.00  0.00     0.029 C 
HETATM   15  C12 UNL     1      21.959   4.319  49.646  1.00  0.00    -0.075 C 
HETATM   16  C13 UNL     1      21.703   3.939  48.200  1.00  0.00     0.044 C 
HETATM   17  C14 UNL     1      22.349   3.184  50.225  1.00  0.00    -0.060 C 
HETATM   18  C15 UNL     1      22.526   1.828  49.692  1.00  0.00     0.045 C 
HETATM   19  C16 UNL     1      22.976   3.466  51.597  1.00  0.00     0.133 C 
HETATM   20  C17 UNL     1      23.945   4.592  51.431  1.00  0.00     0.083 C 
HETATM   21  C18 UNL     1      24.347   4.868  49.988  1.00  0.00     0.028 C 
HETATM   22  N3  UNL     1      24.690   3.625  49.506  1.00  0.00    -0.237 NA
ENDROOT
BRANCH   1  23
HETATM   23  O1  UNL     1      22.788   1.694  52.975  1.00  0.00    -0.297 OA
HETATM   24  C1  UNL     1      23.019   0.336  53.151  1.00  0.00     0.231 C 
ENDBRANCH   1  23
TORSDOF 1
ENDMDL
MODEL 5
REMARK VINA RESULT:      -6.9      2.415      5.089
REMARK  1 active torsions:
REMARK  status: ('A' for Active; 'I' for Inactive)
REMARK    1  A    between atoms: O1_2  and  N1_3 
ROOT
HETATM    1  N1  UNL     1      23.642   4.600  51.603  1.00  0.00    -0.123 NA
HETATM    2  S1  UNL     1      22.106   4.465  52.356  1.00  0.00    -0.022 SA
HETATM    3  C2  UNL     1      21.437   2.805  52.112  1.00  0.00     0.116 C 
HETATM    4  C3  UNL     1      22.119   1.668  52.062  1.00  0.00     0.157 C 
HETATM    5  N2  UNL     1      21.571   0.421  52.456  1.00  0.00    -0.227 NA
HETATM    6  C4  UNL     1      22.101  -0.357  53.358  1.00  0.00     0.085 C 
HETATM    7  C5  UNL     1      23.359  -0.688  53.287  1.00  0.00     0.022 C 
HETATM    8  C6  UNL     1      24.554  -0.017  52.672  1.00  0.00     0.083 C 
HETATM    9  C7  UNL     1      25.787  -0.594  53.148  1.00  0.00     0.012 C 
HETATM   10  C8  UNL     1      27.116  -0.621  53.366  1.00  0.00     0.131 C 
HETATM   11  O2  UNL     1      28.303   0.184  53.156  1.00  0.00    -0.363 OA
HETATM   12  C9  UNL     1      28.401   1.149  54.270  1.00  0.00     0.180 C 
HETATM   13  C10 UNL     1      27.494   2.253  53.810  1.00  0.00     0.025 C 
HETATM   14  C11 UNL     1      26.814   2.431  52.702  1.00  0.00     0.029 C 
HETATM   15  C12 UNL     1      26.253   2.233  51.337  1.00  0.00    -0.075 C 
HETATM   16  C13 UNL     1      26.449   1.298  50.159  1.00  0.00     0.044 C 
HETATM   17  C14 UNL     1      25.327   3.100  50.925  1.00  0.00    -0.060 C 
HETATM   18  C15 UNL     1      24.600   3.219  49.656  1.00  0.00     0.045 C 
HETATM   19  C16 UNL     1      24.766   3.894  52.112  1.00  0.00     0.133 C 
HETATM   20  C17 UNL     1      24.448   2.920  53.201  1.00  0.00     0.083 C 
HETATM   21  C18 UNL     1      24.365   1.470  52.743  1.00  0.00     0.028 C 
HETATM   22  N3  UNL     1      23.539   1.525  51.644  1.00  0.00    -0.237 NA
ENDROOT
BRANCH   1  23
HETATM   23  O1  UNL     1      23.977   5.902  51.466  1.00  0.00    -0.297 OA
HETATM   24  C1  UNL     1      23.009   6.641  50.799  1.00  0.00     0.231 C 
ENDBRANCH   1  23
TORSDOF 1
ENDMDL
MODEL 6
REMARK VINA RESULT:      -6.9      2.704      4.681
REMARK  1 active torsions:
REMARK  status: ('A' for Active; 'I' for Inactive)
REMARK    1  A    between atoms: O1_2  and  N1_3 
ROOT
HETATM    1  N1  UNL     1      22.585   1.995  50.820  1.00  0.00    -0.123 NA
HETATM    2  S1  UNL     1      21.490   1.405  49.637  1.00  0.00    -0.022 SA
HETATM    3  C2  UNL     1      20.579   2.777  48.894  1.00  0.00     0.116 C 
HETATM    4  C3  UNL     1      21.032   3.999  48.652  1.00  0.00     0.157 C 
HETATM    5  N2  UNL     1      20.545   4.809  47.596  1.00  0.00    -0.227 NA
HETATM    6  C4  UNL     1      21.297   5.327  46.665  1.00  0.00     0.085 C 
HETATM    7  C5  UNL     1      22.362   6.007  46.980  1.00  0.00     0.022 C 
HETATM    8  C6  UNL     1      23.273   5.973  48.175  1.00  0.00     0.083 C 
HETATM    9  C7  UNL     1      24.510   6.668  47.916  1.00  0.00     0.012 C 
HETATM   10  C8  UNL     1      25.797   6.993  48.147  1.00  0.00     0.131 C 
HETATM   11  O2  UNL     1      26.883   6.693  49.059  1.00  0.00    -0.363 OA
HETATM   12  C9  UNL     1      27.549   5.464  48.583  1.00  0.00     0.180 C 
HETATM   13  C10 UNL     1      26.678   4.389  49.166  1.00  0.00     0.025 C 
HETATM   14  C11 UNL     1      25.631   4.434  49.956  1.00  0.00     0.029 C 
HETATM   15  C12 UNL     1      24.539   4.940  50.832  1.00  0.00    -0.075 C 
HETATM   16  C13 UNL     1      24.116   6.250  51.469  1.00  0.00     0.044 C 
HETATM   17  C14 UNL     1      23.642   4.053  51.264  1.00  0.00    -0.060 C 
HETATM   18  C15 UNL     1      22.479   4.195  52.148  1.00  0.00     0.045 C 
HETATM   19  C16 UNL     1      23.722   2.761  50.441  1.00  0.00     0.133 C 
HETATM   20  C17 UNL     1      23.760   3.144  48.996  1.00  0.00     0.083 C 
HETATM   21  C18 UNL     1      23.317   4.573  48.713  1.00  0.00     0.028 C 
HETATM   22  N3  UNL     1      22.126   4.683  49.394  1.00  0.00    -0.237 NA
ENDROOT
BRANCH   1  23
HETATM   23  O1  UNL     1      22.994   0.983  51.617  1.00  0.00    -0.297 OA
HETATM   24  C1  UNL     1      21.938   0.302  52.207  1.00  0.00     0.231 C 
ENDBRANCH   1  23
TORSDOF 1
ENDMDL
MODEL 7
REMARK VINA RESULT:      -6.9      7.748     10.823
REMARK  1 active torsions:
REMARK  status: ('A' for Active; 'I' for Inactive)
REMARK    1  A    between atoms: O1_2  and  N1_3 
ROOT
HETATM    1  N1  UNL     1      29.954  10.795  47.793  1.00  0.00    -0.123 NA
HETATM    2  S1  UNL     1      28.527  10.800  48.746  1.00  0.00    -0.022 SA
HETATM    3  C2  UNL     1      27.449   9.436  48.257  1.00  0.00     0.116 C 
HETATM    4  C3  UNL     1      27.820   8.232  47.842  1.00  0.00     0.157 C 
HETATM    5  N2  UNL     1      27.031   7.071  48.037  1.00  0.00    -0.227 NA
HETATM    6  C4  UNL     1      27.453   5.995  48.642  1.00  0.00     0.085 C 
HETATM    7  C5  UNL     1      28.574   5.435  48.288  1.00  0.00     0.022 C 
HETATM    8  C6  UNL     1      29.820   5.974  47.644  1.00  0.00     0.083 C 
HETATM    9  C7  UNL     1      30.919   5.047  47.765  1.00  0.00     0.012 C 
HETATM   10  C8  UNL     1      32.217   4.686  47.744  1.00  0.00     0.131 C 
HETATM   11  O2  UNL     1      33.534   5.249  47.520  1.00  0.00    -0.363 OA
HETATM   12  C9  UNL     1      33.991   5.856  48.786  1.00  0.00     0.180 C 
HETATM   13  C10 UNL     1      33.336   7.206  48.743  1.00  0.00     0.025 C 
HETATM   14  C11 UNL     1      32.600   7.800  47.832  1.00  0.00     0.029 C 
HETATM   15  C12 UNL     1      31.857   8.079  46.573  1.00  0.00    -0.075 C 
HETATM   16  C13 UNL     1      31.684   7.455  45.201  1.00  0.00     0.044 C 
HETATM   17  C14 UNL     1      31.133   9.196  46.526  1.00  0.00    -0.060 C 
HETATM   18  C15 UNL     1      30.319   9.786  45.455  1.00  0.00     0.045 C 
HETATM   19  C16 UNL     1      30.921   9.762  47.936  1.00  0.00     0.133 C 
HETATM   20  C17 UNL     1      30.498   8.633  48.820  1.00  0.00     0.083 C 
HETATM   21  C18 UNL     1      30.011   7.398  48.073  1.00  0.00     0.028 C 
HETATM   22  N3  UNL     1      29.106   7.904  47.169  1.00  0.00    -0.237 NA
ENDROOT
BRANCH   1  23
HETATM   23  O1  UNL     1      30.581  11.989  47.894  1.00  0.00    -0.297 OA
HETATM   24  C1  UNL     1      30.531  12.517  49.176  1.00  0.00     0.231 C 
ENDBRANCH   1  23
TORSDOF 1
ENDMDL
MODEL 8
REMARK VINA RESULT:      -6.8      8.588     11.234
REMARK  1 active torsions:
REMARK  status: ('A' for Active; 'I' for Inactive)
REMARK    1  A    between atoms: O1_2  and  N1_3 
ROOT
HETATM    1  N1  UNL     1      29.562   6.400  48.372  1.00  0.00    -0.123 NA
HETATM    2  S1  UNL     1      28.238   7.474  48.566  1.00  0.00    -0.022 SA
HETATM    3  C2  UNL     1      28.805   9.041  49.262  1.00  0.00     0.116 C 
HETATM    4  C3  UNL     1      29.964   9.644  49.035  1.00  0.00     0.157 C 
HETATM    5  N2  UNL     1      30.128  11.051  49.096  1.00  0.00    -0.227 NA
HETATM    6  C4  UNL     1      30.594  11.776  48.116  1.00  0.00     0.085 C 
HETATM    7  C5  UNL     1      31.714  11.455  47.534  1.00  0.00     0.022 C 
HETATM    8  C6  UNL     1      32.432  10.146  47.362  1.00  0.00     0.083 C 
HETATM    9  C7  UNL     1      33.458  10.236  46.352  1.00  0.00     0.012 C 
HETATM   10  C8  UNL     1      34.340   9.739  45.463  1.00  0.00     0.131 C 
HETATM   11  O2  UNL     1      34.815   8.473  44.942  1.00  0.00    -0.363 OA
HETATM   12  C9  UNL     1      33.890   8.045  43.873  1.00  0.00     0.180 C 
HETATM   13  C10 UNL     1      32.790   7.385  44.653  1.00  0.00     0.025 C 
HETATM   14  C11 UNL     1      32.641   7.143  45.935  1.00  0.00     0.029 C 
HETATM   15  C12 UNL     1      32.895   7.062  47.399  1.00  0.00    -0.075 C 
HETATM   16  C13 UNL     1      34.039   7.309  48.364  1.00  0.00     0.044 C 
HETATM   17  C14 UNL     1      31.899   6.621  48.168  1.00  0.00    -0.060 C 
HETATM   18  C15 UNL     1      31.814   6.390  49.615  1.00  0.00     0.045 C 
HETATM   19  C16 UNL     1      30.570   6.656  47.402  1.00  0.00     0.133 C 
HETATM   20  C17 UNL     1      30.466   7.989  46.733  1.00  0.00     0.083 C 
HETATM   21  C18 UNL     1      31.418   9.044  47.281  1.00  0.00     0.028 C 
HETATM   22  N3  UNL     1      31.231   8.971  48.643  1.00  0.00    -0.237 NA
ENDROOT
BRANCH   1  23
HETATM   23  O1  UNL     1      29.112   5.137  48.203  1.00  0.00    -0.297 OA
HETATM   24  C1  UNL     1      27.786   4.982  48.583  1.00  0.00     0.231 C 
ENDBRANCH   1  23
TORSDOF 1
ENDMDL
MODEL 9
REMARK VINA RESULT:      -6.6      6.422      9.359
REMARK  1 active torsions:
REMARK  status: ('A' for Active; 'I' for Inactive)
REMARK    1  A    between atoms: O1_2  and  N1_3 
ROOT
HETATM    1  N1  UNL     1      26.996  10.506  48.092  1.00  0.00    -0.123 NA
HETATM    2  S1  UNL     1      25.705   9.958  49.080  1.00  0.00    -0.022 SA
HETATM    3  C2  UNL     1      25.240   8.274  48.619  1.00  0.00     0.116 C 
HETATM    4  C3  UNL     1      26.046   7.310  48.196  1.00  0.00     0.157 C 
HETATM    5  N2  UNL     1      25.784   5.934  48.411  1.00  0.00    -0.227 NA
HETATM    6  C4  UNL     1      26.608   5.117  49.006  1.00  0.00     0.085 C 
HETATM    7  C5  UNL     1      27.851   5.041  48.625  1.00  0.00     0.022 C 
HETATM    8  C6  UNL     1      28.770   6.020  47.951  1.00  0.00     0.083 C 
HETATM    9  C7  UNL     1      30.148   5.603  48.045  1.00  0.00     0.012 C 
HETATM   10  C8  UNL     1      31.482   5.783  47.993  1.00  0.00     0.131 C 
HETATM   11  O2  UNL     1      32.465   6.816  47.736  1.00  0.00    -0.363 OA
HETATM   12  C9  UNL     1      32.674   7.567  48.991  1.00  0.00     0.180 C 
HETATM   13  C10 UNL     1      31.539   8.549  48.962  1.00  0.00     0.025 C 
HETATM   14  C11 UNL     1      30.608   8.796  48.069  1.00  0.00     0.029 C 
HETATM   15  C12 UNL     1      29.789   8.746  46.828  1.00  0.00    -0.075 C 
HETATM   16  C13 UNL     1      29.845   8.090  45.461  1.00  0.00     0.044 C 
HETATM   17  C14 UNL     1      28.681   9.487  46.798  1.00  0.00    -0.060 C 
HETATM   18  C15 UNL     1      27.677   9.697  45.747  1.00  0.00     0.045 C 
HETATM   19  C16 UNL     1      28.295   9.939  48.212  1.00  0.00     0.133 C 
HETATM   20  C17 UNL     1      28.371   8.744  49.107  1.00  0.00     0.083 C 
HETATM   21  C18 UNL     1      28.394   7.409  48.373  1.00  0.00     0.028 C 
HETATM   22  N3  UNL     1      27.342   7.508  47.492  1.00  0.00    -0.237 NA
ENDROOT
BRANCH   1  23
HETATM   23  O1  UNL     1      27.104  11.851  48.176  1.00  0.00    -0.297 OA
HETATM   24  C1  UNL     1      25.903  12.504  47.936  1.00  0.00     0.231 C 
ENDBRANCH   1  23
TORSDOF 1
ENDMDL
