MODEL 1
REMARK VINA RESULT:      -9.2      0.000      0.000
REMARK  3 active torsions:
REMARK  status: ('A' for Active; 'I' for Inactive)
REMARK    1  A    between atoms: C4_4  and  C5_5 
REMARK    2  A    between atoms: C11_15  and  C12_16 
REMARK    3  A    between atoms: C17_21  and  O1_22 
ROOT
HETATM    1  C1  UNL     1      21.115   0.964  50.232  1.00  0.00     0.037 C 
HETATM    2  C2  UNL     1      21.433   0.389  51.527  1.00  0.00    -0.017 C 
HETATM    3  C3  UNL     1      22.333   0.211  52.467  1.00  0.00    -0.001 C 
HETATM    4  C4  UNL     1      21.926  -0.556  53.637  1.00  0.00    -0.020 C 
HETATM    5  C6  UNL     1      22.776  -0.947  54.583  1.00  0.00     0.003 C 
HETATM    6  C7  UNL     1      24.186  -0.850  54.886  1.00  0.00     0.148 C 
HETATM    7  N1  UNL     1      25.068  -0.548  53.790  1.00  0.00    -0.383 N 
HETATM    8  C8  UNL     1      24.851   0.472  52.777  1.00  0.00     0.088 A 
HETATM    9  C9  UNL     1      23.650   0.816  52.213  1.00  0.00     0.097 A 
HETATM   10  N2  UNL     1      23.589   1.820  51.350  1.00  0.00    -0.239 NA
HETATM   11  C10 UNL     1      24.652   2.527  51.005  1.00  0.00     0.234 A 
HETATM   12  N3  UNL     1      25.815   2.179  51.572  1.00  0.00    -0.239 NA
HETATM   13  C11 UNL     1      26.005   1.179  52.451  1.00  0.00     0.100 A 
HETATM   14  H10 UNL     1      26.014  -1.027  53.603  1.00  0.00     0.160 HD
ENDROOT
BRANCH  13  15
HETATM   15  C12 UNL     1      27.199   0.864  53.172  1.00  0.00     0.028 A 
HETATM   16  C13 UNL     1      27.461  -0.464  52.803  1.00  0.00     0.017 A 
HETATM   17  C14 UNL     1      28.693  -1.092  53.122  1.00  0.00     0.001 A 
HETATM   18  C15 UNL     1      29.669  -0.382  53.823  1.00  0.00     0.003 A 
HETATM   19  C16 UNL     1      29.452   0.932  54.219  1.00  0.00     0.037 A 
HETATM   20  C17 UNL     1      28.240   1.421  53.852  1.00  0.00     0.078 A 
BRANCH  20  21
HETATM   21  O1  UNL     1      27.784   2.720  54.145  1.00  0.00    -0.360 OA
HETATM   22  H16 UNL     1      27.515   3.323  53.357  1.00  0.00     0.217 HD
ENDBRANCH  20  21
ENDBRANCH  13  15
BRANCH   4  23
HETATM   23  C5  UNL     1      20.499  -0.907  53.808  1.00  0.00     0.261 C 
HETATM   24  F1  UNL     1      20.439  -2.050  54.558  1.00  0.00    -0.251 F 
ENDBRANCH   4  23
TORSDOF 3
ENDMDL
MODEL 2
REMARK VINA RESULT:      -8.8      1.468      1.875
REMARK  3 active torsions:
REMARK  status: ('A' for Active; 'I' for Inactive)
REMARK    1  A    between atoms: C4_4  and  C5_5 
REMARK    2  A    between atoms: C11_15  and  C12_16 
REMARK    3  A    between atoms: C17_21  and  O1_22 
ROOT
HETATM    1  C1  UNL     1      22.533   2.727  48.341  1.00  0.00     0.037 C 
HETATM    2  C2  UNL     1      22.316   2.134  49.649  1.00  0.00    -0.017 C 
HETATM    3  C3  UNL     1      22.838   1.765  50.796  1.00  0.00    -0.001 C 
HETATM    4  C4  UNL     1      21.937   1.165  51.772  1.00  0.00    -0.020 C 
HETATM    5  C6  UNL     1      22.357   0.604  52.902  1.00  0.00     0.003 C 
HETATM    6  C7  UNL     1      23.600   0.350  53.594  1.00  0.00     0.148 C 
HETATM    7  N1  UNL     1      24.802   0.381  52.805  1.00  0.00    -0.383 N 
HETATM    8  C8  UNL     1      25.146   1.389  51.814  1.00  0.00     0.088 A 
HETATM    9  C9  UNL     1      24.281   2.007  50.949  1.00  0.00     0.097 A 
HETATM   10  N2  UNL     1      24.722   2.964  50.145  1.00  0.00    -0.239 NA
HETATM   11  C10 UNL     1      25.982   3.367  50.144  1.00  0.00     0.234 A 
HETATM   12  N3  UNL     1      26.810   2.755  51.000  1.00  0.00    -0.239 NA
HETATM   13  C11 UNL     1      26.484   1.769  51.856  1.00  0.00     0.100 A 
HETATM   14  H10 UNL     1      25.610  -0.328  52.872  1.00  0.00     0.160 HD
ENDROOT
BRANCH  13  15
HETATM   15  C12 UNL     1      27.306   1.186  52.871  1.00  0.00     0.028 A 
HETATM   16  C13 UNL     1      27.407  -0.157  52.475  1.00  0.00     0.017 A 
HETATM   17  C14 UNL     1      28.329  -1.042  53.091  1.00  0.00     0.001 A 
HETATM   18  C15 UNL     1      29.154  -0.578  54.117  1.00  0.00     0.003 A 
HETATM   19  C16 UNL     1      29.083   0.741  54.550  1.00  0.00     0.037 A 
HETATM   20  C17 UNL     1      28.168   1.488  53.882  1.00  0.00     0.078 A 
BRANCH  20  21
HETATM   21  O1  UNL     1      27.904   2.846  54.144  1.00  0.00    -0.360 OA
HETATM   22  H16 UNL     1      26.926   3.125  54.293  1.00  0.00     0.217 HD
ENDBRANCH  20  21
ENDBRANCH  13  15
BRANCH   4  23
HETATM   23  C5  UNL     1      20.479   1.193  51.519  1.00  0.00     0.261 C 
HETATM   24  F1  UNL     1      20.014  -0.089  51.625  1.00  0.00    -0.251 F 
ENDBRANCH   4  23
TORSDOF 3
ENDMDL
MODEL 3
REMARK VINA RESULT:      -8.6      2.602      4.013
REMARK  3 active torsions:
REMARK  status: ('A' for Active; 'I' for Inactive)
REMARK    1  A    between atoms: C4_4  and  C5_5 
REMARK    2  A    between atoms: C11_15  and  C12_16 
REMARK    3  A    between atoms: C17_21  and  O1_22 
ROOT
HETATM    1  C1  UNL     1      20.689   2.708  51.457  1.00  0.00     0.037 C 
HETATM    2  C2  UNL     1      22.029   2.925  50.940  1.00  0.00    -0.017 C 
HETATM    3  C3  UNL     1      23.291   2.564  50.956  1.00  0.00    -0.001 C 
HETATM    4  C4  UNL     1      24.200   3.296  50.083  1.00  0.00    -0.020 C 
HETATM    5  C6  UNL     1      25.521   3.146  50.116  1.00  0.00     0.003 C 
HETATM    6  C7  UNL     1      26.511   2.380  50.841  1.00  0.00     0.148 C 
HETATM    7  N1  UNL     1      26.109   1.833  52.109  1.00  0.00    -0.383 N 
HETATM    8  C8  UNL     1      24.857   1.146  52.384  1.00  0.00     0.088 A 
HETATM    9  C9  UNL     1      23.628   1.456  51.863  1.00  0.00     0.097 A 
HETATM   10  N2  UNL     1      22.580   0.696  52.145  1.00  0.00    -0.239 NA
HETATM   11  C10 UNL     1      22.666  -0.376  52.915  1.00  0.00     0.234 A 
HETATM   12  N3  UNL     1      23.877  -0.666  53.410  1.00  0.00    -0.239 NA
HETATM   13  C11 UNL     1      25.009   0.031  53.203  1.00  0.00     0.100 A 
HETATM   14  H10 UNL     1      26.703   1.843  53.008  1.00  0.00     0.160 HD
ENDROOT
BRANCH  13  15
HETATM   15  C12 UNL     1      26.336  -0.320  53.605  1.00  0.00     0.028 A 
HETATM   16  C13 UNL     1      26.658  -1.394  52.761  1.00  0.00     0.017 A 
HETATM   17  C14 UNL     1      27.983  -1.896  52.676  1.00  0.00     0.001 A 
HETATM   18  C15 UNL     1      28.991  -1.320  53.450  1.00  0.00     0.003 A 
HETATM   19  C16 UNL     1      28.719  -0.261  54.308  1.00  0.00     0.037 A 
HETATM   20  C17 UNL     1      27.419   0.131  54.297  1.00  0.00     0.078 A 
BRANCH  20  21
HETATM   21  O1  UNL     1      26.896   1.173  55.085  1.00  0.00    -0.360 OA
HETATM   22  H16 UNL     1      25.883   1.349  55.038  1.00  0.00     0.217 HD
ENDBRANCH  20  21
ENDBRANCH  13  15
BRANCH   4  23
HETATM   23  C5  UNL     1      23.642   4.240  49.090  1.00  0.00     0.261 C 
HETATM   24  F1  UNL     1      24.678   4.981  48.591  1.00  0.00    -0.251 F 
ENDBRANCH   4  23
TORSDOF 3
ENDMDL
MODEL 4
REMARK VINA RESULT:      -8.0      2.865      5.478
REMARK  3 active torsions:
REMARK  status: ('A' for Active; 'I' for Inactive)
REMARK    1  A    between atoms: C4_4  and  C5_5 
REMARK    2  A    between atoms: C11_15  and  C12_16 
REMARK    3  A    between atoms: C17_21  and  O1_22 
ROOT
HETATM    1  C1  UNL     1      25.479  -0.556  53.738  1.00  0.00     0.037 C 
HETATM    2  C2  UNL     1      24.188   0.046  53.455  1.00  0.00    -0.017 C 
HETATM    3  C3  UNL     1      23.524   1.010  52.859  1.00  0.00    -0.001 C 
HETATM    4  C4  UNL     1      22.075   1.007  53.007  1.00  0.00    -0.020 C 
HETATM    5  C6  UNL     1      21.298   2.005  52.595  1.00  0.00     0.003 C 
HETATM    6  C7  UNL     1      21.431   3.291  51.949  1.00  0.00     0.148 C 
HETATM    7  N1  UNL     1      22.727   3.914  52.000  1.00  0.00    -0.383 N 
HETATM    8  C8  UNL     1      24.000   3.257  51.750  1.00  0.00     0.088 A 
HETATM    9  C9  UNL     1      24.340   1.979  52.110  1.00  0.00     0.097 A 
HETATM   10  N2  UNL     1      25.515   1.483  51.751  1.00  0.00    -0.239 NA
HETATM   11  C10 UNL     1      26.392   2.172  51.041  1.00  0.00     0.234 A 
HETATM   12  N3  UNL     1      26.038   3.417  50.694  1.00  0.00    -0.239 NA
HETATM   13  C11 UNL     1      24.883   4.032  51.003  1.00  0.00     0.100 A 
HETATM   14  H10 UNL     1      22.909   4.956  52.205  1.00  0.00     0.160 HD
ENDROOT
BRANCH  13  15
HETATM   15  C12 UNL     1      24.420   5.304  50.542  1.00  0.00     0.028 A 
HETATM   16  C13 UNL     1      24.086   5.062  49.201  1.00  0.00     0.017 A 
HETATM   17  C14 UNL     1      23.369   6.016  48.433  1.00  0.00     0.001 A 
HETATM   18  C15 UNL     1      22.988   7.226  49.015  1.00  0.00     0.003 A 
HETATM   19  C16 UNL     1      23.305   7.516  50.337  1.00  0.00     0.037 A 
HETATM   20  C17 UNL     1      23.987   6.525  50.966  1.00  0.00     0.078 A 
BRANCH  20  21
HETATM   21  O1  UNL     1      24.428   6.585  52.301  1.00  0.00    -0.360 OA
HETATM   22  H16 UNL     1      24.601   5.696  52.790  1.00  0.00     0.217 HD
ENDBRANCH  20  21
ENDBRANCH  13  15
BRANCH   4  23
HETATM   23  C5  UNL     1      21.416  -0.166  53.624  1.00  0.00     0.261 C 
HETATM   24  F1  UNL     1      21.097   0.166  54.912  1.00  0.00    -0.251 F 
ENDBRANCH   4  23
TORSDOF 3
ENDMDL
MODEL 5
REMARK VINA RESULT:      -8.0      3.058      5.810
REMARK  3 active torsions:
REMARK  status: ('A' for Active; 'I' for Inactive)
REMARK    1  A    between atoms: C4_4  and  C5_5 
REMARK    2  A    between atoms: C11_15  and  C12_16 
REMARK    3  A    between atoms: C17_21  and  O1_22 
ROOT
HETATM    1  C1  UNL     1      22.127  -0.855  53.485  1.00  0.00     0.037 C 
HETATM    2  C2  UNL     1      23.455  -0.354  53.175  1.00  0.00    -0.017 C 
HETATM    3  C3  UNL     1      24.179   0.611  52.659  1.00  0.00    -0.001 C 
HETATM    4  C4  UNL     1      25.626   0.439  52.682  1.00  0.00    -0.020 C 
HETATM    5  C6  UNL     1      26.468   1.256  52.055  1.00  0.00     0.003 C 
HETATM    6  C7  UNL     1      26.419   2.443  51.230  1.00  0.00     0.148 C 
HETATM    7  N1  UNL     1      25.170   2.732  50.579  1.00  0.00    -0.383 N 
HETATM    8  C8  UNL     1      23.853   2.673  51.194  1.00  0.00     0.088 A 
HETATM    9  C9  UNL     1      23.428   1.755  52.118  1.00  0.00     0.097 A 
HETATM   10  N2  UNL     1      22.220   1.865  52.650  1.00  0.00    -0.239 NA
HETATM   11  C10 UNL     1      21.389   2.843  52.333  1.00  0.00     0.234 A 
HETATM   12  N3  UNL     1      21.825   3.734  51.431  1.00  0.00    -0.239 NA
HETATM   13  C11 UNL     1      23.022   3.724  50.818  1.00  0.00     0.100 A 
HETATM   14  H10 UNL     1      25.061   3.056  49.557  1.00  0.00     0.160 HD
ENDROOT
BRANCH  13  15
HETATM   15  C12 UNL     1      23.569   4.724  49.954  1.00  0.00     0.028 A 
HETATM   16  C13 UNL     1      22.878   4.526  48.749  1.00  0.00     0.017 A 
HETATM   17  C14 UNL     1      22.959   5.464  47.687  1.00  0.00     0.001 A 
HETATM   18  C15 UNL     1      23.745   6.608  47.833  1.00  0.00     0.003 A 
HETATM   19  C16 UNL     1      24.456   6.843  49.004  1.00  0.00     0.037 A 
HETATM   20  C17 UNL     1      24.295   5.877  49.945  1.00  0.00     0.078 A 
BRANCH  20  21
HETATM   21  O1  UNL     1      24.918   5.884  51.207  1.00  0.00    -0.360 OA
HETATM   22  H16 UNL     1      24.331   6.072  52.031  1.00  0.00     0.217 HD
ENDBRANCH  20  21
ENDBRANCH  13  15
BRANCH   4  23
HETATM   23  C5  UNL     1      26.206  -0.682  53.454  1.00  0.00     0.261 C 
HETATM   24  F1  UNL     1      26.512  -1.682  52.571  1.00  0.00    -0.251 F 
ENDBRANCH   4  23
TORSDOF 3
ENDMDL
MODEL 6
REMARK VINA RESULT:      -8.0      5.076      7.820
REMARK  3 active torsions:
REMARK  status: ('A' for Active; 'I' for Inactive)
REMARK    1  A    between atoms: C4_4  and  C5_5 
REMARK    2  A    between atoms: C11_15  and  C12_16 
REMARK    3  A    between atoms: C17_21  and  O1_22 
ROOT
HETATM    1  C1  UNL     1      26.449   9.645  49.399  1.00  0.00     0.037 C 
HETATM    2  C2  UNL     1      26.865   8.289  49.087  1.00  0.00    -0.017 C 
HETATM    3  C3  UNL     1      26.611   7.004  49.186  1.00  0.00    -0.001 C 
HETATM    4  C4  UNL     1      27.562   6.091  48.566  1.00  0.00    -0.020 C 
HETATM    5  C6  UNL     1      27.516   4.771  48.725  1.00  0.00     0.003 C 
HETATM    6  C7  UNL     1      26.713   3.787  49.416  1.00  0.00     0.148 C 
HETATM    7  N1  UNL     1      25.911   4.256  50.514  1.00  0.00    -0.383 N 
HETATM    8  C8  UNL     1      25.085   5.454  50.518  1.00  0.00     0.088 A 
HETATM    9  C9  UNL     1      25.386   6.650  49.919  1.00  0.00     0.097 A 
HETATM   10  N2  UNL     1      24.504   7.639  49.941  1.00  0.00    -0.239 NA
HETATM   11  C10 UNL     1      23.319   7.523  50.517  1.00  0.00     0.234 A 
HETATM   12  N3  UNL     1      23.043   6.344  51.091  1.00  0.00    -0.239 NA
HETATM   13  C11 UNL     1      23.855   5.273  51.141  1.00  0.00     0.100 A 
HETATM   14  H10 UNL     1      25.803   3.759  51.463  1.00  0.00     0.160 HD
ENDROOT
BRANCH  13  15
HETATM   15  C12 UNL     1      23.545   3.964  51.628  1.00  0.00     0.028 A 
HETATM   16  C13 UNL     1      22.775   3.408  50.595  1.00  0.00     0.017 A 
HETATM   17  C14 UNL     1      22.450   2.026  50.576  1.00  0.00     0.001 A 
HETATM   18  C15 UNL     1      22.896   1.198  51.607  1.00  0.00     0.003 A 
HETATM   19  C16 UNL     1      23.652   1.705  52.657  1.00  0.00     0.037 A 
HETATM   20  C17 UNL     1      23.900   3.036  52.559  1.00  0.00     0.078 A 
BRANCH  20  21
HETATM   21  O1  UNL     1      24.634   3.780  53.502  1.00  0.00    -0.360 OA
HETATM   22  H16 UNL     1      25.355   4.423  53.150  1.00  0.00     0.217 HD
ENDBRANCH  20  21
ENDBRANCH  13  15
BRANCH   4  23
HETATM   23  C5  UNL     1      28.624   6.640  47.694  1.00  0.00     0.261 C 
HETATM   24  F1  UNL     1      29.610   5.697  47.595  1.00  0.00    -0.251 F 
ENDBRANCH   4  23
TORSDOF 3
ENDMDL
MODEL 7
REMARK VINA RESULT:      -7.9      3.389      7.239
REMARK  3 active torsions:
REMARK  status: ('A' for Active; 'I' for Inactive)
REMARK    1  A    between atoms: C4_4  and  C5_5 
REMARK    2  A    between atoms: C11_15  and  C12_16 
REMARK    3  A    between atoms: C17_21  and  O1_22 
ROOT
HETATM    1  C1  UNL     1      26.001  -0.888  53.384  1.00  0.00     0.037 C 
HETATM    2  C2  UNL     1      25.663   0.279  52.588  1.00  0.00    -0.017 C 
HETATM    3  C3  UNL     1      24.720   1.071  52.133  1.00  0.00    -0.001 C 
HETATM    4  C4  UNL     1      25.139   2.182  51.288  1.00  0.00    -0.020 C 
HETATM    5  C6  UNL     1      24.283   2.962  50.632  1.00  0.00     0.003 C 
HETATM    6  C7  UNL     1      22.856   3.096  50.450  1.00  0.00     0.148 C 
HETATM    7  N1  UNL     1      22.049   1.944  50.752  1.00  0.00    -0.383 N 
HETATM    8  C8  UNL     1      22.178   1.096  51.926  1.00  0.00     0.088 A 
HETATM    9  C9  UNL     1      23.348   0.731  52.540  1.00  0.00     0.097 A 
HETATM   10  N2  UNL     1      23.313   0.009  53.651  1.00  0.00    -0.239 NA
HETATM   11  C10 UNL     1      22.180  -0.377  54.213  1.00  0.00     0.234 A 
HETATM   12  N3  UNL     1      21.048  -0.005  53.601  1.00  0.00    -0.239 NA
HETATM   13  C11 UNL     1      20.955   0.717  52.470  1.00  0.00     0.100 A 
HETATM   14  H10 UNL     1      21.229   1.585  50.154  1.00  0.00     0.160 HD
ENDROOT
BRANCH  13  15
HETATM   15  C12 UNL     1      19.770   1.241  51.863  1.00  0.00     0.028 A 
HETATM   16  C13 UNL     1      19.170   0.108  51.293  1.00  0.00     0.017 A 
HETATM   17  C14 UNL     1      17.846   0.150  50.783  1.00  0.00     0.001 A 
HETATM   18  C15 UNL     1      17.121   1.341  50.840  1.00  0.00     0.003 A 
HETATM   19  C16 UNL     1      17.677   2.492  51.386  1.00  0.00     0.037 A 
HETATM   20  C17 UNL     1      18.944   2.324  51.842  1.00  0.00     0.078 A 
BRANCH  20  21
HETATM   21  O1  UNL     1      19.721   3.342  52.427  1.00  0.00    -0.360 OA
HETATM   22  H16 UNL     1      19.975   4.148  51.842  1.00  0.00     0.217 HD
ENDBRANCH  20  21
ENDBRANCH  13  15
BRANCH   4  23
HETATM   23  C5  UNL     1      26.581   2.485  51.158  1.00  0.00     0.261 C 
HETATM   24  F1  UNL     1      26.838   2.731  49.837  1.00  0.00    -0.251 F 
ENDBRANCH   4  23
TORSDOF 3
ENDMDL
MODEL 8
REMARK VINA RESULT:      -7.9      2.596      5.364
REMARK  3 active torsions:
REMARK  status: ('A' for Active; 'I' for Inactive)
REMARK    1  A    between atoms: C4_4  and  C5_5 
REMARK    2  A    between atoms: C11_15  and  C12_16 
REMARK    3  A    between atoms: C17_21  and  O1_22 
ROOT
HETATM    1  C1  UNL     1      25.764  -0.555  54.773  1.00  0.00     0.037 C 
HETATM    2  C2  UNL     1      24.457  -0.499  54.141  1.00  0.00    -0.017 C 
HETATM    3  C3  UNL     1      23.707   0.023  53.198  1.00  0.00    -0.001 C 
HETATM    4  C4  UNL     1      22.323  -0.427  53.128  1.00  0.00    -0.020 C 
HETATM    5  C6  UNL     1      21.415   0.132  52.332  1.00  0.00     0.003 C 
HETATM    6  C7  UNL     1      21.328   1.201  51.363  1.00  0.00     0.148 C 
HETATM    7  N1  UNL     1      22.350   2.213  51.418  1.00  0.00    -0.383 N 
HETATM    8  C8  UNL     1      23.778   1.977  51.560  1.00  0.00     0.088 A 
HETATM    9  C9  UNL     1      24.369   1.005  52.325  1.00  0.00     0.097 A 
HETATM   10  N2  UNL     1      25.686   0.858  52.303  1.00  0.00    -0.239 NA
HETATM   11  C10 UNL     1      26.474   1.613  51.557  1.00  0.00     0.234 A 
HETATM   12  N3  UNL     1      25.876   2.553  50.812  1.00  0.00    -0.239 NA
HETATM   13  C11 UNL     1      24.556   2.803  50.756  1.00  0.00     0.100 A 
HETATM   14  H10 UNL     1      22.181   3.273  51.332  1.00  0.00     0.160 HD
ENDROOT
BRANCH  13  15
HETATM   15  C12 UNL     1      23.875   3.705  49.879  1.00  0.00     0.028 A 
HETATM   16  C13 UNL     1      24.269   4.970  50.344  1.00  0.00     0.017 A 
HETATM   17  C14 UNL     1      23.995   6.149  49.603  1.00  0.00     0.001 A 
HETATM   18  C15 UNL     1      23.313   6.059  48.389  1.00  0.00     0.003 A 
HETATM   19  C16 UNL     1      22.893   4.830  47.892  1.00  0.00     0.037 A 
HETATM   20  C17 UNL     1      23.218   3.780  48.688  1.00  0.00     0.078 A 
BRANCH  20  21
HETATM   21  O1  UNL     1      22.894   2.439  48.407  1.00  0.00    -0.360 OA
HETATM   22  H16 UNL     1      23.108   1.733  49.124  1.00  0.00     0.217 HD
ENDBRANCH  20  21
ENDBRANCH  13  15
BRANCH   4  23
HETATM   23  C5  UNL     1      21.894  -1.573  53.959  1.00  0.00     0.261 C 
HETATM   24  F1  UNL     1      21.240  -1.074  55.052  1.00  0.00    -0.251 F 
ENDBRANCH   4  23
TORSDOF 3
ENDMDL
MODEL 9
REMARK VINA RESULT:      -7.8      3.965      6.114
REMARK  3 active torsions:
REMARK  status: ('A' for Active; 'I' for Inactive)
REMARK    1  A    between atoms: C4_4  and  C5_5 
REMARK    2  A    between atoms: C11_15  and  C12_16 
REMARK    3  A    between atoms: C17_21  and  O1_22 
ROOT
HETATM    1  C1  UNL     1      24.364   6.528  48.559  1.00  0.00     0.037 C 
HETATM    2  C2  UNL     1      23.515   5.396  48.231  1.00  0.00    -0.017 C 
HETATM    3  C3  UNL     1      22.905   4.313  48.654  1.00  0.00    -0.001 C 
HETATM    4  C4  UNL     1      22.131   3.563  47.674  1.00  0.00    -0.020 C 
HETATM    5  C6  UNL     1      21.598   2.370  47.924  1.00  0.00     0.003 C 
HETATM    6  C7  UNL     1      21.518   1.422  49.012  1.00  0.00     0.148 C 
HETATM    7  N1  UNL     1      22.504   1.540  50.053  1.00  0.00    -0.383 N 
HETATM    8  C8  UNL     1      22.927   2.777  50.690  1.00  0.00     0.088 A 
HETATM    9  C9  UNL     1      23.083   3.994  50.079  1.00  0.00     0.097 A 
HETATM   10  N2  UNL     1      23.406   5.058  50.800  1.00  0.00    -0.239 NA
HETATM   11  C10 UNL     1      23.580   5.004  52.110  1.00  0.00     0.234 A 
HETATM   12  N3  UNL     1      23.417   3.807  52.689  1.00  0.00    -0.239 NA
HETATM   13  C11 UNL     1      23.099   2.658  52.066  1.00  0.00     0.100 A 
HETATM   14  H10 UNL     1      23.031   0.718  50.508  1.00  0.00     0.160 HD
ENDROOT
BRANCH  13  15
HETATM   15  C12 UNL     1      22.790   1.396  52.664  1.00  0.00     0.028 A 
HETATM   16  C13 UNL     1      24.051   0.881  53.005  1.00  0.00     0.017 A 
HETATM   17  C14 UNL     1      24.183  -0.264  53.833  1.00  0.00     0.001 A 
HETATM   18  C15 UNL     1      23.040  -0.902  54.318  1.00  0.00     0.003 A 
HETATM   19  C16 UNL     1      21.770  -0.435  53.999  1.00  0.00     0.037 A 
HETATM   20  C17 UNL     1      21.776   0.666  53.206  1.00  0.00     0.078 A 
BRANCH  20  21
HETATM   21  O1  UNL     1      20.617   1.318  52.741  1.00  0.00    -0.360 OA
HETATM   22  H16 UNL     1      19.786   0.742  52.554  1.00  0.00     0.217 HD
ENDBRANCH  20  21
ENDBRANCH  13  15
BRANCH   4  23
HETATM   23  C5  UNL     1      21.898   4.151  46.336  1.00  0.00     0.261 C 
HETATM   24  F1  UNL     1      22.292   3.232  45.402  1.00  0.00    -0.251 F 
ENDBRANCH   4  23
TORSDOF 3
ENDMDL
