MODEL 1
REMARK VINA RESULT:      -8.4      0.000      0.000
REMARK  3 active torsions:
REMARK  status: ('A' for Active; 'I' for Inactive)
REMARK    1  A    between atoms: C9_10  and  C10_11 
REMARK    2  A    between atoms: C10_11  and  N2_12 
REMARK    3  A    between atoms: N2_12  and  C11_13 
ROOT
HETATM    1  C1  UNL     1      16.598  -0.273  51.488  1.00  0.00     0.048 C 
HETATM    2  C2  UNL     1      17.851  -0.509  52.252  1.00  0.00    -0.061 A 
HETATM    3  C3  UNL     1      17.895  -1.678  52.999  1.00  0.00     0.009 A 
HETATM    4  C4  UNL     1      19.047  -1.926  53.721  1.00  0.00     0.038 A 
HETATM    5  C5  UNL     1      20.111  -1.048  53.701  1.00  0.00     0.086 A 
HETATM    6  C6  UNL     1      20.061   0.130  52.945  1.00  0.00    -0.006 A 
HETATM    7  C7  UNL     1      18.907   0.378  52.221  1.00  0.00     0.018 A 
HETATM    8  C8  UNL     1      21.019   1.215  52.744  1.00  0.00     0.161 C 
HETATM    9  N1  UNL     1      22.397   0.877  52.862  1.00  0.00    -0.381 N 
HETATM   10  C9  UNL     1      23.126  -0.147  53.528  1.00  0.00     0.098 C 
HETATM   11  C16 UNL     1      22.489  -1.009  54.515  1.00  0.00     0.209 C 
HETATM   12  N3  UNL     1      23.065  -1.442  55.561  1.00  0.00    -0.146 NA
HETATM   13  C17 UNL     1      24.315  -1.269  56.052  1.00  0.00     0.208 C 
HETATM   14  N4  UNL     1      25.361  -1.125  56.484  1.00  0.00    -0.170 NA
HETATM   15  O1  UNL     1      21.168  -1.510  54.507  1.00  0.00    -0.289 OA
HETATM   16  H9  UNL     1      23.075   1.515  52.346  1.00  0.00     0.160 HD
ENDROOT
BRANCH  10  17
HETATM   17  C10 UNL     1      24.380  -0.442  53.343  1.00  0.00     0.121 C 
BRANCH  17  18
HETATM   18  N2  UNL     1      25.743  -0.558  53.018  1.00  0.00    -0.366 N 
HETATM   19  H11 UNL     1      26.066  -1.417  52.480  1.00  0.00     0.165 HD
BRANCH  18  20
HETATM   20  C11 UNL     1      26.828   0.319  53.297  1.00  0.00     0.027 A 
HETATM   21  C12 UNL     1      26.879   1.581  52.843  1.00  0.00     0.026 A 
HETATM   22  C13 UNL     1      28.101   2.221  53.291  1.00  0.00    -0.001 A 
HETATM   23  C14 UNL     1      28.777   1.369  54.003  1.00  0.00    -0.005 A 
HETATM   24  C15 UNL     1      28.039   0.080  54.077  1.00  0.00     0.130 A 
HETATM   25 BR1  UNL     1      29.093  -1.366  53.352  1.00  0.00    -0.080 Br
ENDBRANCH  18  20
ENDBRANCH  17  18
ENDBRANCH  10  17
TORSDOF 3
ENDMDL
MODEL 2
REMARK VINA RESULT:      -8.1      3.507      4.783
REMARK  3 active torsions:
REMARK  status: ('A' for Active; 'I' for Inactive)
REMARK    1  A    between atoms: C9_10  and  C10_11 
REMARK    2  A    between atoms: C10_11  and  N2_12 
REMARK    3  A    between atoms: N2_12  and  C11_13 
ROOT
HETATM    1  C1  UNL     1      22.349   5.645  47.302  1.00  0.00     0.048 C 
HETATM    2  C2  UNL     1      22.596   4.601  48.330  1.00  0.00    -0.061 A 
HETATM    3  C3  UNL     1      22.383   3.290  47.927  1.00  0.00     0.009 A 
HETATM    4  C4  UNL     1      22.605   2.296  48.861  1.00  0.00     0.038 A 
HETATM    5  C5  UNL     1      23.022   2.593  50.142  1.00  0.00     0.086 A 
HETATM    6  C6  UNL     1      23.235   3.918  50.544  1.00  0.00    -0.006 A 
HETATM    7  C7  UNL     1      23.013   4.914  49.608  1.00  0.00     0.018 A 
HETATM    8  C8  UNL     1      23.665   4.508  51.809  1.00  0.00     0.161 C 
HETATM    9  N1  UNL     1      24.500   3.703  52.635  1.00  0.00    -0.381 N 
HETATM   10  C9  UNL     1      24.721   2.306  52.780  1.00  0.00     0.098 C 
HETATM   11  C16 UNL     1      23.834   1.332  52.159  1.00  0.00     0.209 C 
HETATM   12  N3  UNL     1      23.517   0.220  52.684  1.00  0.00    -0.146 NA
HETATM   13  C17 UNL     1      23.855  -0.364  53.859  1.00  0.00     0.208 C 
HETATM   14  N4  UNL     1      24.123  -0.865  54.848  1.00  0.00    -0.170 NA
HETATM   15  O1  UNL     1      23.180   1.424  50.910  1.00  0.00    -0.289 OA
HETATM   16  H9  UNL     1      25.120   4.233  53.319  1.00  0.00     0.160 HD
ENDROOT
BRANCH  10  17
HETATM   17  C10 UNL     1      25.697   1.746  53.435  1.00  0.00     0.121 C 
BRANCH  17  18
HETATM   18  N2  UNL     1      26.731   1.328  54.292  1.00  0.00    -0.366 N 
HETATM   19  H11 UNL     1      26.694   1.622  55.313  1.00  0.00     0.165 HD
BRANCH  18  20
HETATM   20  C11 UNL     1      27.881   0.538  54.019  1.00  0.00     0.027 A 
HETATM   21  C12 UNL     1      29.102   1.069  53.840  1.00  0.00     0.026 A 
HETATM   22  C13 UNL     1      30.067   0.017  53.581  1.00  0.00    -0.001 A 
HETATM   23  C14 UNL     1      29.448  -1.127  53.602  1.00  0.00    -0.005 A 
HETATM   24  C15 UNL     1      28.004  -0.910  53.882  1.00  0.00     0.130 A 
HETATM   25 BR1  UNL     1      26.909  -1.596  52.446  1.00  0.00    -0.080 Br
ENDBRANCH  18  20
ENDBRANCH  17  18
ENDBRANCH  10  17
TORSDOF 3
ENDMDL
MODEL 3
REMARK VINA RESULT:      -7.8      5.288      8.433
REMARK  3 active torsions:
REMARK  status: ('A' for Active; 'I' for Inactive)
REMARK    1  A    between atoms: C9_10  and  C10_11 
REMARK    2  A    between atoms: C10_11  and  N2_12 
REMARK    3  A    between atoms: N2_12  and  C11_13 
ROOT
HETATM    1  C1  UNL     1      28.318   9.562  49.219  1.00  0.00     0.048 C 
HETATM    2  C2  UNL     1      27.476   8.338  49.270  1.00  0.00    -0.061 A 
HETATM    3  C3  UNL     1      27.845   7.312  48.412  1.00  0.00     0.009 A 
HETATM    4  C4  UNL     1      27.082   6.161  48.436  1.00  0.00     0.038 A 
HETATM    5  C5  UNL     1      25.997   6.034  49.279  1.00  0.00     0.086 A 
HETATM    6  C6  UNL     1      25.630   7.073  50.143  1.00  0.00    -0.006 A 
HETATM    7  C7  UNL     1      26.395   8.227  50.119  1.00  0.00     0.018 A 
HETATM    8  C8  UNL     1      24.551   7.210  51.120  1.00  0.00     0.161 C 
HETATM    9  N1  UNL     1      24.083   6.007  51.722  1.00  0.00    -0.381 N 
HETATM   10  C9  UNL     1      24.082   4.634  51.352  1.00  0.00     0.098 C 
HETATM   11  C16 UNL     1      24.419   4.215  49.998  1.00  0.00     0.209 C 
HETATM   12  N3  UNL     1      23.869   3.242  49.395  1.00  0.00    -0.146 NA
HETATM   13  C17 UNL     1      22.898   2.372  49.763  1.00  0.00     0.208 C 
HETATM   14  N4  UNL     1      22.076   1.637  50.054  1.00  0.00    -0.170 NA
HETATM   15  O1  UNL     1      25.378   4.780  49.128  1.00  0.00    -0.289 OA
HETATM   16  H9  UNL     1      23.618   6.118  52.673  1.00  0.00     0.160 HD
ENDROOT
BRANCH  10  17
HETATM   17  C10 UNL     1      23.810   3.628  52.133  1.00  0.00     0.121 C 
BRANCH  17  18
HETATM   18  N2  UNL     1      23.642   2.413  52.820  1.00  0.00    -0.366 N 
HETATM   19  H11 UNL     1      22.774   2.286  53.421  1.00  0.00     0.165 HD
BRANCH  18  20
HETATM   20  C11 UNL     1      24.475   1.261  52.857  1.00  0.00     0.027 A 
HETATM   21  C12 UNL     1      25.577   1.135  52.100  1.00  0.00     0.026 A 
HETATM   22  C13 UNL     1      26.212  -0.143  52.359  1.00  0.00    -0.001 A 
HETATM   23  C14 UNL     1      25.515  -0.780  53.253  1.00  0.00    -0.005 A 
HETATM   24  C15 UNL     1      24.346   0.046  53.657  1.00  0.00     0.130 A 
HETATM   25 BR1  UNL     1      22.688  -0.880  53.304  1.00  0.00    -0.080 Br
ENDBRANCH  18  20
ENDBRANCH  17  18
ENDBRANCH  10  17
TORSDOF 3
ENDMDL
MODEL 4
REMARK VINA RESULT:      -7.8      3.336      8.145
REMARK  3 active torsions:
REMARK  status: ('A' for Active; 'I' for Inactive)
REMARK    1  A    between atoms: C9_10  and  C10_11 
REMARK    2  A    between atoms: C10_11  and  N2_12 
REMARK    3  A    between atoms: N2_12  and  C11_13 
ROOT
HETATM    1  C1  UNL     1      28.864  -0.694  53.441  1.00  0.00     0.048 C 
HETATM    2  C2  UNL     1      27.562  -0.018  53.205  1.00  0.00    -0.061 A 
HETATM    3  C3  UNL     1      27.618   1.179  52.505  1.00  0.00     0.009 A 
HETATM    4  C4  UNL     1      26.424   1.832  52.269  1.00  0.00     0.038 A 
HETATM    5  C5  UNL     1      25.223   1.315  52.710  1.00  0.00     0.086 A 
HETATM    6  C6  UNL     1      25.172   0.107  53.416  1.00  0.00    -0.006 A 
HETATM    7  C7  UNL     1      26.369  -0.547  53.652  1.00  0.00     0.018 A 
HETATM    8  C8  UNL     1      24.065  -0.656  53.989  1.00  0.00     0.161 C 
HETATM    9  N1  UNL     1      22.798  -0.512  53.355  1.00  0.00    -0.381 N 
HETATM   10  C9  UNL     1      22.187   0.488  52.549  1.00  0.00     0.098 C 
HETATM   11  C16 UNL     1      22.777   1.812  52.410  1.00  0.00     0.209 C 
HETATM   12  N3  UNL     1      22.105   2.886  52.317  1.00  0.00    -0.146 NA
HETATM   13  C17 UNL     1      20.773   3.132  52.317  1.00  0.00     0.208 C 
HETATM   14  N4  UNL     1      19.655   3.356  52.324  1.00  0.00    -0.170 NA
HETATM   15  O1  UNL     1      24.148   2.151  52.354  1.00  0.00    -0.289 OA
HETATM   16  H9  UNL     1      22.120  -1.321  53.491  1.00  0.00     0.160 HD
ENDROOT
BRANCH  10  17
HETATM   17  C10 UNL     1      21.091   0.354  51.859  1.00  0.00     0.121 C 
BRANCH  17  18
HETATM   18  N2  UNL     1      19.797   0.261  51.319  1.00  0.00    -0.366 N 
HETATM   19  H11 UNL     1      19.644   0.567  50.311  1.00  0.00     0.165 HD
BRANCH  18  20
HETATM   20  C11 UNL     1      18.588  -0.195  51.913  1.00  0.00     0.027 A 
HETATM   21  C12 UNL     1      18.560  -1.104  52.901  1.00  0.00     0.026 A 
HETATM   22  C13 UNL     1      17.189  -1.364  53.297  1.00  0.00    -0.001 A 
HETATM   23  C14 UNL     1      16.401  -0.630  52.569  1.00  0.00    -0.005 A 
HETATM   24  C15 UNL     1      17.208   0.183  51.620  1.00  0.00     0.130 A 
HETATM   25 BR1  UNL     1      16.724  -0.203  49.791  1.00  0.00    -0.080 Br
ENDBRANCH  18  20
ENDBRANCH  17  18
ENDBRANCH  10  17
TORSDOF 3
ENDMDL
MODEL 5
REMARK VINA RESULT:      -7.5      4.854      6.606
REMARK  3 active torsions:
REMARK  status: ('A' for Active; 'I' for Inactive)
REMARK    1  A    between atoms: C9_10  and  C10_11 
REMARK    2  A    between atoms: C10_11  and  N2_12 
REMARK    3  A    between atoms: N2_12  and  C11_13 
ROOT
HETATM    1  C1  UNL     1      22.672  -1.625  55.335  1.00  0.00     0.048 C 
HETATM    2  C2  UNL     1      22.600  -0.610  54.252  1.00  0.00    -0.061 A 
HETATM    3  C3  UNL     1      21.337  -0.105  53.975  1.00  0.00     0.009 A 
HETATM    4  C4  UNL     1      21.238   0.840  52.973  1.00  0.00     0.038 A 
HETATM    5  C5  UNL     1      22.349   1.268  52.275  1.00  0.00     0.086 A 
HETATM    6  C6  UNL     1      23.621   0.756  52.559  1.00  0.00    -0.006 A 
HETATM    7  C7  UNL     1      23.720  -0.192  53.563  1.00  0.00     0.018 A 
HETATM    8  C8  UNL     1      24.941   1.021  51.991  1.00  0.00     0.161 C 
HETATM    9  N1  UNL     1      25.148   2.319  51.442  1.00  0.00    -0.381 N 
HETATM   10  C9  UNL     1      24.301   3.331  50.912  1.00  0.00     0.098 C 
HETATM   11  C16 UNL     1      22.903   3.063  50.605  1.00  0.00     0.209 C 
HETATM   12  N3  UNL     1      22.280   3.566  49.619  1.00  0.00    -0.146 NA
HETATM   13  C17 UNL     1      22.661   4.418  48.637  1.00  0.00     0.208 C 
HETATM   14  N4  UNL     1      22.969   5.127  47.799  1.00  0.00    -0.170 NA
HETATM   15  O1  UNL     1      22.003   2.230  51.309  1.00  0.00    -0.289 OA
HETATM   16  H9  UNL     1      26.159   2.647  51.402  1.00  0.00     0.160 HD
ENDROOT
BRANCH  10  17
HETATM   17  C10 UNL     1      24.641   4.562  50.659  1.00  0.00     0.121 C 
BRANCH  17  18
HETATM   18  N2  UNL     1      25.226   5.802  50.346  1.00  0.00    -0.366 N 
HETATM   19  H11 UNL     1      24.858   6.674  50.833  1.00  0.00     0.165 HD
BRANCH  18  20
HETATM   20  C11 UNL     1      26.279   6.115  49.443  1.00  0.00     0.027 A 
HETATM   21  C12 UNL     1      27.192   5.213  49.049  1.00  0.00     0.026 A 
HETATM   22  C13 UNL     1      28.132   5.827  48.131  1.00  0.00    -0.001 A 
HETATM   23  C14 UNL     1      27.799   7.074  47.969  1.00  0.00    -0.005 A 
HETATM   24  C15 UNL     1      26.592   7.380  48.784  1.00  0.00     0.130 A 
HETATM   25 BR1  UNL     1      26.953   8.788  50.054  1.00  0.00    -0.080 Br
ENDBRANCH  18  20
ENDBRANCH  17  18
ENDBRANCH  10  17
TORSDOF 3
ENDMDL
MODEL 6
REMARK VINA RESULT:      -7.5      4.948      7.717
REMARK  3 active torsions:
REMARK  status: ('A' for Active; 'I' for Inactive)
REMARK    1  A    between atoms: C9_10  and  C10_11 
REMARK    2  A    between atoms: C10_11  and  N2_12 
REMARK    3  A    between atoms: N2_12  and  C11_13 
ROOT
HETATM    1  C1  UNL     1      28.440  -1.294  53.315  1.00  0.00     0.048 C 
HETATM    2  C2  UNL     1      27.224  -0.476  53.065  1.00  0.00    -0.061 A 
HETATM    3  C3  UNL     1      26.092  -0.838  53.781  1.00  0.00     0.009 A 
HETATM    4  C4  UNL     1      24.945  -0.097  53.570  1.00  0.00     0.038 A 
HETATM    5  C5  UNL     1      24.925   0.961  52.684  1.00  0.00     0.086 A 
HETATM    6  C6  UNL     1      26.070   1.322  51.964  1.00  0.00    -0.006 A 
HETATM    7  C7  UNL     1      27.219   0.579  52.176  1.00  0.00     0.018 A 
HETATM    8  C8  UNL     1      26.329   2.372  50.982  1.00  0.00     0.161 C 
HETATM    9  N1  UNL     1      25.540   3.552  51.091  1.00  0.00    -0.381 N 
HETATM   10  C9  UNL     1      24.266   3.861  51.643  1.00  0.00     0.098 C 
HETATM   11  C16 UNL     1      23.344   2.809  52.050  1.00  0.00     0.209 C 
HETATM   12  N3  UNL     1      22.082   2.879  51.924  1.00  0.00    -0.146 NA
HETATM   13  C17 UNL     1      21.266   3.840  51.427  1.00  0.00     0.208 C 
HETATM   14  N4  UNL     1      20.567   4.635  51.003  1.00  0.00    -0.170 NA
HETATM   15  O1  UNL     1      23.653   1.562  52.638  1.00  0.00    -0.289 OA
HETATM   16  H9  UNL     1      25.968   4.433  50.675  1.00  0.00     0.160 HD
ENDROOT
BRANCH  10  17
HETATM   17  C10 UNL     1      23.790   5.054  51.858  1.00  0.00     0.121 C 
BRANCH  17  18
HETATM   18  N2  UNL     1      23.352   6.389  51.869  1.00  0.00    -0.366 N 
HETATM   19  H11 UNL     1      22.944   6.782  52.769  1.00  0.00     0.165 HD
BRANCH  18  20
HETATM   20  C11 UNL     1      23.357   7.362  50.832  1.00  0.00     0.027 A 
HETATM   21  C12 UNL     1      22.247   7.724  50.169  1.00  0.00     0.026 A 
HETATM   22  C13 UNL     1      22.569   8.731  49.175  1.00  0.00    -0.001 A 
HETATM   23  C14 UNL     1      23.844   8.977  49.233  1.00  0.00    -0.005 A 
HETATM   24  C15 UNL     1      24.470   8.136  50.287  1.00  0.00     0.130 A 
HETATM   25 BR1  UNL     1      25.844   7.001  49.544  1.00  0.00    -0.080 Br
ENDBRANCH  18  20
ENDBRANCH  17  18
ENDBRANCH  10  17
TORSDOF 3
ENDMDL
MODEL 7
REMARK VINA RESULT:      -7.5      3.074      8.007
REMARK  3 active torsions:
REMARK  status: ('A' for Active; 'I' for Inactive)
REMARK    1  A    between atoms: C9_10  and  C10_11 
REMARK    2  A    between atoms: C10_11  and  N2_12 
REMARK    3  A    between atoms: N2_12  and  C11_13 
ROOT
HETATM    1  C1  UNL     1      30.148  -1.054  54.005  1.00  0.00     0.048 C 
HETATM    2  C2  UNL     1      28.977  -0.183  53.726  1.00  0.00    -0.061 A 
HETATM    3  C3  UNL     1      29.260   1.152  53.471  1.00  0.00     0.009 A 
HETATM    4  C4  UNL     1      28.192   1.987  53.207  1.00  0.00     0.038 A 
HETATM    5  C5  UNL     1      26.895   1.516  53.196  1.00  0.00     0.086 A 
HETATM    6  C6  UNL     1      26.615   0.168  53.454  1.00  0.00    -0.006 A 
HETATM    7  C7  UNL     1      27.686  -0.669  53.718  1.00  0.00     0.018 A 
HETATM    8  C8  UNL     1      25.365  -0.587  53.507  1.00  0.00     0.161 C 
HETATM    9  N1  UNL     1      24.297  -0.106  52.698  1.00  0.00    -0.381 N 
HETATM   10  C9  UNL     1      23.948   1.155  52.142  1.00  0.00     0.098 C 
HETATM   11  C16 UNL     1      24.622   2.377  52.559  1.00  0.00     0.209 C 
HETATM   12  N3  UNL     1      24.048   3.505  52.671  1.00  0.00    -0.146 NA
HETATM   13  C17 UNL     1      22.769   3.902  52.467  1.00  0.00     0.208 C 
HETATM   14  N4  UNL     1      21.695   4.251  52.308  1.00  0.00    -0.170 NA
HETATM   15  O1  UNL     1      25.982   2.545  52.905  1.00  0.00    -0.289 OA
HETATM   16  H9  UNL     1      23.565  -0.829  52.423  1.00  0.00     0.160 HD
ENDROOT
BRANCH  10  17
HETATM   17  C10 UNL     1      23.045   1.369  51.229  1.00  0.00     0.121 C 
BRANCH  17  18
HETATM   18  N2  UNL     1      21.915   1.517  50.406  1.00  0.00    -0.366 N 
HETATM   19  H11 UNL     1      22.023   2.040  49.485  1.00  0.00     0.165 HD
BRANCH  18  20
HETATM   20  C11 UNL     1      20.579   1.070  50.597  1.00  0.00     0.027 A 
HETATM   21  C12 UNL     1      19.557   1.481  49.829  1.00  0.00     0.026 A 
HETATM   22  C13 UNL     1      18.324   0.853  50.265  1.00  0.00    -0.001 A 
HETATM   23  C14 UNL     1      18.590   0.076  51.274  1.00  0.00    -0.005 A 
HETATM   24  C15 UNL     1      20.043   0.136  51.584  1.00  0.00     0.130 A 
HETATM   25 BR1  UNL     1      20.342   0.745  53.392  1.00  0.00    -0.080 Br
ENDBRANCH  18  20
ENDBRANCH  17  18
ENDBRANCH  10  17
TORSDOF 3
ENDMDL
MODEL 8
REMARK VINA RESULT:      -7.2      2.383      3.165
REMARK  3 active torsions:
REMARK  status: ('A' for Active; 'I' for Inactive)
REMARK    1  A    between atoms: C9_10  and  C10_11 
REMARK    2  A    between atoms: C10_11  and  N2_12 
REMARK    3  A    between atoms: N2_12  and  C11_13 
ROOT
HETATM    1  C1  UNL     1      18.916   4.435  48.562  1.00  0.00     0.048 C 
HETATM    2  C2  UNL     1      19.393   3.438  49.556  1.00  0.00    -0.061 A 
HETATM    3  C3  UNL     1      18.721   2.223  49.567  1.00  0.00     0.009 A 
HETATM    4  C4  UNL     1      19.141   1.276  50.480  1.00  0.00     0.038 A 
HETATM    5  C5  UNL     1      20.187   1.524  51.346  1.00  0.00     0.086 A 
HETATM    6  C6  UNL     1      20.862   2.751  51.329  1.00  0.00    -0.006 A 
HETATM    7  C7  UNL     1      20.441   3.701  50.414  1.00  0.00     0.018 A 
HETATM    8  C8  UNL     1      21.977   3.275  52.114  1.00  0.00     0.161 C 
HETATM    9  N1  UNL     1      22.904   2.318  52.619  1.00  0.00    -0.381 N 
HETATM   10  C9  UNL     1      22.846   0.931  52.929  1.00  0.00     0.098 C 
HETATM   11  C16 UNL     1      21.575   0.222  52.987  1.00  0.00     0.209 C 
HETATM   12  N3  UNL     1      21.315  -0.708  53.813  1.00  0.00    -0.146 NA
HETATM   13  C17 UNL     1      22.044  -1.282  54.799  1.00  0.00     0.208 C 
HETATM   14  N4  UNL     1      22.641  -1.770  55.639  1.00  0.00    -0.170 NA
HETATM   15  O1  UNL     1      20.434   0.417  52.178  1.00  0.00    -0.289 OA
HETATM   16  H9  UNL     1      23.881   2.687  52.826  1.00  0.00     0.160 HD
ENDROOT
BRANCH  10  17
HETATM   17  C10 UNL     1      23.863   0.155  53.171  1.00  0.00     0.121 C 
BRANCH  17  18
HETATM   18  N2  UNL     1      25.006  -0.533  53.614  1.00  0.00    -0.366 N 
HETATM   19  H11 UNL     1      24.897  -1.537  53.948  1.00  0.00     0.165 HD
BRANCH  18  20
HETATM   20  C11 UNL     1      26.358  -0.101  53.699  1.00  0.00     0.027 A 
HETATM   21  C12 UNL     1      27.001   0.051  54.868  1.00  0.00     0.026 A 
HETATM   22  C13 UNL     1      28.360   0.500  54.633  1.00  0.00    -0.001 A 
HETATM   23  C14 UNL     1      28.541   0.618  53.351  1.00  0.00    -0.005 A 
HETATM   24  C15 UNL     1      27.292   0.249  52.632  1.00  0.00     0.130 A 
HETATM   25 BR1  UNL     1      26.648   1.721  51.561  1.00  0.00    -0.080 Br
ENDBRANCH  18  20
ENDBRANCH  17  18
ENDBRANCH  10  17
TORSDOF 3
ENDMDL
MODEL 9
REMARK VINA RESULT:      -7.0      1.625      2.283
REMARK  3 active torsions:
REMARK  status: ('A' for Active; 'I' for Inactive)
REMARK    1  A    between atoms: C9_10  and  C10_11 
REMARK    2  A    between atoms: C10_11  and  N2_12 
REMARK    3  A    between atoms: N2_12  and  C11_13 
ROOT
HETATM    1  C1  UNL     1      15.990   2.142  49.307  1.00  0.00     0.048 C 
HETATM    2  C2  UNL     1      16.969   1.502  50.224  1.00  0.00    -0.061 A 
HETATM    3  C3  UNL     1      16.789   0.145  50.452  1.00  0.00     0.009 A 
HETATM    4  C4  UNL     1      17.684  -0.479  51.300  1.00  0.00     0.038 A 
HETATM    5  C5  UNL     1      18.716   0.217  51.896  1.00  0.00     0.086 A 
HETATM    6  C6  UNL     1      18.893   1.587  51.661  1.00  0.00    -0.006 A 
HETATM    7  C7  UNL     1      17.996   2.211  50.811  1.00  0.00     0.018 A 
HETATM    8  C8  UNL     1      19.875   2.552  52.148  1.00  0.00     0.161 C 
HETATM    9  N1  UNL     1      21.159   2.038  52.486  1.00  0.00    -0.381 N 
HETATM   10  C9  UNL     1      21.659   0.765  52.877  1.00  0.00     0.098 C 
HETATM   11  C16 UNL     1      20.760  -0.316  53.257  1.00  0.00     0.209 C 
HETATM   12  N3  UNL     1      21.010  -1.163  54.170  1.00  0.00    -0.146 NA
HETATM   13  C17 UNL     1      22.068  -1.326  55.000  1.00  0.00     0.208 C 
HETATM   14  N4  UNL     1      22.947  -1.470  55.711  1.00  0.00    -0.170 NA
HETATM   15  O1  UNL     1      19.493  -0.624  52.712  1.00  0.00    -0.289 OA
HETATM   16  H9  UNL     1      21.961   2.737  52.449  1.00  0.00     0.160 HD
ENDROOT
BRANCH  10  17
HETATM   17  C10 UNL     1      22.912   0.415  52.930  1.00  0.00     0.121 C 
BRANCH  17  18
HETATM   18  N2  UNL     1      24.182  -0.186  52.972  1.00  0.00    -0.366 N 
HETATM   19  H11 UNL     1      24.241  -1.239  53.114  1.00  0.00     0.165 HD
BRANCH  18  20
HETATM   20  C11 UNL     1      25.474   0.396  52.855  1.00  0.00     0.027 A 
HETATM   21  C12 UNL     1      25.699   1.543  52.194  1.00  0.00     0.026 A 
HETATM   22  C13 UNL     1      27.109   1.880  52.249  1.00  0.00    -0.001 A 
HETATM   23  C14 UNL     1      27.728   0.961  52.929  1.00  0.00    -0.005 A 
HETATM   24  C15 UNL     1      26.755  -0.070  53.381  1.00  0.00     0.130 A 
HETATM   25 BR1  UNL     1      27.226  -1.813  52.699  1.00  0.00    -0.080 Br
ENDBRANCH  18  20
ENDBRANCH  17  18
ENDBRANCH  10  17
TORSDOF 3
ENDMDL
