MODEL 1
REMARK VINA RESULT:      -7.0      0.000      0.000
REMARK  7 active torsions:
REMARK  status: ('A' for Active; 'I' for Inactive)
REMARK    1  A    between atoms: N1_2  and  C3_4 
REMARK    2  A    between atoms: C3_4  and  C4_5 
REMARK    3  A    between atoms: C4_5  and  C5_6 
REMARK    4  A    between atoms: C5_6  and  C6_8 
REMARK    5  A    between atoms: C9_11  and  O2_12 
REMARK    6  A    between atoms: O2_12  and  S1_13 
REMARK    7  A    between atoms: S1_13  and  C10_14 
ROOT
HETATM    1  C6  UNL     1      24.964   0.778  53.449  1.00  0.00     0.010 A 
HETATM    2  C7  UNL     1      25.326   2.100  53.594  1.00  0.00     0.018 A 
HETATM    3  C8  UNL     1      24.484   3.027  52.967  1.00  0.00     0.039 A 
HETATM    4  C9  UNL     1      23.358   2.660  52.244  1.00  0.00     0.085 A 
HETATM    5  C16 UNL     1      23.061   1.313  52.144  1.00  0.00     0.039 A 
HETATM    6  C17 UNL     1      23.859   0.372  52.743  1.00  0.00     0.018 A 
ENDROOT
BRANCH   4   7
HETATM    7  O2  UNL     1      22.574   3.622  51.652  1.00  0.00    -0.274 OA
BRANCH   7   8
HETATM    8  S1  UNL     1      22.676   3.821  49.927  1.00  0.00     0.035 SA
BRANCH   8   9
HETATM    9  C10 UNL     1      24.341   4.310  49.523  1.00  0.00     0.029 A 
HETATM   10  C11 UNL     1      25.412   3.426  49.583  1.00  0.00     0.021 A 
HETATM   11  C12 UNL     1      26.721   3.720  49.290  1.00  0.00     0.001 A 
HETATM   12  C13 UNL     1      26.993   5.025  48.895  1.00  0.00     0.000 A 
HETATM   13  C14 UNL     1      25.961   5.954  48.817  1.00  0.00     0.001 A 
HETATM   14  C15 UNL     1      24.668   5.593  49.126  1.00  0.00     0.021 A 
ENDBRANCH   8   9
ENDBRANCH   7   8
ENDBRANCH   4   7
BRANCH   1  15
HETATM   15  C5  UNL     1      25.833  -0.186  54.096  1.00  0.00     0.161 C 
HETATM   16  O1  UNL     1      25.383  -0.920  55.025  1.00  0.00    -0.292 OA
BRANCH  15  17
HETATM   17  C4  UNL     1      27.254  -0.482  53.842  1.00  0.00     0.114 C 
BRANCH  17  18
HETATM   18  C3  UNL     1      28.079   0.116  54.956  1.00  0.00     0.279 C 
BRANCH  18  19
HETATM   19  N1  UNL     1      29.238   0.733  54.370  1.00  0.00     0.080 N 
HETATM   20  C1  UNL     1      29.956  -0.108  53.456  1.00  0.00     0.309 C 
HETATM   21  C2  UNL     1      28.967   2.058  53.858  1.00  0.00     0.309 C 
ENDBRANCH  18  19
ENDBRANCH  17  18
ENDBRANCH  15  17
ENDBRANCH   1  15
TORSDOF 7
ENDMDL
MODEL 2
REMARK VINA RESULT:      -6.7      2.444      4.853
REMARK  7 active torsions:
REMARK  status: ('A' for Active; 'I' for Inactive)
REMARK    1  A    between atoms: N1_2  and  C3_4 
REMARK    2  A    between atoms: C3_4  and  C4_5 
REMARK    3  A    between atoms: C4_5  and  C5_6 
REMARK    4  A    between atoms: C5_6  and  C6_8 
REMARK    5  A    between atoms: C9_11  and  O2_12 
REMARK    6  A    between atoms: O2_12  and  S1_13 
REMARK    7  A    between atoms: S1_13  and  C10_14 
ROOT
HETATM    1  C6  UNL     1      26.247   2.216  52.703  1.00  0.00     0.010 A 
HETATM    2  C7  UNL     1      26.079   2.019  51.349  1.00  0.00     0.018 A 
HETATM    3  C8  UNL     1      24.802   2.310  50.853  1.00  0.00     0.039 A 
HETATM    4  C9  UNL     1      23.763   2.764  51.653  1.00  0.00     0.085 A 
HETATM    5  C16 UNL     1      24.011   2.936  53.003  1.00  0.00     0.039 A 
HETATM    6  C17 UNL     1      25.248   2.664  53.530  1.00  0.00     0.018 A 
ENDROOT
BRANCH   4   7
HETATM    7  O2  UNL     1      22.533   3.031  51.102  1.00  0.00    -0.274 OA
BRANCH   7   8
HETATM    8  S1  UNL     1      21.411   1.713  50.917  1.00  0.00     0.035 SA
BRANCH   8   9
HETATM    9  C10 UNL     1      21.493   0.705  52.383  1.00  0.00     0.029 A 
HETATM   10  C11 UNL     1      20.751   0.988  53.524  1.00  0.00     0.021 A 
HETATM   11  C12 UNL     1      20.755   0.266  54.692  1.00  0.00     0.001 A 
HETATM   12  C13 UNL     1      21.581  -0.852  54.729  1.00  0.00     0.000 A 
HETATM   13  C14 UNL     1      22.347  -1.185  53.618  1.00  0.00     0.001 A 
HETATM   14  C15 UNL     1      22.296  -0.417  52.476  1.00  0.00     0.021 A 
ENDBRANCH   8   9
ENDBRANCH   7   8
ENDBRANCH   4   7
BRANCH   1  15
HETATM   15  C5  UNL     1      27.568   1.916  53.222  1.00  0.00     0.161 C 
HETATM   16  O1  UNL     1      28.580   2.522  52.762  1.00  0.00    -0.292 OA
BRANCH  15  17
HETATM   17  C4  UNL     1      27.966   0.956  54.267  1.00  0.00     0.114 C 
BRANCH  17  18
HETATM   18  C3  UNL     1      27.223  -0.338  54.045  1.00  0.00     0.279 C 
BRANCH  18  19
HETATM   19  N1  UNL     1      27.927  -1.089  53.041  1.00  0.00     0.080 N 
HETATM   20  C1  UNL     1      29.271  -1.440  53.401  1.00  0.00     0.309 C 
HETATM   21  C2  UNL     1      27.152  -2.194  52.523  1.00  0.00     0.309 C 
ENDBRANCH  18  19
ENDBRANCH  17  18
ENDBRANCH  15  17
ENDBRANCH   1  15
TORSDOF 7
ENDMDL
MODEL 3
REMARK VINA RESULT:      -6.7      1.949      2.500
REMARK  7 active torsions:
REMARK  status: ('A' for Active; 'I' for Inactive)
REMARK    1  A    between atoms: N1_2  and  C3_4 
REMARK    2  A    between atoms: C3_4  and  C4_5 
REMARK    3  A    between atoms: C4_5  and  C5_6 
REMARK    4  A    between atoms: C5_6  and  C6_8 
REMARK    5  A    between atoms: C9_11  and  O2_12 
REMARK    6  A    between atoms: O2_12  and  S1_13 
REMARK    7  A    between atoms: S1_13  and  C10_14 
ROOT
HETATM    1  C6  UNL     1      25.440   1.265  51.991  1.00  0.00     0.010 A 
HETATM    2  C7  UNL     1      26.579   1.779  51.410  1.00  0.00     0.018 A 
HETATM    3  C8  UNL     1      26.367   2.766  50.440  1.00  0.00     0.039 A 
HETATM    4  C9  UNL     1      25.105   3.210  50.073  1.00  0.00     0.085 A 
HETATM    5  C16 UNL     1      24.010   2.645  50.703  1.00  0.00     0.039 A 
HETATM    6  C17 UNL     1      24.173   1.676  51.659  1.00  0.00     0.018 A 
ENDROOT
BRANCH   4   7
HETATM    7  O2  UNL     1      24.967   4.183  49.112  1.00  0.00    -0.274 OA
BRANCH   7   8
HETATM    8  S1  UNL     1      25.402   5.816  49.525  1.00  0.00     0.035 SA
BRANCH   8   9
HETATM    9  C10 UNL     1      26.892   6.234  48.641  1.00  0.00     0.029 A 
HETATM   10  C11 UNL     1      28.009   5.406  48.633  1.00  0.00     0.021 A 
HETATM   11  C12 UNL     1      29.192   5.651  47.980  1.00  0.00     0.001 A 
HETATM   12  C13 UNL     1      29.272   6.839  47.263  1.00  0.00     0.000 A 
HETATM   13  C14 UNL     1      28.187   7.706  47.235  1.00  0.00     0.001 A 
HETATM   14  C15 UNL     1      27.027   7.400  47.912  1.00  0.00     0.021 A 
ENDBRANCH   8   9
ENDBRANCH   7   8
ENDBRANCH   4   7
BRANCH   1  15
HETATM   15  C5  UNL     1      25.654   0.242  52.996  1.00  0.00     0.161 C 
HETATM   16  O1  UNL     1      24.673  -0.210  53.658  1.00  0.00    -0.292 OA
BRANCH  15  17
HETATM   17  C4  UNL     1      26.907  -0.411  53.413  1.00  0.00     0.114 C 
BRANCH  17  18
HETATM   18  C3  UNL     1      27.377   0.221  54.701  1.00  0.00     0.279 C 
BRANCH  18  19
HETATM   19  N1  UNL     1      28.789   0.467  54.587  1.00  0.00     0.080 N 
HETATM   20  C1  UNL     1      29.520  -0.580  53.931  1.00  0.00     0.309 C 
HETATM   21  C2  UNL     1      29.088   1.791  54.088  1.00  0.00     0.309 C 
ENDBRANCH  18  19
ENDBRANCH  17  18
ENDBRANCH  15  17
ENDBRANCH   1  15
TORSDOF 7
ENDMDL
MODEL 4
REMARK VINA RESULT:      -6.7      3.662      5.946
REMARK  7 active torsions:
REMARK  status: ('A' for Active; 'I' for Inactive)
REMARK    1  A    between atoms: N1_2  and  C3_4 
REMARK    2  A    between atoms: C3_4  and  C4_5 
REMARK    3  A    between atoms: C4_5  and  C5_6 
REMARK    4  A    between atoms: C5_6  and  C6_8 
REMARK    5  A    between atoms: C9_11  and  O2_12 
REMARK    6  A    between atoms: O2_12  and  S1_13 
REMARK    7  A    between atoms: S1_13  and  C10_14 
ROOT
HETATM    1  C6  UNL     1      24.277  -0.078  53.568  1.00  0.00     0.010 A 
HETATM    2  C7  UNL     1      24.302   1.120  52.887  1.00  0.00     0.018 A 
HETATM    3  C8  UNL     1      23.050   1.625  52.511  1.00  0.00     0.039 A 
HETATM    4  C9  UNL     1      21.856   0.977  52.793  1.00  0.00     0.085 A 
HETATM    5  C16 UNL     1      21.915  -0.222  53.480  1.00  0.00     0.039 A 
HETATM    6  C17 UNL     1      23.119  -0.751  53.868  1.00  0.00     0.018 A 
ENDROOT
BRANCH   4   7
HETATM    7  O2  UNL     1      20.661   1.527  52.394  1.00  0.00    -0.274 OA
BRANCH   7   8
HETATM    8  S1  UNL     1      19.883   0.871  50.983  1.00  0.00     0.035 SA
BRANCH   8   9
HETATM    9  C10 UNL     1      18.464  -0.064  51.517  1.00  0.00     0.029 A 
HETATM   10  C11 UNL     1      17.305  -0.157  50.755  1.00  0.00     0.021 A 
HETATM   11  C12 UNL     1      16.170  -0.854  51.091  1.00  0.00     0.001 A 
HETATM   12  C13 UNL     1      16.191  -1.527  52.308  1.00  0.00     0.000 A 
HETATM   13  C14 UNL     1      17.323  -1.470  53.112  1.00  0.00     0.001 A 
HETATM   14  C15 UNL     1      18.429  -0.752  52.716  1.00  0.00     0.021 A 
ENDBRANCH   8   9
ENDBRANCH   7   8
ENDBRANCH   4   7
BRANCH   1  15
HETATM   15  C5  UNL     1      25.570  -0.604  53.959  1.00  0.00     0.161 C 
HETATM   16  O1  UNL     1      25.882  -0.669  55.185  1.00  0.00    -0.292 OA
BRANCH  15  17
HETATM   17  C4  UNL     1      26.667  -1.113  53.116  1.00  0.00     0.114 C 
BRANCH  17  18
HETATM   18  C3  UNL     1      27.668  -0.004  52.903  1.00  0.00     0.279 C 
BRANCH  18  19
HETATM   19  N1  UNL     1      28.707  -0.147  53.886  1.00  0.00     0.080 N 
HETATM   20  C1  UNL     1      29.746  -1.066  53.518  1.00  0.00     0.309 C 
HETATM   21  C2  UNL     1      29.195   1.124  54.374  1.00  0.00     0.309 C 
ENDBRANCH  18  19
ENDBRANCH  17  18
ENDBRANCH  15  17
ENDBRANCH   1  15
TORSDOF 7
ENDMDL
MODEL 5
REMARK VINA RESULT:      -6.6      5.220      8.260
REMARK  7 active torsions:
REMARK  status: ('A' for Active; 'I' for Inactive)
REMARK    1  A    between atoms: N1_2  and  C3_4 
REMARK    2  A    between atoms: C3_4  and  C4_5 
REMARK    3  A    between atoms: C4_5  and  C5_6 
REMARK    4  A    between atoms: C5_6  and  C6_8 
REMARK    5  A    between atoms: C9_11  and  O2_12 
REMARK    6  A    between atoms: O2_12  and  S1_13 
REMARK    7  A    between atoms: S1_13  and  C10_14 
ROOT
HETATM    1  C6  UNL     1      20.364  -0.675  53.258  1.00  0.00     0.010 A 
HETATM    2  C7  UNL     1      20.854  -1.431  54.301  1.00  0.00     0.018 A 
HETATM    3  C8  UNL     1      22.233  -1.329  54.522  1.00  0.00     0.039 A 
HETATM    4  C9  UNL     1      23.066  -0.528  53.754  1.00  0.00     0.085 A 
HETATM    5  C16 UNL     1      22.498   0.200  52.724  1.00  0.00     0.039 A 
HETATM    6  C17 UNL     1      21.152   0.130  52.474  1.00  0.00     0.018 A 
ENDROOT
BRANCH   4   7
HETATM    7  O2  UNL     1      24.413  -0.474  54.024  1.00  0.00    -0.274 OA
BRANCH   7   8
HETATM    8  S1  UNL     1      25.434   0.433  52.946  1.00  0.00     0.035 SA
BRANCH   8   9
HETATM    9  C10 UNL     1      27.112  -0.118  53.176  1.00  0.00     0.029 A 
HETATM   10  C11 UNL     1      28.125   0.736  53.596  1.00  0.00     0.021 A 
HETATM   11  C12 UNL     1      29.440   0.394  53.798  1.00  0.00     0.001 A 
HETATM   12  C13 UNL     1      29.782  -0.932  53.559  1.00  0.00     0.000 A 
HETATM   13  C14 UNL     1      28.810  -1.833  53.138  1.00  0.00     0.001 A 
HETATM   14  C15 UNL     1      27.508  -1.424  52.954  1.00  0.00     0.021 A 
ENDBRANCH   8   9
ENDBRANCH   7   8
ENDBRANCH   4   7
BRANCH   1  15
HETATM   15  C5  UNL     1      18.936  -0.778  53.025  1.00  0.00     0.161 C 
HETATM   16  O1  UNL     1      18.356   0.060  52.273  1.00  0.00    -0.292 OA
BRANCH  15  17
HETATM   17  C4  UNL     1      17.971  -1.760  53.550  1.00  0.00     0.114 C 
BRANCH  17  18
HETATM   18  C3  UNL     1      16.705  -1.680  52.731  1.00  0.00     0.279 C 
BRANCH  18  19
HETATM   19  N1  UNL     1      16.157  -3.006  52.629  1.00  0.00     0.080 N 
HETATM   20  C1  UNL     1      16.766  -3.965  53.506  1.00  0.00     0.309 C 
HETATM   21  C2  UNL     1      14.712  -3.018  52.660  1.00  0.00     0.309 C 
ENDBRANCH  18  19
ENDBRANCH  17  18
ENDBRANCH  15  17
ENDBRANCH   1  15
TORSDOF 7
ENDMDL
MODEL 6
REMARK VINA RESULT:      -6.6      3.762      6.037
REMARK  7 active torsions:
REMARK  status: ('A' for Active; 'I' for Inactive)
REMARK    1  A    between atoms: N1_2  and  C3_4 
REMARK    2  A    between atoms: C3_4  and  C4_5 
REMARK    3  A    between atoms: C4_5  and  C5_6 
REMARK    4  A    between atoms: C5_6  and  C6_8 
REMARK    5  A    between atoms: C9_11  and  O2_12 
REMARK    6  A    between atoms: O2_12  and  S1_13 
REMARK    7  A    between atoms: S1_13  and  C10_14 
ROOT
HETATM    1  C6  UNL     1      24.149  -0.205  53.461  1.00  0.00     0.010 A 
HETATM    2  C7  UNL     1      23.041  -0.718  54.099  1.00  0.00     0.018 A 
HETATM    3  C8  UNL     1      21.819  -0.126  53.753  1.00  0.00     0.039 A 
HETATM    4  C9  UNL     1      21.711   0.907  52.834  1.00  0.00     0.085 A 
HETATM    5  C16 UNL     1      22.871   1.368  52.236  1.00  0.00     0.039 A 
HETATM    6  C17 UNL     1      24.087   0.816  52.545  1.00  0.00     0.018 A 
ENDROOT
BRANCH   4   7
HETATM    7  O2  UNL     1      20.480   1.444  52.540  1.00  0.00    -0.274 OA
BRANCH   7   8
HETATM    8  S1  UNL     1      19.708   0.969  51.055  1.00  0.00     0.035 SA
BRANCH   8   9
HETATM    9  C10 UNL     1      18.292  -0.033  51.463  1.00  0.00     0.029 A 
HETATM   10  C11 UNL     1      18.227  -0.792  52.625  1.00  0.00     0.021 A 
HETATM   11  C12 UNL     1      17.178  -1.588  53.015  1.00  0.00     0.001 A 
HETATM   12  C13 UNL     1      16.081  -1.633  52.161  1.00  0.00     0.000 A 
HETATM   13  C14 UNL     1      16.089  -0.895  50.984  1.00  0.00     0.001 A 
HETATM   14  C15 UNL     1      17.175  -0.115  50.652  1.00  0.00     0.021 A 
ENDBRANCH   8   9
ENDBRANCH   7   8
ENDBRANCH   4   7
BRANCH   1  15
HETATM   15  C5  UNL     1      25.416  -0.814  53.816  1.00  0.00     0.161 C 
HETATM   16  O1  UNL     1      25.677  -1.070  55.029  1.00  0.00    -0.292 OA
BRANCH  15  17
HETATM   17  C4  UNL     1      26.537  -1.216  52.948  1.00  0.00     0.114 C 
BRANCH  17  18
HETATM   18  C3  UNL     1      27.559  -0.105  52.933  1.00  0.00     0.279 C 
BRANCH  18  19
HETATM   19  N1  UNL     1      28.582  -0.429  53.890  1.00  0.00     0.080 N 
HETATM   20  C1  UNL     1      29.675  -1.188  53.352  1.00  0.00     0.309 C 
HETATM   21  C2  UNL     1      28.993   0.713  54.677  1.00  0.00     0.309 C 
ENDBRANCH  18  19
ENDBRANCH  17  18
ENDBRANCH  15  17
ENDBRANCH   1  15
TORSDOF 7
ENDMDL
MODEL 7
REMARK VINA RESULT:      -6.6      1.658      2.302
REMARK  7 active torsions:
REMARK  status: ('A' for Active; 'I' for Inactive)
REMARK    1  A    between atoms: N1_2  and  C3_4 
REMARK    2  A    between atoms: C3_4  and  C4_5 
REMARK    3  A    between atoms: C4_5  and  C5_6 
REMARK    4  A    between atoms: C5_6  and  C6_8 
REMARK    5  A    between atoms: C9_11  and  O2_12 
REMARK    6  A    between atoms: O2_12  and  S1_13 
REMARK    7  A    between atoms: S1_13  and  C10_14 
ROOT
HETATM    1  C6  UNL     1      23.629   1.155  52.676  1.00  0.00     0.010 A 
HETATM    2  C7  UNL     1      24.197   2.334  53.107  1.00  0.00     0.018 A 
HETATM    3  C8  UNL     1      24.049   3.426  52.242  1.00  0.00     0.039 A 
HETATM    4  C9  UNL     1      23.379   3.346  51.029  1.00  0.00     0.085 A 
HETATM    5  C16 UNL     1      22.836   2.126  50.667  1.00  0.00     0.039 A 
HETATM    6  C17 UNL     1      22.958   1.032  51.484  1.00  0.00     0.018 A 
ENDROOT
BRANCH   4   7
HETATM    7  O2  UNL     1      23.270   4.456  50.226  1.00  0.00    -0.274 OA
BRANCH   7   8
HETATM    8  S1  UNL     1      24.187   5.873  50.651  1.00  0.00     0.035 SA
BRANCH   8   9
HETATM    9  C10 UNL     1      25.711   5.845  49.728  1.00  0.00     0.029 A 
HETATM   10  C11 UNL     1      26.335   7.005  49.285  1.00  0.00     0.021 A 
HETATM   11  C12 UNL     1      27.506   7.072  48.571  1.00  0.00     0.001 A 
HETATM   12  C13 UNL     1      28.119   5.862  48.267  1.00  0.00     0.000 A 
HETATM   13  C14 UNL     1      27.541   4.669  48.683  1.00  0.00     0.001 A 
HETATM   14  C15 UNL     1      26.363   4.672  49.397  1.00  0.00     0.021 A 
ENDBRANCH   8   9
ENDBRANCH   7   8
ENDBRANCH   4   7
BRANCH   1  15
HETATM   15  C5  UNL     1      23.780   0.022  53.568  1.00  0.00     0.161 C 
HETATM   16  O1  UNL     1      22.769  -0.668  53.892  1.00  0.00    -0.292 OA
BRANCH  15  17
HETATM   17  C4  UNL     1      24.996  -0.505  54.212  1.00  0.00     0.114 C 
BRANCH  17  18
HETATM   18  C3  UNL     1      25.998  -0.859  53.140  1.00  0.00     0.279 C 
BRANCH  18  19
HETATM   19  N1  UNL     1      27.206  -0.124  53.399  1.00  0.00     0.080 N 
HETATM   20  C1  UNL     1      27.424   0.985  52.514  1.00  0.00     0.309 C 
HETATM   21  C2  UNL     1      27.373   0.202  54.798  1.00  0.00     0.309 C 
ENDBRANCH  18  19
ENDBRANCH  17  18
ENDBRANCH  15  17
ENDBRANCH   1  15
TORSDOF 7
ENDMDL
MODEL 8
REMARK VINA RESULT:      -6.5      4.492      7.358
REMARK  7 active torsions:
REMARK  status: ('A' for Active; 'I' for Inactive)
REMARK    1  A    between atoms: N1_2  and  C3_4 
REMARK    2  A    between atoms: C3_4  and  C4_5 
REMARK    3  A    between atoms: C4_5  and  C5_6 
REMARK    4  A    between atoms: C5_6  and  C6_8 
REMARK    5  A    between atoms: C9_11  and  O2_12 
REMARK    6  A    between atoms: O2_12  and  S1_13 
REMARK    7  A    between atoms: S1_13  and  C10_14 
ROOT
HETATM    1  C6  UNL     1      20.609  -0.151  52.712  1.00  0.00     0.010 A 
HETATM    2  C7  UNL     1      20.998  -0.759  53.886  1.00  0.00     0.018 A 
HETATM    3  C8  UNL     1      22.362  -0.665  54.189  1.00  0.00     0.039 A 
HETATM    4  C9  UNL     1      23.276  -0.011  53.376  1.00  0.00     0.085 A 
HETATM    5  C16 UNL     1      22.808   0.574  52.213  1.00  0.00     0.039 A 
HETATM    6  C17 UNL     1      21.480   0.507  51.879  1.00  0.00     0.018 A 
ENDROOT
BRANCH   4   7
HETATM    7  O2  UNL     1      24.603   0.043  53.732  1.00  0.00    -0.274 OA
BRANCH   7   8
HETATM    8  S1  UNL     1      25.734   0.719  52.596  1.00  0.00     0.035 SA
BRANCH   8   9
HETATM    9  C10 UNL     1      27.357   0.104  52.997  1.00  0.00     0.029 A 
HETATM   10  C11 UNL     1      27.681  -1.246  52.923  1.00  0.00     0.021 A 
HETATM   11  C12 UNL     1      28.902  -1.802  53.213  1.00  0.00     0.001 A 
HETATM   12  C13 UNL     1      29.904  -0.926  53.617  1.00  0.00     0.000 A 
HETATM   13  C14 UNL     1      29.639   0.435  53.709  1.00  0.00     0.001 A 
HETATM   14  C15 UNL     1      28.390   0.928  53.404  1.00  0.00     0.021 A 
ENDBRANCH   8   9
ENDBRANCH   7   8
ENDBRANCH   4   7
BRANCH   1  15
HETATM   15  C5  UNL     1      19.198  -0.245  52.394  1.00  0.00     0.161 C 
HETATM   16  O1  UNL     1      18.393  -0.753  53.230  1.00  0.00    -0.292 OA
BRANCH  15  17
HETATM   17  C4  UNL     1      18.483   0.177  51.176  1.00  0.00     0.114 C 
BRANCH  17  18
HETATM   18  C3  UNL     1      17.727   1.449  51.474  1.00  0.00     0.279 C 
BRANCH  18  19
HETATM   19  N1  UNL     1      18.337   2.515  50.726  1.00  0.00     0.080 N 
HETATM   20  C1  UNL     1      19.131   3.412  51.517  1.00  0.00     0.309 C 
HETATM   21  C2  UNL     1      18.997   2.050  49.527  1.00  0.00     0.309 C 
ENDBRANCH  18  19
ENDBRANCH  17  18
ENDBRANCH  15  17
ENDBRANCH   1  15
TORSDOF 7
ENDMDL
MODEL 9
REMARK VINA RESULT:      -6.5      3.374      7.013
REMARK  7 active torsions:
REMARK  status: ('A' for Active; 'I' for Inactive)
REMARK    1  A    between atoms: N1_2  and  C3_4 
REMARK    2  A    between atoms: C3_4  and  C4_5 
REMARK    3  A    between atoms: C4_5  and  C5_6 
REMARK    4  A    between atoms: C5_6  and  C6_8 
REMARK    5  A    between atoms: C9_11  and  O2_12 
REMARK    6  A    between atoms: O2_12  and  S1_13 
REMARK    7  A    between atoms: S1_13  and  C10_14 
ROOT
HETATM    1  C6  UNL     1      27.094   5.930  48.538  1.00  0.00     0.010 A 
HETATM    2  C7  UNL     1      27.599   4.681  48.830  1.00  0.00     0.018 A 
HETATM    3  C8  UNL     1      26.667   3.753  49.311  1.00  0.00     0.039 A 
HETATM    4  C9  UNL     1      25.324   4.051  49.490  1.00  0.00     0.085 A 
HETATM    5  C16 UNL     1      24.894   5.327  49.174  1.00  0.00     0.039 A 
HETATM    6  C17 UNL     1      25.773   6.267  48.700  1.00  0.00     0.018 A 
ENDROOT
BRANCH   4   7
HETATM    7  O2  UNL     1      24.462   3.092  49.967  1.00  0.00    -0.274 OA
BRANCH   7   8
HETATM    8  S1  UNL     1      24.246   2.962  51.689  1.00  0.00     0.035 SA
BRANCH   8   9
HETATM    9  C10 UNL     1      24.966   1.422  52.223  1.00  0.00     0.029 A 
HETATM   10  C11 UNL     1      26.221   1.001  51.799  1.00  0.00     0.021 A 
HETATM   11  C12 UNL     1      26.847  -0.167  52.161  1.00  0.00     0.001 A 
HETATM   12  C13 UNL     1      26.154  -1.000  53.033  1.00  0.00     0.000 A 
HETATM   13  C14 UNL     1      24.895  -0.630  53.490  1.00  0.00     0.001 A 
HETATM   14  C15 UNL     1      24.323   0.556  53.088  1.00  0.00     0.021 A 
ENDBRANCH   8   9
ENDBRANCH   7   8
ENDBRANCH   4   7
BRANCH   1  15
HETATM   15  C5  UNL     1      28.055   6.895  48.040  1.00  0.00     0.161 C 
HETATM   16  O1  UNL     1      27.774   8.130  48.048  1.00  0.00    -0.292 OA
BRANCH  15  17
HETATM   17  C4  UNL     1      29.402   6.673  47.483  1.00  0.00     0.114 C 
BRANCH  17  18
HETATM   18  C3  UNL     1      30.425   7.088  48.512  1.00  0.00     0.279 C 
BRANCH  18  19
HETATM   19  N1  UNL     1      31.347   5.999  48.688  1.00  0.00     0.080 N 
HETATM   20  C1  UNL     1      31.226   4.959  47.706  1.00  0.00     0.309 C 
HETATM   21  C2  UNL     1      32.705   6.444  48.906  1.00  0.00     0.309 C 
ENDBRANCH  18  19
ENDBRANCH  17  18
ENDBRANCH  15  17
ENDBRANCH   1  15
TORSDOF 7
ENDMDL
