MODEL 1
REMARK VINA RESULT:      -8.4      0.000      0.000
REMARK  5 active torsions:
REMARK  status: ('A' for Active; 'I' for Inactive)
REMARK    1  A    between atoms: C2_2  and  C3_3 
REMARK       I    between atoms: C3_3  and  N1_5 
REMARK    2  A    between atoms: N1_5  and  C4_6 
REMARK    3  A    between atoms: C11_14  and  N3_15 
REMARK    4  A    between atoms: N3_15  and  C12_16 
REMARK    5  A    between atoms: C17_22  and  N4_23 
ROOT
HETATM    1  C4  UNL     1      22.146   1.201  51.412  1.00  0.00     0.024 C 
HETATM    2  C5  UNL     1      21.015   0.786  50.871  1.00  0.00     0.025 C 
HETATM    3  C6  UNL     1      19.984   0.230  51.729  1.00  0.00    -0.001 C 
HETATM    4  C7  UNL     1      20.151   0.141  53.057  1.00  0.00    -0.017 C 
HETATM    5  C8  UNL     1      21.387   0.608  53.724  1.00  0.00     0.049 A 
HETATM    6  C9  UNL     1      21.767  -0.518  54.648  1.00  0.00     0.002 A 
HETATM    7  C10 UNL     1      22.872  -1.215  54.806  1.00  0.00     0.115 A 
HETATM    8  N2  UNL     1      23.905  -0.815  53.924  1.00  0.00    -0.247 NA
HETATM    9  C11 UNL     1      23.707   0.164  53.067  1.00  0.00     0.115 A 
HETATM   10  C18 UNL     1      22.495   1.049  52.827  1.00  0.00     0.116 A 
ENDROOT
BRANCH   9  11
HETATM   11  N3  UNL     1      24.942   0.260  52.381  1.00  0.00    -0.342 N 
HETATM   12  H13 UNL     1      24.991   0.077  51.362  1.00  0.00     0.167 HD
BRANCH  11  13
HETATM   13  C12 UNL     1      26.240   0.603  52.919  1.00  0.00     0.056 A 
HETATM   14  C13 UNL     1      27.218  -0.378  52.931  1.00  0.00     0.050 A 
HETATM   15  C14 UNL     1      28.451  -0.017  53.463  1.00  0.00     0.013 A 
HETATM   16 BR1  UNL     1      29.774  -1.391  53.457  1.00  0.00    -0.051 Br
HETATM   17  C15 UNL     1      28.746   1.237  53.968  1.00  0.00     0.021 A 
HETATM   18  C16 UNL     1      27.697   2.107  53.897  1.00  0.00     0.027 A 
HETATM   19  C17 UNL     1      26.432   1.905  53.405  1.00  0.00     0.033 A 
BRANCH  19  20
HETATM   20  N4  UNL     1      25.408   2.889  53.379  1.00  0.00    -0.301 NA
HETATM   21  H17 UNL     1      25.560   3.622  52.624  1.00  0.00     0.124 HD
HETATM   22  H18 UNL     1      25.630   3.574  52.609  1.00  0.00     0.124 HD
ENDBRANCH  19  20
ENDBRANCH  11  13
ENDBRANCH   9  11
BRANCH   1  23
HETATM   23  N1  UNL     1      23.049   1.733  50.467  1.00  0.00    -0.330 N 
HETATM   24  C3  UNL     1      23.569   3.041  50.466  1.00  0.00     0.221 C 
HETATM   25  O1  UNL     1      23.353   3.982  51.253  1.00  0.00    -0.273 OA
HETATM   26  H6  UNL     1      23.510   1.276  49.662  1.00  0.00     0.168 HD
BRANCH  24  27
HETATM   27  C2  UNL     1      24.525   3.682  49.539  1.00  0.00     0.098 C 
HETATM   28  C1  UNL     1      25.929   3.227  49.858  1.00  0.00     0.014 C 
ENDBRANCH  24  27
ENDBRANCH   1  23
TORSDOF 5
ENDMDL
MODEL 2
REMARK VINA RESULT:      -8.3      2.906      6.056
REMARK  5 active torsions:
REMARK  status: ('A' for Active; 'I' for Inactive)
REMARK    1  A    between atoms: C2_2  and  C3_3 
REMARK       I    between atoms: C3_3  and  N1_5 
REMARK    2  A    between atoms: N1_5  and  C4_6 
REMARK    3  A    between atoms: C11_14  and  N3_15 
REMARK    4  A    between atoms: N3_15  and  C12_16 
REMARK    5  A    between atoms: C17_22  and  N4_23 
ROOT
HETATM    1  C4  UNL     1      26.063  -0.477  53.462  1.00  0.00     0.024 C 
HETATM    2  C5  UNL     1      26.522  -1.427  52.668  1.00  0.00     0.025 C 
HETATM    3  C6  UNL     1      27.928  -1.779  52.728  1.00  0.00    -0.001 C 
HETATM    4  C7  UNL     1      28.767  -1.172  53.580  1.00  0.00    -0.017 C 
HETATM    5  C8  UNL     1      28.309  -0.114  54.510  1.00  0.00     0.049 A 
HETATM    6  C9  UNL     1      29.322   0.988  54.359  1.00  0.00     0.002 A 
HETATM    7  C10 UNL     1      29.218   2.271  54.082  1.00  0.00     0.115 A 
HETATM    8  N2  UNL     1      27.877   2.684  53.893  1.00  0.00    -0.247 NA
HETATM    9  C11 UNL     1      26.891   1.820  54.004  1.00  0.00     0.115 A 
HETATM   10  C18 UNL     1      26.897   0.340  54.348  1.00  0.00     0.116 A 
ENDROOT
BRANCH   9  11
HETATM   11  N3  UNL     1      25.736   2.598  53.748  1.00  0.00    -0.342 N 
HETATM   12  H13 UNL     1      25.335   3.201  54.490  1.00  0.00     0.167 HD
BRANCH  11  13
HETATM   13  C12 UNL     1      24.975   2.694  52.521  1.00  0.00     0.056 A 
HETATM   14  C13 UNL     1      23.597   2.580  52.602  1.00  0.00     0.050 A 
HETATM   15  C14 UNL     1      22.897   2.667  51.402  1.00  0.00     0.013 A 
HETATM   16 BR1  UNL     1      21.002   2.512  51.553  1.00  0.00    -0.051 Br
HETATM   17  C15 UNL     1      23.489   2.857  50.166  1.00  0.00     0.021 A 
HETATM   18  C16 UNL     1      24.849   2.953  50.228  1.00  0.00     0.027 A 
HETATM   19  C17 UNL     1      25.676   2.888  51.322  1.00  0.00     0.033 A 
BRANCH  19  20
HETATM   20  N4  UNL     1      27.091   3.000  51.272  1.00  0.00    -0.301 NA
HETATM   21  H17 UNL     1      27.541   2.958  52.235  1.00  0.00     0.124 HD
HETATM   22  H18 UNL     1      27.459   2.950  52.259  1.00  0.00     0.124 HD
ENDBRANCH  19  20
ENDBRANCH  11  13
ENDBRANCH   9  11
BRANCH   1  23
HETATM   23  N1  UNL     1      24.679  -0.249  53.311  1.00  0.00    -0.330 N 
HETATM   24  C3  UNL     1      23.671  -0.656  54.207  1.00  0.00     0.221 C 
HETATM   25  O1  UNL     1      23.767  -1.287  55.277  1.00  0.00    -0.273 OA
HETATM   26  H6  UNL     1      24.169   0.269  52.576  1.00  0.00     0.168 HD
BRANCH  24  27
HETATM   27  C2  UNL     1      22.209  -0.453  54.148  1.00  0.00     0.098 C 
HETATM   28  C1  UNL     1      21.502  -1.762  54.409  1.00  0.00     0.014 C 
ENDBRANCH  24  27
ENDBRANCH   1  23
TORSDOF 5
ENDMDL
MODEL 3
REMARK VINA RESULT:      -8.1      3.038      5.100
REMARK  5 active torsions:
REMARK  status: ('A' for Active; 'I' for Inactive)
REMARK    1  A    between atoms: C2_2  and  C3_3 
REMARK       I    between atoms: C3_3  and  N1_5 
REMARK    2  A    between atoms: N1_5  and  C4_6 
REMARK    3  A    between atoms: C11_14  and  N3_15 
REMARK    4  A    between atoms: N3_15  and  C12_16 
REMARK    5  A    between atoms: C17_22  and  N4_23 
ROOT
HETATM    1  C4  UNL     1      24.731  -0.289  54.138  1.00  0.00     0.024 C 
HETATM    2  C5  UNL     1      24.409  -0.939  55.241  1.00  0.00     0.025 C 
HETATM    3  C6  UNL     1      23.080  -1.512  55.360  1.00  0.00    -0.001 C 
HETATM    4  C7  UNL     1      22.180  -1.405  54.372  1.00  0.00    -0.017 C 
HETATM    5  C8  UNL     1      22.489  -0.707  53.103  1.00  0.00     0.049 A 
HETATM    6  C9  UNL     1      21.307   0.195  52.869  1.00  0.00     0.002 A 
HETATM    7  C10 UNL     1      21.193   1.487  52.651  1.00  0.00     0.115 A 
HETATM    8  N2  UNL     1      22.443   2.153  52.631  1.00  0.00    -0.247 NA
HETATM    9  C11 UNL     1      23.559   1.480  52.815  1.00  0.00     0.115 A 
HETATM   10  C18 UNL     1      23.804  -0.003  53.041  1.00  0.00     0.116 A 
ENDROOT
BRANCH   9  11
HETATM   11  N3  UNL     1      24.564   2.473  52.729  1.00  0.00    -0.342 N 
HETATM   12  H13 UNL     1      25.085   2.767  53.576  1.00  0.00     0.167 HD
BRANCH  11  13
HETATM   13  C12 UNL     1      25.014   3.193  51.558  1.00  0.00     0.056 A 
HETATM   14  C13 UNL     1      24.332   4.345  51.202  1.00  0.00     0.050 A 
HETATM   15  C14 UNL     1      24.785   5.006  50.065  1.00  0.00     0.013 A 
HETATM   16 BR1  UNL     1      23.826   6.592  49.610  1.00  0.00    -0.051 Br
HETATM   17  C15 UNL     1      25.852   4.585  49.290  1.00  0.00     0.021 A 
HETATM   18  C16 UNL     1      26.433   3.439  49.750  1.00  0.00     0.027 A 
HETATM   19  C17 UNL     1      26.106   2.678  50.844  1.00  0.00     0.033 A 
BRANCH  19  20
HETATM   20  N4  UNL     1      26.784   1.492  51.235  1.00  0.00    -0.301 NA
HETATM   21  H17 UNL     1      27.516   1.185  50.528  1.00  0.00     0.124 HD
HETATM   22  H18 UNL     1      27.488   1.255  50.486  1.00  0.00     0.124 HD
ENDBRANCH  19  20
ENDBRANCH  11  13
ENDBRANCH   9  11
BRANCH   1  23
HETATM   23  N1  UNL     1      26.055   0.199  54.150  1.00  0.00    -0.330 N 
HETATM   24  C3  UNL     1      27.210  -0.532  53.811  1.00  0.00     0.221 C 
HETATM   25  O1  UNL     1      27.319  -1.720  53.450  1.00  0.00    -0.273 OA
HETATM   26  H6  UNL     1      26.410   1.148  54.358  1.00  0.00     0.168 HD
BRANCH  24  27
HETATM   27  C2  UNL     1      28.625  -0.111  53.775  1.00  0.00     0.098 C 
HETATM   28  C1  UNL     1      29.500  -1.293  53.430  1.00  0.00     0.014 C 
ENDBRANCH  24  27
ENDBRANCH   1  23
TORSDOF 5
ENDMDL
MODEL 4
REMARK VINA RESULT:      -8.0      2.699      5.650
REMARK  5 active torsions:
REMARK  status: ('A' for Active; 'I' for Inactive)
REMARK    1  A    between atoms: C2_2  and  C3_3 
REMARK       I    between atoms: C3_3  and  N1_5 
REMARK    2  A    between atoms: N1_5  and  C4_6 
REMARK    3  A    between atoms: C11_14  and  N3_15 
REMARK    4  A    between atoms: N3_15  and  C12_16 
REMARK    5  A    between atoms: C17_22  and  N4_23 
ROOT
HETATM    1  C4  UNL     1      26.791   2.114  52.107  1.00  0.00     0.024 C 
HETATM    2  C5  UNL     1      27.895   2.460  52.744  1.00  0.00     0.025 C 
HETATM    3  C6  UNL     1      28.658   1.440  53.440  1.00  0.00    -0.001 C 
HETATM    4  C7  UNL     1      28.274   0.155  53.438  1.00  0.00    -0.017 C 
HETATM    5  C8  UNL     1      27.058  -0.299  52.723  1.00  0.00     0.049 A 
HETATM    6  C9  UNL     1      26.336  -1.167  53.718  1.00  0.00     0.002 A 
HETATM    7  C10 UNL     1      25.109  -1.156  54.194  1.00  0.00     0.115 A 
HETATM    8  N2  UNL     1      24.319  -0.114  53.653  1.00  0.00    -0.247 NA
HETATM    9  C11 UNL     1      24.826   0.715  52.765  1.00  0.00     0.115 A 
HETATM   10  C18 UNL     1      26.205   0.772  52.129  1.00  0.00     0.116 A 
ENDROOT
BRANCH   9  11
HETATM   11  N3  UNL     1      23.753   1.592  52.477  1.00  0.00    -0.342 N 
HETATM   12  H13 UNL     1      23.630   2.466  53.020  1.00  0.00     0.167 HD
BRANCH  11  13
HETATM   13  C12 UNL     1      22.728   1.450  51.466  1.00  0.00     0.056 A 
HETATM   14  C13 UNL     1      22.970   1.992  50.215  1.00  0.00     0.050 A 
HETATM   15  C14 UNL     1      21.959   1.846  49.270  1.00  0.00     0.013 A 
HETATM   16 BR1  UNL     1      22.331   2.600  47.558  1.00  0.00    -0.051 Br
HETATM   17  C15 UNL     1      20.756   1.204  49.508  1.00  0.00     0.021 A 
HETATM   18  C16 UNL     1      20.647   0.717  50.778  1.00  0.00     0.027 A 
HETATM   19  C17 UNL     1      21.545   0.780  51.813  1.00  0.00     0.033 A 
BRANCH  19  20
HETATM   20  N4  UNL     1      21.326   0.235  53.107  1.00  0.00    -0.301 NA
HETATM   21  H17 UNL     1      20.877   0.930  53.775  1.00  0.00     0.124 HD
HETATM   22  H18 UNL     1      20.882   0.981  53.706  1.00  0.00     0.124 HD
ENDBRANCH  19  20
ENDBRANCH  11  13
ENDBRANCH   9  11
BRANCH   1  23
HETATM   23  N1  UNL     1      26.161   3.200  51.462  1.00  0.00    -0.330 N 
HETATM   24  C3  UNL     1      26.378   3.613  50.134  1.00  0.00     0.221 C 
HETATM   25  O1  UNL     1      27.146   3.143  49.272  1.00  0.00    -0.273 OA
HETATM   26  H6  UNL     1      25.427   3.840  51.809  1.00  0.00     0.168 HD
BRANCH  24  27
HETATM   27  C2  UNL     1      25.762   4.716  49.369  1.00  0.00     0.098 C 
HETATM   28  C1  UNL     1      26.839   5.542  48.707  1.00  0.00     0.014 C 
ENDBRANCH  24  27
ENDBRANCH   1  23
TORSDOF 5
ENDMDL
MODEL 5
REMARK VINA RESULT:      -7.9      2.959      5.350
REMARK  5 active torsions:
REMARK  status: ('A' for Active; 'I' for Inactive)
REMARK    1  A    between atoms: C2_2  and  C3_3 
REMARK       I    between atoms: C3_3  and  N1_5 
REMARK    2  A    between atoms: N1_5  and  C4_6 
REMARK    3  A    between atoms: C11_14  and  N3_15 
REMARK    4  A    between atoms: N3_15  and  C12_16 
REMARK    5  A    between atoms: C17_22  and  N4_23 
ROOT
HETATM    1  C4  UNL     1      26.820   1.957  52.106  1.00  0.00     0.024 C 
HETATM    2  C5  UNL     1      27.969   1.763  52.725  1.00  0.00     0.025 C 
HETATM    3  C6  UNL     1      28.246   0.463  53.309  1.00  0.00    -0.001 C 
HETATM    4  C7  UNL     1      27.366  -0.546  53.222  1.00  0.00    -0.017 C 
HETATM    5  C8  UNL     1      26.069  -0.396  52.523  1.00  0.00     0.049 A 
HETATM    6  C9  UNL     1      25.056  -0.974  53.474  1.00  0.00     0.002 A 
HETATM    7  C10 UNL     1      23.945  -0.501  53.997  1.00  0.00     0.115 A 
HETATM    8  N2  UNL     1      23.653   0.816  53.569  1.00  0.00    -0.247 NA
HETATM    9  C11 UNL     1      24.455   1.437  52.729  1.00  0.00     0.115 A 
HETATM   10  C18 UNL     1      25.732   0.978  52.046  1.00  0.00     0.116 A 
ENDROOT
BRANCH   9  11
HETATM   11  N3  UNL     1      23.838   2.699  52.551  1.00  0.00    -0.342 N 
HETATM   12  H13 UNL     1      23.646   3.309  53.368  1.00  0.00     0.167 HD
BRANCH  11  13
HETATM   13  C12 UNL     1      23.404   3.318  51.318  1.00  0.00     0.056 A 
HETATM   14  C13 UNL     1      23.093   2.490  50.251  1.00  0.00     0.050 A 
HETATM   15  C14 UNL     1      22.689   3.119  49.077  1.00  0.00     0.013 A 
HETATM   16 BR1  UNL     1      22.263   1.949  47.633  1.00  0.00    -0.051 Br
HETATM   17  C15 UNL     1      22.585   4.490  48.923  1.00  0.00     0.021 A 
HETATM   18  C16 UNL     1      22.920   5.187  50.047  1.00  0.00     0.027 A 
HETATM   19  C17 UNL     1      23.333   4.717  51.269  1.00  0.00     0.033 A 
BRANCH  19  20
HETATM   20  N4  UNL     1      23.661   5.539  52.382  1.00  0.00    -0.301 NA
HETATM   21  H17 UNL     1      23.920   4.976  53.245  1.00  0.00     0.124 HD
HETATM   22  H18 UNL     1      23.905   4.910  53.192  1.00  0.00     0.124 HD
ENDBRANCH  19  20
ENDBRANCH  11  13
ENDBRANCH   9  11
BRANCH   1  23
HETATM   23  N1  UNL     1      26.692   3.257  51.572  1.00  0.00    -0.330 N 
HETATM   24  C3  UNL     1      26.652   3.590  50.205  1.00  0.00     0.221 C 
HETATM   25  O1  UNL     1      26.728   2.850  49.205  1.00  0.00    -0.273 OA
HETATM   26  H6  UNL     1      26.566   4.162  52.056  1.00  0.00     0.168 HD
BRANCH  24  27
HETATM   27  C2  UNL     1      26.504   4.907  49.551  1.00  0.00     0.098 C 
HETATM   28  C1  UNL     1      27.633   5.119  48.571  1.00  0.00     0.014 C 
ENDBRANCH  24  27
ENDBRANCH   1  23
TORSDOF 5
ENDMDL
MODEL 6
REMARK VINA RESULT:      -7.8      1.809      4.159
REMARK  5 active torsions:
REMARK  status: ('A' for Active; 'I' for Inactive)
REMARK    1  A    between atoms: C2_2  and  C3_3 
REMARK       I    between atoms: C3_3  and  N1_5 
REMARK    2  A    between atoms: N1_5  and  C4_6 
REMARK    3  A    between atoms: C11_14  and  N3_15 
REMARK    4  A    between atoms: N3_15  and  C12_16 
REMARK    5  A    between atoms: C17_22  and  N4_23 
ROOT
HETATM    1  C4  UNL     1      22.821   2.043  52.180  1.00  0.00     0.024 C 
HETATM    2  C5  UNL     1      21.941   3.026  52.134  1.00  0.00     0.025 C 
HETATM    3  C6  UNL     1      21.955   3.933  51.001  1.00  0.00    -0.001 C 
HETATM    4  C7  UNL     1      22.833   3.787  49.998  1.00  0.00    -0.017 C 
HETATM    5  C8  UNL     1      23.829   2.692  49.982  1.00  0.00     0.049 A 
HETATM    6  C9  UNL     1      25.129   3.367  49.633  1.00  0.00     0.002 A 
HETATM    7  C10 UNL     1      26.312   3.389  50.209  1.00  0.00     0.115 A 
HETATM    8  N2  UNL     1      26.359   2.616  51.394  1.00  0.00    -0.247 NA
HETATM    9  C11 UNL     1      25.292   1.967  51.810  1.00  0.00     0.115 A 
HETATM   10  C18 UNL     1      23.902   1.848  51.211  1.00  0.00     0.116 A 
ENDROOT
BRANCH   9  11
HETATM   11  N3  UNL     1      25.731   1.332  52.997  1.00  0.00    -0.342 N 
HETATM   12  H13 UNL     1      25.093   1.238  53.809  1.00  0.00     0.167 HD
BRANCH  11  13
HETATM   13  C12 UNL     1      27.025   0.748  53.274  1.00  0.00     0.056 A 
HETATM   14  C13 UNL     1      27.195  -0.603  53.020  1.00  0.00     0.050 A 
HETATM   15  C14 UNL     1      28.448  -1.135  53.307  1.00  0.00     0.013 A 
HETATM   16 BR1  UNL     1      28.646  -2.996  52.938  1.00  0.00    -0.051 Br
HETATM   17  C15 UNL     1      29.506  -0.405  53.819  1.00  0.00     0.021 A 
HETATM   18  C16 UNL     1      29.205   0.910  54.023  1.00  0.00     0.027 A 
HETATM   19  C17 UNL     1      28.029   1.578  53.792  1.00  0.00     0.033 A 
BRANCH  19  20
HETATM   20  N4  UNL     1      27.823   2.962  54.044  1.00  0.00    -0.301 NA
HETATM   21  H17 UNL     1      27.711   3.529  53.152  1.00  0.00     0.124 HD
HETATM   22  H18 UNL     1      27.722   3.452  53.116  1.00  0.00     0.124 HD
ENDBRANCH  19  20
ENDBRANCH  11  13
ENDBRANCH   9  11
BRANCH   1  23
HETATM   23  N1  UNL     1      22.682   1.229  53.325  1.00  0.00    -0.330 N 
HETATM   24  C3  UNL     1      21.719   0.219  53.511  1.00  0.00     0.221 C 
HETATM   25  O1  UNL     1      20.809  -0.160  52.748  1.00  0.00    -0.273 OA
HETATM   26  H6  UNL     1      23.256   1.191  54.184  1.00  0.00     0.168 HD
BRANCH  24  27
HETATM   27  C2  UNL     1      21.504  -0.691  54.655  1.00  0.00     0.098 C 
HETATM   28  C1  UNL     1      22.836  -1.162  55.188  1.00  0.00     0.014 C 
ENDBRANCH  24  27
ENDBRANCH   1  23
TORSDOF 5
ENDMDL
MODEL 7
REMARK VINA RESULT:      -7.7      3.055      5.069
REMARK  5 active torsions:
REMARK  status: ('A' for Active; 'I' for Inactive)
REMARK    1  A    between atoms: C2_2  and  C3_3 
REMARK       I    between atoms: C3_3  and  N1_5 
REMARK    2  A    between atoms: N1_5  and  C4_6 
REMARK    3  A    between atoms: C11_14  and  N3_15 
REMARK    4  A    between atoms: N3_15  and  C12_16 
REMARK    5  A    between atoms: C17_22  and  N4_23 
ROOT
HETATM    1  C4  UNL     1      24.446   0.429  52.805  1.00  0.00     0.024 C 
HETATM    2  C5  UNL     1      24.101  -0.382  53.788  1.00  0.00     0.025 C 
HETATM    3  C6  UNL     1      22.696  -0.676  54.001  1.00  0.00    -0.001 C 
HETATM    4  C7  UNL     1      21.744  -0.152  53.215  1.00  0.00    -0.017 C 
HETATM    5  C8  UNL     1      22.069   0.746  52.084  1.00  0.00     0.049 A 
HETATM    6  C9  UNL     1      21.119   1.904  52.234  1.00  0.00     0.002 A 
HETATM    7  C10 UNL     1      21.296   3.206  52.307  1.00  0.00     0.115 A 
HETATM    8  N2  UNL     1      22.658   3.581  52.223  1.00  0.00    -0.247 NA
HETATM    9  C11 UNL     1      23.594   2.666  52.081  1.00  0.00     0.115 A 
HETATM   10  C18 UNL     1      23.499   1.154  51.955  1.00  0.00     0.116 A 
ENDROOT
BRANCH   9  11
HETATM   11  N3  UNL     1      24.792   3.418  52.039  1.00  0.00    -0.342 N 
HETATM   12  H13 UNL     1      25.391   3.498  52.882  1.00  0.00     0.167 HD
BRANCH  11  13
HETATM   13  C12 UNL     1      25.355   4.144  50.921  1.00  0.00     0.056 A 
HETATM   14  C13 UNL     1      24.844   5.400  50.639  1.00  0.00     0.050 A 
HETATM   15  C14 UNL     1      25.401   6.066  49.552  1.00  0.00     0.013 A 
HETATM   16 BR1  UNL     1      24.678   7.795  49.198  1.00  0.00    -0.051 Br
HETATM   17  C15 UNL     1      26.412   5.552  48.758  1.00  0.00     0.021 A 
HETATM   18  C16 UNL     1      26.822   4.309  49.144  1.00  0.00     0.027 A 
HETATM   19  C17 UNL     1      26.377   3.531  50.182  1.00  0.00     0.033 A 
BRANCH  19  20
HETATM   20  N4  UNL     1      26.878   2.239  50.496  1.00  0.00    -0.301 NA
HETATM   21  H17 UNL     1      26.546   1.888  51.443  1.00  0.00     0.124 HD
HETATM   22  H18 UNL     1      26.506   1.964  51.444  1.00  0.00     0.124 HD
ENDBRANCH  19  20
ENDBRANCH  11  13
ENDBRANCH   9  11
BRANCH   1  23
HETATM   23  N1  UNL     1      25.841   0.612  52.703  1.00  0.00    -0.330 N 
HETATM   24  C3  UNL     1      26.724   0.860  53.771  1.00  0.00     0.221 C 
HETATM   25  O1  UNL     1      26.484   0.979  54.988  1.00  0.00    -0.273 OA
HETATM   26  H6  UNL     1      26.457   0.559  51.873  1.00  0.00     0.168 HD
BRANCH  24  27
HETATM   27  C2  UNL     1      28.190   1.047  53.769  1.00  0.00     0.098 C 
HETATM   28  C1  UNL     1      28.516   2.514  53.621  1.00  0.00     0.014 C 
ENDBRANCH  24  27
ENDBRANCH   1  23
TORSDOF 5
ENDMDL
MODEL 8
REMARK VINA RESULT:      -7.6      3.040      5.295
REMARK  5 active torsions:
REMARK  status: ('A' for Active; 'I' for Inactive)
REMARK    1  A    between atoms: C2_2  and  C3_3 
REMARK       I    between atoms: C3_3  and  N1_5 
REMARK    2  A    between atoms: N1_5  and  C4_6 
REMARK    3  A    between atoms: C11_14  and  N3_15 
REMARK    4  A    between atoms: N3_15  and  C12_16 
REMARK    5  A    between atoms: C17_22  and  N4_23 
ROOT
HETATM    1  C4  UNL     1      24.203  -0.289  53.860  1.00  0.00     0.024 C 
HETATM    2  C5  UNL     1      24.145  -0.907  55.025  1.00  0.00     0.025 C 
HETATM    3  C6  UNL     1      22.905  -1.548  55.423  1.00  0.00    -0.001 C 
HETATM    4  C7  UNL     1      21.824  -1.536  54.628  1.00  0.00    -0.017 C 
HETATM    5  C8  UNL     1      21.834  -0.878  53.302  1.00  0.00     0.049 A 
HETATM    6  C9  UNL     1      20.574  -0.057  53.277  1.00  0.00     0.002 A 
HETATM    7  C10 UNL     1      20.337   1.217  53.043  1.00  0.00     0.115 A 
HETATM    8  N2  UNL     1      21.513   1.950  52.756  1.00  0.00    -0.247 NA
HETATM    9  C11 UNL     1      22.685   1.350  52.737  1.00  0.00     0.115 A 
HETATM   10  C18 UNL     1      23.063  -0.104  52.958  1.00  0.00     0.116 A 
ENDROOT
BRANCH   9  11
HETATM   11  N3  UNL     1      23.588   2.394  52.423  1.00  0.00    -0.342 N 
HETATM   12  H13 UNL     1      24.533   2.416  52.848  1.00  0.00     0.167 HD
BRANCH  11  13
HETATM   13  C12 UNL     1      23.385   3.515  51.531  1.00  0.00     0.056 A 
HETATM   14  C13 UNL     1      23.040   3.246  50.217  1.00  0.00     0.050 A 
HETATM   15  C14 UNL     1      22.861   4.346  49.385  1.00  0.00     0.013 A 
HETATM   16 BR1  UNL     1      22.380   3.937  47.586  1.00  0.00    -0.051 Br
HETATM   17  C15 UNL     1      23.007   5.662  49.790  1.00  0.00     0.021 A 
HETATM   18  C16 UNL     1      23.348   5.787  51.105  1.00  0.00     0.027 A 
HETATM   19  C17 UNL     1      23.558   4.809  52.045  1.00  0.00     0.033 A 
BRANCH  19  20
HETATM   20  N4  UNL     1      23.914   5.052  53.399  1.00  0.00    -0.301 NA
HETATM   21  H17 UNL     1      23.068   5.183  54.029  1.00  0.00     0.124 HD
HETATM   22  H18 UNL     1      23.026   5.171  53.956  1.00  0.00     0.124 HD
ENDBRANCH  19  20
ENDBRANCH  11  13
ENDBRANCH   9  11
BRANCH   1  23
HETATM   23  N1  UNL     1      25.470   0.273  53.594  1.00  0.00    -0.330 N 
HETATM   24  C3  UNL     1      26.651  -0.442  53.315  1.00  0.00     0.221 C 
HETATM   25  O1  UNL     1      26.837  -1.673  53.252  1.00  0.00    -0.273 OA
HETATM   26  H6  UNL     1      25.752   1.265  53.516  1.00  0.00     0.168 HD
BRANCH  24  27
HETATM   27  C2  UNL     1      28.010   0.049  53.009  1.00  0.00     0.098 C 
HETATM   28  C1  UNL     1      29.036  -0.903  53.576  1.00  0.00     0.014 C 
ENDBRANCH  24  27
ENDBRANCH   1  23
TORSDOF 5
ENDMDL
MODEL 9
REMARK VINA RESULT:      -7.6      3.086      5.595
REMARK  5 active torsions:
REMARK  status: ('A' for Active; 'I' for Inactive)
REMARK    1  A    between atoms: C2_2  and  C3_3 
REMARK       I    between atoms: C3_3  and  N1_5 
REMARK    2  A    between atoms: N1_5  and  C4_6 
REMARK    3  A    between atoms: C11_14  and  N3_15 
REMARK    4  A    between atoms: N3_15  and  C12_16 
REMARK    5  A    between atoms: C17_22  and  N4_23 
ROOT
HETATM    1  C4  UNL     1      24.349   0.982  52.536  1.00  0.00     0.024 C 
HETATM    2  C5  UNL     1      24.284  -0.238  53.037  1.00  0.00     0.025 C 
HETATM    3  C6  UNL     1      25.167  -0.600  54.131  1.00  0.00    -0.001 C 
HETATM    4  C7  UNL     1      26.036   0.280  54.650  1.00  0.00    -0.017 C 
HETATM    5  C8  UNL     1      26.141   1.669  54.146  1.00  0.00     0.049 A 
HETATM    6  C9  UNL     1      27.617   1.897  53.967  1.00  0.00     0.002 A 
HETATM    7  C10 UNL     1      28.347   2.297  52.948  1.00  0.00     0.115 A 
HETATM    8  N2  UNL     1      27.575   2.565  51.792  1.00  0.00    -0.247 NA
HETATM    9  C11 UNL     1      26.268   2.413  51.813  1.00  0.00     0.115 A 
HETATM   10  C18 UNL     1      25.332   1.993  52.934  1.00  0.00     0.116 A 
ENDROOT
BRANCH   9  11
HETATM   11  N3  UNL     1      25.870   2.768  50.502  1.00  0.00    -0.342 N 
HETATM   12  H13 UNL     1      25.864   2.059  49.745  1.00  0.00     0.167 HD
BRANCH  11  13
HETATM   13  C12 UNL     1      25.434   4.060  50.018  1.00  0.00     0.056 A 
HETATM   14  C13 UNL     1      24.120   4.431  50.252  1.00  0.00     0.050 A 
HETATM   15  C14 UNL     1      23.732   5.675  49.764  1.00  0.00     0.013 A 
HETATM   16 BR1  UNL     1      21.919   6.155  50.111  1.00  0.00    -0.051 Br
HETATM   17  C15 UNL     1      24.567   6.538  49.076  1.00  0.00     0.021 A 
HETATM   18  C16 UNL     1      25.831   6.051  48.913  1.00  0.00     0.027 A 
HETATM   19  C17 UNL     1      26.362   4.856  49.331  1.00  0.00     0.033 A 
BRANCH  19  20
HETATM   20  N4  UNL     1      27.704   4.446  49.106  1.00  0.00    -0.301 NA
HETATM   21  H17 UNL     1      28.011   3.667  49.761  1.00  0.00     0.124 HD
HETATM   22  H18 UNL     1      27.930   3.676  49.790  1.00  0.00     0.124 HD
ENDBRANCH  19  20
ENDBRANCH  11  13
ENDBRANCH   9  11
BRANCH   1  23
HETATM   23  N1  UNL     1      23.425   1.201  51.492  1.00  0.00    -0.330 N 
HETATM   24  C3  UNL     1      22.076   1.573  51.646  1.00  0.00     0.221 C 
HETATM   25  O1  UNL     1      21.421   1.773  52.688  1.00  0.00    -0.273 OA
HETATM   26  H6  UNL     1      23.564   1.174  50.468  1.00  0.00     0.168 HD
BRANCH  24  27
HETATM   27  C2  UNL     1      21.041   1.841  50.626  1.00  0.00     0.098 C 
HETATM   28  C1  UNL     1      21.254   0.937  49.435  1.00  0.00     0.014 C 
ENDBRANCH  24  27
ENDBRANCH   1  23
TORSDOF 5
ENDMDL
