MODEL 1
REMARK VINA RESULT:      -8.0      0.000      0.000
REMARK  5 active torsions:
REMARK  status: ('A' for Active; 'I' for Inactive)
REMARK    1  A    between atoms: C7_7  and  C8_8 
REMARK    2  A    between atoms: C10_12  and  C11_13 
REMARK    3  A    between atoms: C12_14  and  C13_15 
REMARK    4  A    between atoms: C12_14  and  N4_17 
REMARK    5  A    between atoms: C13_15  and  N3_16 
REMARK       I    between atoms: N4_17  and  C14_18 
ROOT
HETATM    1  C1  UNL     1      18.837  -0.133  52.330  1.00  0.00     0.018 C 
HETATM    2  C2  UNL     1      19.993  -0.166  52.672  1.00  0.00    -0.078 C 
HETATM    3  C3  UNL     1      21.367  -0.227  53.086  1.00  0.00     0.017 A 
HETATM    4  C4  UNL     1      21.673  -1.069  54.129  1.00  0.00     0.020 A 
HETATM    5  C5  UNL     1      22.995  -1.117  54.514  1.00  0.00     0.002 A 
HETATM    6  C6  UNL     1      23.935  -0.346  53.863  1.00  0.00     0.013 A 
HETATM    7  C7  UNL     1      23.629   0.499  52.816  1.00  0.00    -0.010 A 
HETATM    8  C17 UNL     1      22.289   0.549  52.423  1.00  0.00     0.034 A 
ENDROOT
BRANCH   7   9
HETATM    9  C8  UNL     1      24.602   1.324  52.111  1.00  0.00     0.048 A 
HETATM   10  N1  UNL     1      25.874   1.203  52.363  1.00  0.00    -0.246 NA
HETATM   11  C9  UNL     1      26.803   2.022  51.659  1.00  0.00     0.227 A 
HETATM   12  N2  UNL     1      26.407   2.870  50.787  1.00  0.00    -0.273 NA
HETATM   13  C10 UNL     1      25.050   3.110  50.408  1.00  0.00     0.139 A 
HETATM   14  C16 UNL     1      24.063   2.267  51.130  1.00  0.00     0.091 A 
BRANCH  13  15
HETATM   15  C11 UNL     1      24.675   4.543  50.572  1.00  0.00     0.027 C 
HETATM   16  C12 UNL     1      25.446   5.557  50.194  1.00  0.00     0.038 C 
BRANCH  16  17
HETATM   17  C13 UNL     1      25.100   6.991  50.342  1.00  0.00     0.323 C 
BRANCH  17  18
HETATM   18  N3  UNL     1      24.568   7.324  51.631  1.00  0.00     0.083 N 
HETATM   19  H10 UNL     1      23.624   6.943  51.818  1.00  0.00     0.313 HD
HETATM   20  H11 UNL     1      25.250   7.161  52.412  1.00  0.00     0.313 HD
ENDBRANCH  17  18
ENDBRANCH  16  17
BRANCH  16  21
HETATM   21  N4  UNL     1      26.723   5.409  49.585  1.00  0.00    -0.330 N 
HETATM   22  C14 UNL     1      27.458   6.010  48.526  1.00  0.00     0.217 C 
HETATM   23  C15 UNL     1      28.811   5.483  48.262  1.00  0.00     0.117 C 
HETATM   24  O1  UNL     1      26.973   6.950  47.845  1.00  0.00    -0.274 OA
HETATM   25  H12 UNL     1      27.143   4.626  50.142  1.00  0.00     0.168 HD
ENDBRANCH  16  21
ENDBRANCH  13  15
ENDBRANCH   7   9
TORSDOF 5
ENDMDL
MODEL 2
REMARK VINA RESULT:      -7.9      3.853      5.480
REMARK  5 active torsions:
REMARK  status: ('A' for Active; 'I' for Inactive)
REMARK    1  A    between atoms: C7_7  and  C8_8 
REMARK    2  A    between atoms: C10_12  and  C11_13 
REMARK    3  A    between atoms: C12_14  and  C13_15 
REMARK    4  A    between atoms: C12_14  and  N4_17 
REMARK    5  A    between atoms: C13_15  and  N3_16 
REMARK       I    between atoms: N4_17  and  C14_18 
ROOT
HETATM    1  C1  UNL     1      16.809   0.250  49.893  1.00  0.00     0.018 C 
HETATM    2  C2  UNL     1      17.613  -0.013  50.753  1.00  0.00    -0.078 C 
HETATM    3  C3  UNL     1      18.561  -0.346  51.779  1.00  0.00     0.017 A 
HETATM    4  C4  UNL     1      18.115  -1.133  52.815  1.00  0.00     0.020 A 
HETATM    5  C5  UNL     1      19.035  -1.444  53.792  1.00  0.00     0.002 A 
HETATM    6  C6  UNL     1      20.328  -0.972  53.702  1.00  0.00     0.013 A 
HETATM    7  C7  UNL     1      20.777  -0.182  52.663  1.00  0.00    -0.010 A 
HETATM    8  C17 UNL     1      19.845   0.134  51.671  1.00  0.00     0.034 A 
ENDROOT
BRANCH   7   9
HETATM    9  C8  UNL     1      22.136   0.329  52.543  1.00  0.00     0.048 A 
HETATM   10  N1  UNL     1      22.410   1.278  51.693  1.00  0.00    -0.246 NA
HETATM   11  C9  UNL     1      23.747   1.759  51.596  1.00  0.00     0.227 A 
HETATM   12  N2  UNL     1      24.677   1.276  52.328  1.00  0.00    -0.273 NA
HETATM   13  C10 UNL     1      24.525   0.239  53.300  1.00  0.00     0.139 A 
HETATM   14  C16 UNL     1      23.138  -0.279  53.418  1.00  0.00     0.091 A 
BRANCH  13  15
HETATM   15  C11 UNL     1      25.448  -0.902  53.041  1.00  0.00     0.027 C 
HETATM   16  C12 UNL     1      26.764  -0.773  52.906  1.00  0.00     0.038 C 
BRANCH  16  17
HETATM   17  C13 UNL     1      27.707  -1.888  52.649  1.00  0.00     0.323 C 
BRANCH  17  18
HETATM   18  N3  UNL     1      28.726  -2.020  53.648  1.00  0.00     0.083 N 
HETATM   19  H10 UNL     1      29.440  -1.271  53.636  1.00  0.00     0.313 HD
HETATM   20  H11 UNL     1      28.341  -2.220  54.604  1.00  0.00     0.313 HD
ENDBRANCH  17  18
ENDBRANCH  16  17
BRANCH  16  21
HETATM   21  N4  UNL     1      27.460   0.465  52.991  1.00  0.00    -0.330 N 
HETATM   22  C14 UNL     1      28.191   1.194  53.969  1.00  0.00     0.217 C 
HETATM   23  C15 UNL     1      28.750   2.497  53.560  1.00  0.00     0.117 C 
HETATM   24  O1  UNL     1      28.352   0.745  55.134  1.00  0.00    -0.274 OA
HETATM   25  H12 UNL     1      27.335   0.855  52.026  1.00  0.00     0.168 HD
ENDBRANCH  16  21
ENDBRANCH  13  15
ENDBRANCH   7   9
TORSDOF 5
ENDMDL
MODEL 3
REMARK VINA RESULT:      -7.7      1.864      3.139
REMARK  5 active torsions:
REMARK  status: ('A' for Active; 'I' for Inactive)
REMARK    1  A    between atoms: C7_7  and  C8_8 
REMARK    2  A    between atoms: C10_12  and  C11_13 
REMARK    3  A    between atoms: C12_14  and  C13_15 
REMARK    4  A    between atoms: C12_14  and  N4_17 
REMARK    5  A    between atoms: C13_15  and  N3_16 
REMARK       I    between atoms: N4_17  and  C14_18 
ROOT
HETATM    1  C1  UNL     1      21.678  -1.358  54.696  1.00  0.00     0.018 C 
HETATM    2  C2  UNL     1      22.653  -0.891  54.161  1.00  0.00    -0.078 C 
HETATM    3  C3  UNL     1      23.823  -0.354  53.524  1.00  0.00     0.017 A 
HETATM    4  C4  UNL     1      25.034  -0.903  53.870  1.00  0.00     0.020 A 
HETATM    5  C5  UNL     1      26.148  -0.378  53.251  1.00  0.00     0.002 A 
HETATM    6  C6  UNL     1      26.014   0.646  52.336  1.00  0.00     0.013 A 
HETATM    7  C7  UNL     1      24.798   1.198  51.987  1.00  0.00    -0.010 A 
HETATM    8  C17 UNL     1      23.668   0.666  52.614  1.00  0.00     0.034 A 
ENDROOT
BRANCH   7   9
HETATM    9  C8  UNL     1      24.628   2.278  51.025  1.00  0.00     0.048 A 
HETATM   10  N1  UNL     1      23.587   2.306  50.242  1.00  0.00    -0.246 NA
HETATM   11  C9  UNL     1      23.446   3.373  49.310  1.00  0.00     0.227 A 
HETATM   12  N2  UNL     1      24.322   4.302  49.233  1.00  0.00    -0.273 NA
HETATM   13  C10 UNL     1      25.508   4.403  50.024  1.00  0.00     0.139 A 
HETATM   14  C16 UNL     1      25.677   3.298  51.004  1.00  0.00     0.091 A 
BRANCH  13  15
HETATM   15  C11 UNL     1      26.732   4.492  49.179  1.00  0.00     0.027 C 
HETATM   16  C12 UNL     1      27.374   5.627  48.924  1.00  0.00     0.038 C 
BRANCH  16  17
HETATM   17  C13 UNL     1      28.593   5.748  48.089  1.00  0.00     0.323 C 
BRANCH  17  18
HETATM   18  N3  UNL     1      29.776   6.055  48.839  1.00  0.00     0.083 N 
HETATM   19  H10 UNL     1      30.030   5.347  49.550  1.00  0.00     0.313 HD
HETATM   20  H11 UNL     1      30.580   6.351  48.233  1.00  0.00     0.313 HD
ENDBRANCH  17  18
ENDBRANCH  16  17
BRANCH  16  21
HETATM   21  N4  UNL     1      26.979   6.899  49.424  1.00  0.00    -0.330 N 
HETATM   22  C14 UNL     1      25.945   7.847  49.186  1.00  0.00     0.217 C 
HETATM   23  C15 UNL     1      25.961   9.080  49.997  1.00  0.00     0.117 C 
HETATM   24  O1  UNL     1      25.055   7.639  48.321  1.00  0.00    -0.274 OA
HETATM   25  H12 UNL     1      27.713   7.090  50.148  1.00  0.00     0.168 HD
ENDBRANCH  16  21
ENDBRANCH  13  15
ENDBRANCH   7   9
TORSDOF 5
ENDMDL
MODEL 4
REMARK VINA RESULT:      -7.7      3.731      7.084
REMARK  5 active torsions:
REMARK  status: ('A' for Active; 'I' for Inactive)
REMARK    1  A    between atoms: C7_7  and  C8_8 
REMARK    2  A    between atoms: C10_12  and  C11_13 
REMARK    3  A    between atoms: C12_14  and  C13_15 
REMARK    4  A    between atoms: C12_14  and  N4_17 
REMARK    5  A    between atoms: C13_15  and  N3_16 
REMARK       I    between atoms: N4_17  and  C14_18 
ROOT
HETATM    1  C1  UNL     1      28.991  -2.723  53.163  1.00  0.00     0.018 C 
HETATM    2  C2  UNL     1      28.648  -1.570  53.251  1.00  0.00    -0.078 C 
HETATM    3  C3  UNL     1      28.260  -0.190  53.350  1.00  0.00     0.017 A 
HETATM    4  C4  UNL     1      29.220   0.704  53.760  1.00  0.00     0.020 A 
HETATM    5  C5  UNL     1      28.833   2.024  53.850  1.00  0.00     0.002 A 
HETATM    6  C6  UNL     1      27.541   2.390  53.536  1.00  0.00     0.013 A 
HETATM    7  C7  UNL     1      26.577   1.493  53.123  1.00  0.00    -0.010 A 
HETATM    8  C17 UNL     1      26.967   0.154  53.032  1.00  0.00     0.034 A 
ENDROOT
BRANCH   7   9
HETATM    9  C8  UNL     1      25.206   1.852  52.786  1.00  0.00     0.048 A 
HETATM   10  N1  UNL     1      24.826   3.098  52.809  1.00  0.00    -0.246 NA
HETATM   11  C9  UNL     1      23.480   3.421  52.475  1.00  0.00     0.227 A 
HETATM   12  N2  UNL     1      22.643   2.510  52.153  1.00  0.00    -0.273 NA
HETATM   13  C10 UNL     1      22.916   1.108  52.084  1.00  0.00     0.139 A 
HETATM   14  C16 UNL     1      24.315   0.747  52.429  1.00  0.00     0.091 A 
BRANCH  13  15
HETATM   15  C11 UNL     1      21.986   0.320  52.941  1.00  0.00     0.027 C 
HETATM   16  C12 UNL     1      20.685   0.196  52.702  1.00  0.00     0.038 C 
BRANCH  16  17
HETATM   17  C13 UNL     1      19.736  -0.581  53.535  1.00  0.00     0.323 C 
BRANCH  17  18
HETATM   18  N3  UNL     1      20.372  -1.550  54.380  1.00  0.00     0.083 N 
HETATM   19  H10 UNL     1      20.891  -2.287  53.872  1.00  0.00     0.313 HD
HETATM   20  H11 UNL     1      20.916  -1.116  55.165  1.00  0.00     0.313 HD
ENDBRANCH  17  18
ENDBRANCH  16  17
BRANCH  16  21
HETATM   21  N4  UNL     1      20.013   0.794  51.600  1.00  0.00    -0.330 N 
HETATM   22  C14 UNL     1      19.319   2.005  51.325  1.00  0.00     0.217 C 
HETATM   23  C15 UNL     1      18.771   2.174  49.965  1.00  0.00     0.117 C 
HETATM   24  O1  UNL     1      19.179   2.893  52.205  1.00  0.00    -0.274 OA
HETATM   25  H12 UNL     1      20.119   0.065  50.855  1.00  0.00     0.168 HD
ENDBRANCH  16  21
ENDBRANCH  13  15
ENDBRANCH   7   9
TORSDOF 5
ENDMDL
MODEL 5
REMARK VINA RESULT:      -7.7      6.200      9.336
REMARK  5 active torsions:
REMARK  status: ('A' for Active; 'I' for Inactive)
REMARK    1  A    between atoms: C7_7  and  C8_8 
REMARK    2  A    between atoms: C10_12  and  C11_13 
REMARK    3  A    between atoms: C12_14  and  C13_15 
REMARK    4  A    between atoms: C12_14  and  N4_17 
REMARK    5  A    between atoms: C13_15  and  N3_16 
REMARK       I    between atoms: N4_17  and  C14_18 
ROOT
HETATM    1  C1  UNL     1      32.095   0.487  46.629  1.00  0.00     0.018 C 
HETATM    2  C2  UNL     1      32.493   1.566  46.992  1.00  0.00    -0.078 C 
HETATM    3  C3  UNL     1      32.986   2.848  47.413  1.00  0.00     0.017 A 
HETATM    4  C4  UNL     1      34.343   2.973  47.591  1.00  0.00     0.020 A 
HETATM    5  C5  UNL     1      34.801   4.208  47.995  1.00  0.00     0.002 A 
HETATM    6  C6  UNL     1      33.912   5.243  48.199  1.00  0.00     0.013 A 
HETATM    7  C7  UNL     1      32.549   5.120  48.020  1.00  0.00    -0.010 A 
HETATM    8  C17 UNL     1      32.084   3.868  47.610  1.00  0.00     0.034 A 
ENDROOT
BRANCH   7   9
HETATM    9  C8  UNL     1      31.589   6.196  48.228  1.00  0.00     0.048 A 
HETATM   10  N1  UNL     1      31.935   7.271  48.877  1.00  0.00    -0.246 NA
HETATM   11  C9  UNL     1      30.977   8.307  49.067  1.00  0.00     0.227 A 
HETATM   12  N2  UNL     1      29.787   8.197  48.611  1.00  0.00    -0.273 NA
HETATM   13  C10 UNL     1      29.268   7.081  47.884  1.00  0.00     0.139 A 
HETATM   14  C16 UNL     1      30.251   5.987  47.674  1.00  0.00     0.091 A 
BRANCH  13  15
HETATM   15  C11 UNL     1      28.048   6.519  48.528  1.00  0.00     0.027 C 
HETATM   16  C12 UNL     1      26.946   7.224  48.767  1.00  0.00     0.038 C 
BRANCH  16  17
HETATM   17  C13 UNL     1      25.718   6.693  49.405  1.00  0.00     0.323 C 
BRANCH  17  18
HETATM   18  N3  UNL     1      25.627   6.980  50.806  1.00  0.00     0.083 N 
HETATM   19  H10 UNL     1      26.282   7.709  51.139  1.00  0.00     0.313 HD
HETATM   20  H11 UNL     1      24.640   7.119  51.135  1.00  0.00     0.313 HD
ENDBRANCH  17  18
ENDBRANCH  16  17
BRANCH  16  21
HETATM   21  N4  UNL     1      26.789   8.599  48.440  1.00  0.00    -0.330 N 
HETATM   22  C14 UNL     1      26.680   9.838  49.131  1.00  0.00     0.217 C 
HETATM   23  C15 UNL     1      26.522  11.055  48.311  1.00  0.00     0.117 C 
HETATM   24  O1  UNL     1      26.717   9.890  50.387  1.00  0.00    -0.274 OA
HETATM   25  H12 UNL     1      26.755   8.574  47.392  1.00  0.00     0.168 HD
ENDBRANCH  16  21
ENDBRANCH  13  15
ENDBRANCH   7   9
TORSDOF 5
ENDMDL
MODEL 6
REMARK VINA RESULT:      -7.6      3.293      8.066
REMARK  5 active torsions:
REMARK  status: ('A' for Active; 'I' for Inactive)
REMARK    1  A    between atoms: C7_7  and  C8_8 
REMARK    2  A    between atoms: C10_12  and  C11_13 
REMARK    3  A    between atoms: C12_14  and  C13_15 
REMARK    4  A    between atoms: C12_14  and  N4_17 
REMARK    5  A    between atoms: C13_15  and  N3_16 
REMARK       I    between atoms: N4_17  and  C14_18 
ROOT
HETATM    1  C1  UNL     1      29.150   5.355  48.241  1.00  0.00     0.018 C 
HETATM    2  C2  UNL     1      27.976   5.493  48.481  1.00  0.00    -0.078 C 
HETATM    3  C3  UNL     1      26.576   5.666  48.748  1.00  0.00     0.017 A 
HETATM    4  C4  UNL     1      25.956   6.751  48.176  1.00  0.00     0.020 A 
HETATM    5  C5  UNL     1      24.612   6.904  48.441  1.00  0.00     0.002 A 
HETATM    6  C6  UNL     1      23.957   5.993  49.243  1.00  0.00     0.013 A 
HETATM    7  C7  UNL     1      24.578   4.903  49.818  1.00  0.00    -0.010 A 
HETATM    8  C17 UNL     1      25.940   4.747  49.550  1.00  0.00     0.034 A 
ENDROOT
BRANCH   7   9
HETATM    9  C8  UNL     1      23.909   3.927  50.668  1.00  0.00     0.048 A 
HETATM   10  N1  UNL     1      22.886   4.276  51.394  1.00  0.00    -0.246 NA
HETATM   11  C9  UNL     1      22.251   3.302  52.217  1.00  0.00     0.227 A 
HETATM   12  N2  UNL     1      22.670   2.095  52.253  1.00  0.00    -0.273 NA
HETATM   13  C10 UNL     1      23.776   1.570  51.514  1.00  0.00     0.139 A 
HETATM   14  C16 UNL     1      24.454   2.569  50.649  1.00  0.00     0.091 A 
BRANCH  13  15
HETATM   15  C11 UNL     1      24.787   0.936  52.407  1.00  0.00     0.027 C 
HETATM   16  C12 UNL     1      24.504  -0.023  53.282  1.00  0.00     0.038 C 
BRANCH  16  17
HETATM   17  C13 UNL     1      25.487  -0.672  54.182  1.00  0.00     0.323 C 
BRANCH  17  18
HETATM   18  N3  UNL     1      26.520   0.211  54.639  1.00  0.00     0.083 N 
HETATM   19  H10 UNL     1      26.283   0.742  55.496  1.00  0.00     0.313 HD
HETATM   20  H11 UNL     1      27.465  -0.243  54.672  1.00  0.00     0.313 HD
ENDBRANCH  17  18
ENDBRANCH  16  17
BRANCH  16  21
HETATM   21  N4  UNL     1      23.206  -0.569  53.479  1.00  0.00    -0.330 N 
HETATM   22  C14 UNL     1      22.462  -1.154  54.541  1.00  0.00     0.217 C 
HETATM   23  C15 UNL     1      21.084  -1.588  54.240  1.00  0.00     0.117 C 
HETATM   24  O1  UNL     1      22.960  -1.293  55.688  1.00  0.00    -0.274 OA
HETATM   25  H12 UNL     1      22.775  -0.462  52.529  1.00  0.00     0.168 HD
ENDBRANCH  16  21
ENDBRANCH  13  15
ENDBRANCH   7   9
TORSDOF 5
ENDMDL
MODEL 7
REMARK VINA RESULT:      -7.6      2.140      4.053
REMARK  5 active torsions:
REMARK  status: ('A' for Active; 'I' for Inactive)
REMARK    1  A    between atoms: C7_7  and  C8_8 
REMARK    2  A    between atoms: C10_12  and  C11_13 
REMARK    3  A    between atoms: C12_14  and  C13_15 
REMARK    4  A    between atoms: C12_14  and  N4_17 
REMARK    5  A    between atoms: C13_15  and  N3_16 
REMARK       I    between atoms: N4_17  and  C14_18 
ROOT
HETATM    1  C1  UNL     1      28.620  -0.135  54.633  1.00  0.00     0.018 C 
HETATM    2  C2  UNL     1      27.512   0.037  54.189  1.00  0.00    -0.078 C 
HETATM    3  C3  UNL     1      26.184   0.238  53.680  1.00  0.00     0.017 A 
HETATM    4  C4  UNL     1      25.174  -0.502  54.248  1.00  0.00     0.020 A 
HETATM    5  C5  UNL     1      23.906  -0.299  53.749  1.00  0.00     0.002 A 
HETATM    6  C6  UNL     1      23.699   0.609  52.732  1.00  0.00     0.013 A 
HETATM    7  C7  UNL     1      24.711   1.353  52.161  1.00  0.00    -0.010 A 
HETATM    8  C17 UNL     1      25.998   1.148  52.665  1.00  0.00     0.034 A 
ENDROOT
BRANCH   7   9
HETATM    9  C8  UNL     1      24.521   2.318  51.086  1.00  0.00     0.048 A 
HETATM   10  N1  UNL     1      23.507   2.209  50.275  1.00  0.00    -0.246 NA
HETATM   11  C9  UNL     1      23.344   3.166  49.233  1.00  0.00     0.227 A 
HETATM   12  N2  UNL     1      24.176   4.126  49.082  1.00  0.00    -0.273 NA
HETATM   13  C10 UNL     1      25.329   4.370  49.892  1.00  0.00     0.139 A 
HETATM   14  C16 UNL     1      25.518   3.383  50.986  1.00  0.00     0.091 A 
BRANCH  13  15
HETATM   15  C11 UNL     1      26.574   4.435  49.077  1.00  0.00     0.027 C 
HETATM   16  C12 UNL     1      27.305   5.535  48.929  1.00  0.00     0.038 C 
BRANCH  16  17
HETATM   17  C13 UNL     1      28.548   5.630  48.126  1.00  0.00     0.323 C 
BRANCH  17  18
HETATM   18  N3  UNL     1      29.683   6.083  48.875  1.00  0.00     0.083 N 
HETATM   19  H10 UNL     1      30.489   6.379  48.297  1.00  0.00     0.313 HD
HETATM   20  H11 UNL     1      29.432   6.767  49.630  1.00  0.00     0.313 HD
ENDBRANCH  17  18
ENDBRANCH  16  17
BRANCH  16  21
HETATM   21  N4  UNL     1      26.997   6.787  49.528  1.00  0.00    -0.330 N 
HETATM   22  C14 UNL     1      26.487   8.051  49.119  1.00  0.00     0.217 C 
HETATM   23  C15 UNL     1      26.339   9.087  50.159  1.00  0.00     0.117 C 
HETATM   24  O1  UNL     1      26.177   8.273  47.920  1.00  0.00    -0.274 OA
HETATM   25  H12 UNL     1      27.250   6.620  50.532  1.00  0.00     0.168 HD
ENDBRANCH  16  21
ENDBRANCH  13  15
ENDBRANCH   7   9
TORSDOF 5
ENDMDL
MODEL 8
REMARK VINA RESULT:      -7.6      2.197      2.562
REMARK  5 active torsions:
REMARK  status: ('A' for Active; 'I' for Inactive)
REMARK    1  A    between atoms: C7_7  and  C8_8 
REMARK    2  A    between atoms: C10_12  and  C11_13 
REMARK    3  A    between atoms: C12_14  and  C13_15 
REMARK    4  A    between atoms: C12_14  and  N4_17 
REMARK    5  A    between atoms: C13_15  and  N3_16 
REMARK       I    between atoms: N4_17  and  C14_18 
ROOT
HETATM    1  C1  UNL     1      18.609  -0.439  52.667  1.00  0.00     0.018 C 
HETATM    2  C2  UNL     1      19.759  -0.467  53.033  1.00  0.00    -0.078 C 
HETATM    3  C3  UNL     1      21.123  -0.520  53.476  1.00  0.00     0.017 A 
HETATM    4  C4  UNL     1      21.393  -1.275  54.593  1.00  0.00     0.020 A 
HETATM    5  C5  UNL     1      22.707  -1.316  55.006  1.00  0.00     0.002 A 
HETATM    6  C6  UNL     1      23.674  -0.623  54.310  1.00  0.00     0.013 A 
HETATM    7  C7  UNL     1      23.405   0.136  53.188  1.00  0.00    -0.010 A 
HETATM    8  C17 UNL     1      22.073   0.179  52.768  1.00  0.00     0.034 A 
ENDROOT
BRANCH   7   9
HETATM    9  C8  UNL     1      24.407   0.878  52.434  1.00  0.00     0.048 A 
HETATM   10  N1  UNL     1      25.669   0.567  52.532  1.00  0.00    -0.246 NA
HETATM   11  C9  UNL     1      26.627   1.309  51.784  1.00  0.00     0.227 A 
HETATM   12  N2  UNL     1      26.268   2.271  51.022  1.00  0.00    -0.273 NA
HETATM   13  C10 UNL     1      24.927   2.722  50.816  1.00  0.00     0.139 A 
HETATM   14  C16 UNL     1      23.910   1.962  51.587  1.00  0.00     0.091 A 
BRANCH  13  15
HETATM   15  C11 UNL     1      24.779   4.173  51.117  1.00  0.00     0.027 C 
HETATM   16  C12 UNL     1      24.132   5.029  50.333  1.00  0.00     0.038 C 
BRANCH  16  17
HETATM   17  C13 UNL     1      23.967   6.477  50.606  1.00  0.00     0.323 C 
BRANCH  17  18
HETATM   18  N3  UNL     1      24.453   6.879  51.893  1.00  0.00     0.083 N 
HETATM   19  H10 UNL     1      25.271   7.513  51.865  1.00  0.00     0.313 HD
HETATM   20  H11 UNL     1      23.691   7.204  52.537  1.00  0.00     0.313 HD
ENDBRANCH  17  18
ENDBRANCH  16  17
BRANCH  16  21
HETATM   21  N4  UNL     1      23.499   4.673  49.110  1.00  0.00    -0.330 N 
HETATM   22  C14 UNL     1      22.275   4.078  48.695  1.00  0.00     0.217 C 
HETATM   23  C15 UNL     1      22.066   3.909  47.244  1.00  0.00     0.117 C 
HETATM   24  O1  UNL     1      21.410   3.712  49.532  1.00  0.00    -0.274 OA
HETATM   25  H12 UNL     1      24.209   4.971  48.399  1.00  0.00     0.168 HD
ENDBRANCH  16  21
ENDBRANCH  13  15
ENDBRANCH   7   9
TORSDOF 5
ENDMDL
MODEL 9
REMARK VINA RESULT:      -7.5      3.966      6.492
REMARK  5 active torsions:
REMARK  status: ('A' for Active; 'I' for Inactive)
REMARK    1  A    between atoms: C7_7  and  C8_8 
REMARK    2  A    between atoms: C10_12  and  C11_13 
REMARK    3  A    between atoms: C12_14  and  C13_15 
REMARK    4  A    between atoms: C12_14  and  N4_17 
REMARK    5  A    between atoms: C13_15  and  N3_16 
REMARK       I    between atoms: N4_17  and  C14_18 
ROOT
HETATM    1  C1  UNL     1      30.172  -1.751  53.816  1.00  0.00     0.018 C 
HETATM    2  C2  UNL     1      29.320  -0.901  53.740  1.00  0.00    -0.078 C 
HETATM    3  C3  UNL     1      28.319   0.124  53.636  1.00  0.00     0.017 A 
HETATM    4  C4  UNL     1      28.757   1.421  53.515  1.00  0.00     0.020 A 
HETATM    5  C5  UNL     1      27.785   2.393  53.416  1.00  0.00     0.002 A 
HETATM    6  C6  UNL     1      26.451   2.043  53.441  1.00  0.00     0.013 A 
HETATM    7  C7  UNL     1      26.010   0.741  53.562  1.00  0.00    -0.010 A 
HETATM    8  C17 UNL     1      26.994  -0.245  53.662  1.00  0.00     0.034 A 
ENDROOT
BRANCH   7   9
HETATM    9  C8  UNL     1      24.608   0.345  53.590  1.00  0.00     0.048 A 
HETATM   10  N1  UNL     1      24.216  -0.637  54.352  1.00  0.00    -0.246 NA
HETATM   11  C9  UNL     1      22.840  -1.004  54.361  1.00  0.00     0.227 A 
HETATM   12  N2  UNL     1      21.988  -0.386  53.635  1.00  0.00    -0.273 NA
HETATM   13  C10 UNL     1      22.271   0.705  52.755  1.00  0.00     0.139 A 
HETATM   14  C16 UNL     1      23.701   1.105  52.730  1.00  0.00     0.091 A 
BRANCH  13  15
HETATM   15  C11 UNL     1      21.821   0.424  51.363  1.00  0.00     0.027 C 
HETATM   16  C12 UNL     1      21.510   1.368  50.481  1.00  0.00     0.038 C 
BRANCH  16  17
HETATM   17  C13 UNL     1      21.060   1.120  49.090  1.00  0.00     0.323 C 
BRANCH  17  18
HETATM   18  N3  UNL     1      19.851   1.808  48.745  1.00  0.00     0.083 N 
HETATM   19  H10 UNL     1      19.663   1.863  47.729  1.00  0.00     0.313 HD
HETATM   20  H11 UNL     1      19.024   1.495  49.310  1.00  0.00     0.313 HD
ENDBRANCH  17  18
ENDBRANCH  16  17
BRANCH  16  21
HETATM   21  N4  UNL     1      21.566   2.764  50.750  1.00  0.00    -0.330 N 
HETATM   22  C14 UNL     1      20.913   3.697  51.602  1.00  0.00     0.217 C 
HETATM   23  C15 UNL     1      21.340   5.107  51.512  1.00  0.00     0.117 C 
HETATM   24  O1  UNL     1      20.009   3.333  52.399  1.00  0.00    -0.274 OA
HETATM   25  H12 UNL     1      22.316   3.085  50.092  1.00  0.00     0.168 HD
ENDBRANCH  16  21
ENDBRANCH  13  15
ENDBRANCH   7   9
TORSDOF 5
ENDMDL
