MODEL 1
REMARK VINA RESULT:      -8.2      0.000      0.000
REMARK  0 active torsions:
REMARK  status: ('A' for Active; 'I' for Inactive)
ROOT
HETATM    1  F1  UNL     1      24.095   1.810  50.828  1.00  0.00    -0.242 F 
HETATM    2  C1  UNL     1      24.927   1.833  51.955  1.00  0.00     0.227 C 
HETATM    3  C2  UNL     1      26.312   1.652  51.465  1.00  0.00     0.071 C 
HETATM    4  C3  UNL     1      27.397   2.031  52.363  1.00  0.00    -0.024 C 
HETATM    5  C4  UNL     1      27.894   1.649  53.553  1.00  0.00    -0.004 C 
HETATM    6  C5  UNL     1      27.412   0.563  54.436  1.00  0.00     0.000 C 
HETATM    7  C6  UNL     1      26.243  -0.053  54.602  1.00  0.00     0.011 C 
HETATM    8  C7  UNL     1      24.948   0.121  53.949  1.00  0.00    -0.005 C 
HETATM    9  C8  UNL     1      24.444   0.848  52.928  1.00  0.00     0.099 C 
HETATM   10  N1  UNL     1      23.066   0.688  52.623  1.00  0.00    -0.149 NA
HETATM   11  N2  UNL     1      22.121   1.179  53.353  1.00  0.00    -0.129 NA
HETATM   12  C9  UNL     1      20.788   0.911  52.884  1.00  0.00     0.184 A 
HETATM   13  N3  UNL     1      20.200   1.848  52.127  1.00  0.00    -0.220 NA
HETATM   14  C10 UNL     1      18.960   1.702  51.632  1.00  0.00     0.235 A 
HETATM   15  N4  UNL     1      18.259   0.591  51.887  1.00  0.00    -0.253 NA
HETATM   16  C11 UNL     1      18.841  -0.353  52.645  1.00  0.00     0.133 A 
HETATM   17  C12 UNL     1      20.126  -0.248  53.181  1.00  0.00     0.033 A 
HETATM   18  C13 UNL     1      20.564  -1.383  53.974  1.00  0.00     0.041 C 
HETATM   19  C14 UNL     1      21.801  -1.786  54.221  1.00  0.00     0.136 C 
HETATM   20  O1  UNL     1      22.994  -1.252  53.804  1.00  0.00    -0.358 OA
HETATM   21  C15 UNL     1      24.002  -0.795  54.691  1.00  0.00     0.215 C 
ENDROOT
TORSDOF 0
ENDMDL
MODEL 2
REMARK VINA RESULT:      -8.1      2.529      4.250
REMARK  0 active torsions:
REMARK  status: ('A' for Active; 'I' for Inactive)
ROOT
HETATM    1  F1  UNL     1      21.903   2.215  50.161  1.00  0.00    -0.242 F 
HETATM    2  C1  UNL     1      22.940   3.156  50.189  1.00  0.00     0.227 C 
HETATM    3  C2  UNL     1      23.154   3.594  48.791  1.00  0.00     0.071 C 
HETATM    4  C3  UNL     1      23.884   4.840  48.583  1.00  0.00    -0.024 C 
HETATM    5  C4  UNL     1      25.118   5.328  48.799  1.00  0.00    -0.004 C 
HETATM    6  C5  UNL     1      26.278   4.637  49.405  1.00  0.00     0.000 C 
HETATM    7  C6  UNL     1      26.417   3.608  50.241  1.00  0.00     0.011 C 
HETATM    8  C7  UNL     1      25.438   2.746  50.898  1.00  0.00    -0.005 C 
HETATM    9  C8  UNL     1      24.099   2.574  50.875  1.00  0.00     0.099 C 
HETATM   10  N1  UNL     1      23.550   1.566  51.713  1.00  0.00    -0.149 NA
HETATM   11  N2  UNL     1      23.446   1.694  52.993  1.00  0.00    -0.129 NA
HETATM   12  C9  UNL     1      22.867   0.567  53.672  1.00  0.00     0.184 A 
HETATM   13  N3  UNL     1      21.550   0.607  53.923  1.00  0.00    -0.220 NA
HETATM   14  C10 UNL     1      20.903  -0.390  54.548  1.00  0.00     0.235 A 
HETATM   15  N4  UNL     1      21.571  -1.479  54.948  1.00  0.00    -0.253 NA
HETATM   16  C11 UNL     1      22.890  -1.528  54.701  1.00  0.00     0.133 A 
HETATM   17  C12 UNL     1      23.606  -0.517  54.055  1.00  0.00     0.033 A 
HETATM   18  C13 UNL     1      25.027  -0.770  53.889  1.00  0.00     0.041 C 
HETATM   19  C14 UNL     1      25.850  -0.272  52.980  1.00  0.00     0.136 C 
HETATM   20  O1  UNL     1      25.596   0.608  51.958  1.00  0.00    -0.358 OA
HETATM   21  C15 UNL     1      26.243   1.862  51.822  1.00  0.00     0.215 C 
ENDROOT
TORSDOF 0
ENDMDL
MODEL 3
REMARK VINA RESULT:      -8.0      2.414      6.098
REMARK  0 active torsions:
REMARK  status: ('A' for Active; 'I' for Inactive)
ROOT
HETATM    1  F1  UNL     1      23.759   4.063  52.646  1.00  0.00    -0.242 F 
HETATM    2  C1  UNL     1      22.919   3.237  51.888  1.00  0.00     0.227 C 
HETATM    3  C2  UNL     1      21.565   3.832  51.955  1.00  0.00     0.071 C 
HETATM    4  C3  UNL     1      20.597   3.413  50.948  1.00  0.00    -0.024 C 
HETATM    5  C4  UNL     1      19.955   2.290  50.579  1.00  0.00    -0.004 C 
HETATM    6  C5  UNL     1      20.059   0.941  51.180  1.00  0.00     0.000 C 
HETATM    7  C6  UNL     1      20.990   0.309  51.893  1.00  0.00     0.011 C 
HETATM    8  C7  UNL     1      22.309   0.725  52.364  1.00  0.00    -0.005 C 
HETATM    9  C8  UNL     1      23.049   1.855  52.361  1.00  0.00     0.099 C 
HETATM   10  N1  UNL     1      24.334   1.802  52.965  1.00  0.00    -0.149 NA
HETATM   11  N2  UNL     1      25.346   1.216  52.419  1.00  0.00    -0.129 NA
HETATM   12  C9  UNL     1      26.563   1.265  53.182  1.00  0.00     0.184 A 
HETATM   13  N3  UNL     1      27.433   2.244  52.895  1.00  0.00    -0.220 NA
HETATM   14  C10 UNL     1      28.598   2.389  53.546  1.00  0.00     0.235 A 
HETATM   15  N4  UNL     1      28.934   1.538  54.524  1.00  0.00    -0.253 NA
HETATM   16  C11 UNL     1      28.068   0.554  54.818  1.00  0.00     0.133 A 
HETATM   17  C12 UNL     1      26.846   0.364  54.171  1.00  0.00     0.033 A 
HETATM   18  C13 UNL     1      26.060  -0.763  54.643  1.00  0.00     0.041 C 
HETATM   19  C14 UNL     1      24.750  -0.939  54.575  1.00  0.00     0.136 C 
HETATM   20  O1  UNL     1      23.783  -0.119  54.047  1.00  0.00    -0.358 OA
HETATM   21  C15 UNL     1      22.912  -0.507  52.998  1.00  0.00     0.215 C 
ENDROOT
TORSDOF 0
ENDMDL
MODEL 4
REMARK VINA RESULT:      -7.9      3.790      5.050
REMARK  0 active torsions:
REMARK  status: ('A' for Active; 'I' for Inactive)
ROOT
HETATM    1  F1  UNL     1      26.342   3.212  50.862  1.00  0.00    -0.242 F 
HETATM    2  C1  UNL     1      25.994   2.335  51.897  1.00  0.00     0.227 C 
HETATM    3  C2  UNL     1      26.637   1.038  51.588  1.00  0.00     0.071 C 
HETATM    4  C3  UNL     1      26.773   0.079  52.679  1.00  0.00    -0.024 C 
HETATM    5  C4  UNL     1      25.975  -0.643  53.485  1.00  0.00    -0.004 C 
HETATM    6  C5  UNL     1      24.495  -0.685  53.504  1.00  0.00     0.000 C 
HETATM    7  C6  UNL     1      23.535   0.155  53.121  1.00  0.00     0.011 C 
HETATM    8  C7  UNL     1      23.586   1.485  52.517  1.00  0.00    -0.005 C 
HETATM    9  C8  UNL     1      24.535   2.322  52.046  1.00  0.00     0.099 C 
HETATM   10  N1  UNL     1      24.110   3.570  51.518  1.00  0.00    -0.149 NA
HETATM   11  N2  UNL     1      23.708   4.548  52.259  1.00  0.00    -0.129 NA
HETATM   12  C9  UNL     1      23.315   5.731  51.544  1.00  0.00     0.184 A 
HETATM   13  N3  UNL     1      24.234   6.696  51.394  1.00  0.00    -0.220 NA
HETATM   14  C10 UNL     1      23.978   7.842  50.741  1.00  0.00     0.235 A 
HETATM   15  N4  UNL     1      22.769   8.059  50.209  1.00  0.00    -0.253 NA
HETATM   16  C11 UNL     1      21.843   7.098  50.355  1.00  0.00     0.133 A 
HETATM   17  C12 UNL     1      22.060   5.891  51.024  1.00  0.00     0.033 A 
HETATM   18  C13 UNL     1      20.922   4.989  51.067  1.00  0.00     0.041 C 
HETATM   19  C14 UNL     1      20.921   3.673  51.204  1.00  0.00     0.136 C 
HETATM   20  O1  UNL     1      21.977   2.806  51.340  1.00  0.00    -0.358 OA
HETATM   21  C15 UNL     1      22.148   1.949  52.457  1.00  0.00     0.215 C 
ENDROOT
TORSDOF 0
ENDMDL
MODEL 5
REMARK VINA RESULT:      -7.7      2.391      3.474
REMARK  0 active torsions:
REMARK  status: ('A' for Active; 'I' for Inactive)
ROOT
HETATM    1  F1  UNL     1      20.459   0.897  49.073  1.00  0.00    -0.242 F 
HETATM    2  C1  UNL     1      21.424   1.781  49.571  1.00  0.00     0.227 C 
HETATM    3  C2  UNL     1      22.408   1.993  48.486  1.00  0.00     0.071 C 
HETATM    4  C3  UNL     1      23.280   3.158  48.589  1.00  0.00    -0.024 C 
HETATM    5  C4  UNL     1      24.253   3.615  49.397  1.00  0.00    -0.004 C 
HETATM    6  C5  UNL     1      24.810   2.969  50.608  1.00  0.00     0.000 C 
HETATM    7  C6  UNL     1      24.351   2.073  51.480  1.00  0.00     0.011 C 
HETATM    8  C7  UNL     1      23.076   1.367  51.573  1.00  0.00    -0.005 C 
HETATM    9  C8  UNL     1      21.950   1.256  50.836  1.00  0.00     0.099 C 
HETATM   10  N1  UNL     1      20.919   0.413  51.330  1.00  0.00    -0.149 NA
HETATM   11  N2  UNL     1      20.159   0.737  52.322  1.00  0.00    -0.129 NA
HETATM   12  C9  UNL     1      19.173  -0.246  52.680  1.00  0.00     0.184 A 
HETATM   13  N3  UNL     1      17.945  -0.107  52.160  1.00  0.00    -0.220 NA
HETATM   14  C10 UNL     1      16.948  -0.968  52.423  1.00  0.00     0.235 A 
HETATM   15  N4  UNL     1      17.156  -2.014  53.232  1.00  0.00    -0.253 NA
HETATM   16  C11 UNL     1      18.384  -2.160  53.757  1.00  0.00     0.133 A 
HETATM   17  C12 UNL     1      19.452  -1.294  53.513  1.00  0.00     0.033 A 
HETATM   18  C13 UNL     1      20.695  -1.634  54.182  1.00  0.00     0.041 C 
HETATM   19  C14 UNL     1      21.932  -1.318  53.831  1.00  0.00     0.136 C 
HETATM   20  O1  UNL     1      22.377  -0.592  52.754  1.00  0.00    -0.358 OA
HETATM   21  C15 UNL     1      23.143   0.595  52.872  1.00  0.00     0.215 C 
ENDROOT
TORSDOF 0
ENDMDL
MODEL 6
REMARK VINA RESULT:      -7.6      2.999      5.981
REMARK  0 active torsions:
REMARK  status: ('A' for Active; 'I' for Inactive)
ROOT
HETATM    1  F1  UNL     1      25.086   4.114  50.886  1.00  0.00    -0.242 F 
HETATM    2  C1  UNL     1      24.253   3.421  49.998  1.00  0.00     0.227 C 
HETATM    3  C2  UNL     1      23.280   4.405  49.473  1.00  0.00     0.071 C 
HETATM    4  C3  UNL     1      22.565   4.054  48.250  1.00  0.00    -0.024 C 
HETATM    5  C4  UNL     1      21.676   3.134  47.837  1.00  0.00    -0.004 C 
HETATM    6  C5  UNL     1      21.068   2.036  48.623  1.00  0.00     0.000 C 
HETATM    7  C6  UNL     1      21.429   1.361  49.713  1.00  0.00     0.011 C 
HETATM    8  C7  UNL     1      22.607   1.454  50.573  1.00  0.00    -0.005 C 
HETATM    9  C8  UNL     1      23.692   2.249  50.681  1.00  0.00     0.099 C 
HETATM   10  N1  UNL     1      24.619   1.962  51.718  1.00  0.00    -0.149 NA
HETATM   11  N2  UNL     1      25.436   0.963  51.677  1.00  0.00    -0.129 NA
HETATM   12  C9  UNL     1      26.297   0.833  52.821  1.00  0.00     0.184 A 
HETATM   13  N3  UNL     1      27.521   1.374  52.738  1.00  0.00    -0.220 NA
HETATM   14  C10 UNL     1      28.406   1.316  53.746  1.00  0.00     0.235 A 
HETATM   15  N4  UNL     1      28.084   0.700  54.890  1.00  0.00    -0.253 NA
HETATM   16  C11 UNL     1      26.860   0.156  54.982  1.00  0.00     0.133 A 
HETATM   17  C12 UNL     1      25.906   0.191  53.963  1.00  0.00     0.033 A 
HETATM   18  C13 UNL     1      24.644  -0.461  54.269  1.00  0.00     0.041 C 
HETATM   19  C14 UNL     1      23.450  -0.228  53.747  1.00  0.00     0.136 C 
HETATM   20  O1  UNL     1      23.077   0.678  52.786  1.00  0.00    -0.358 OA
HETATM   21  C15 UNL     1      22.471   0.314  51.557  1.00  0.00     0.215 C 
ENDROOT
TORSDOF 0
ENDMDL
MODEL 7
REMARK VINA RESULT:      -7.6      3.106      5.157
REMARK  0 active torsions:
REMARK  status: ('A' for Active; 'I' for Inactive)
ROOT
HETATM    1  F1  UNL     1      26.075   1.259  52.567  1.00  0.00    -0.242 F 
HETATM    2  C1  UNL     1      25.041   0.823  53.406  1.00  0.00     0.227 C 
HETATM    3  C2  UNL     1      25.439  -0.511  53.910  1.00  0.00     0.071 C 
HETATM    4  C3  UNL     1      24.751  -1.012  55.095  1.00  0.00    -0.024 C 
HETATM    5  C4  UNL     1      23.508  -1.378  55.454  1.00  0.00    -0.004 C 
HETATM    6  C5  UNL     1      22.282  -1.381  54.623  1.00  0.00     0.000 C 
HETATM    7  C6  UNL     1      21.894  -0.716  53.536  1.00  0.00     0.011 C 
HETATM    8  C7  UNL     1      22.556   0.303  52.727  1.00  0.00    -0.005 C 
HETATM    9  C8  UNL     1      23.770   0.894  52.678  1.00  0.00     0.099 C 
HETATM   10  N1  UNL     1      23.986   1.875  51.674  1.00  0.00    -0.149 NA
HETATM   11  N2  UNL     1      23.482   3.062  51.730  1.00  0.00    -0.129 NA
HETATM   12  C9  UNL     1      23.810   3.915  50.620  1.00  0.00     0.184 A 
HETATM   13  N3  UNL     1      24.856   4.742  50.763  1.00  0.00    -0.220 NA
HETATM   14  C10 UNL     1      25.254   5.578  49.791  1.00  0.00     0.235 A 
HETATM   15  N4  UNL     1      24.601   5.613  48.623  1.00  0.00    -0.253 NA
HETATM   16  C11 UNL     1      23.552   4.788  48.471  1.00  0.00     0.133 A 
HETATM   17  C12 UNL     1      23.101   3.901  49.450  1.00  0.00     0.033 A 
HETATM   18  C13 UNL     1      21.948   3.099  49.081  1.00  0.00     0.041 C 
HETATM   19  C14 UNL     1      21.578   1.921  49.558  1.00  0.00     0.136 C 
HETATM   20  O1  UNL     1      22.170   1.142  50.520  1.00  0.00    -0.358 OA
HETATM   21  C15 UNL     1      21.521   0.743  51.716  1.00  0.00     0.215 C 
ENDROOT
TORSDOF 0
ENDMDL
MODEL 8
REMARK VINA RESULT:      -7.5      2.072      3.317
REMARK  0 active torsions:
REMARK  status: ('A' for Active; 'I' for Inactive)
ROOT
HETATM    1  F1  UNL     1      22.883  -0.780  53.798  1.00  0.00    -0.242 F 
HETATM    2  C1  UNL     1      24.050  -0.401  53.121  1.00  0.00     0.227 C 
HETATM    3  C2  UNL     1      25.175  -0.627  54.056  1.00  0.00     0.071 C 
HETATM    4  C3  UNL     1      26.517  -0.697  53.487  1.00  0.00    -0.024 C 
HETATM    5  C4  UNL     1      27.374   0.111  52.837  1.00  0.00    -0.004 C 
HETATM    6  C5  UNL     1      27.178   1.526  52.451  1.00  0.00     0.000 C 
HETATM    7  C6  UNL     1      26.111   2.289  52.221  1.00  0.00     0.011 C 
HETATM    8  C7  UNL     1      24.679   2.003  52.265  1.00  0.00    -0.005 C 
HETATM    9  C8  UNL     1      23.888   0.966  52.613  1.00  0.00     0.099 C 
HETATM   10  N1  UNL     1      22.483   1.140  52.497  1.00  0.00    -0.149 NA
HETATM   11  N2  UNL     1      21.866   1.146  51.363  1.00  0.00    -0.129 NA
HETATM   12  C9  UNL     1      20.443   1.338  51.446  1.00  0.00     0.184 A 
HETATM   13  N3  UNL     1      19.671   0.242  51.452  1.00  0.00    -0.220 NA
HETATM   14  C10 UNL     1      18.332   0.303  51.530  1.00  0.00     0.235 A 
HETATM   15  N4  UNL     1      17.714   1.488  51.605  1.00  0.00    -0.253 NA
HETATM   16  C11 UNL     1      18.480   2.591  51.598  1.00  0.00     0.133 A 
HETATM   17  C12 UNL     1      19.874   2.579  51.520  1.00  0.00     0.033 A 
HETATM   18  C13 UNL     1      20.509   3.886  51.526  1.00  0.00     0.041 C 
HETATM   19  C14 UNL     1      21.738   4.201  51.905  1.00  0.00     0.136 C 
HETATM   20  O1  UNL     1      22.738   3.396  52.388  1.00  0.00    -0.358 OA
HETATM   21  C15 UNL     1      24.006   3.262  51.768  1.00  0.00     0.215 C 
ENDROOT
TORSDOF 0
ENDMDL
MODEL 9
REMARK VINA RESULT:      -7.5      3.903      5.679
REMARK  0 active torsions:
REMARK  status: ('A' for Active; 'I' for Inactive)
ROOT
HETATM    1  F1  UNL     1      22.205   2.056  51.973  1.00  0.00    -0.242 F 
HETATM    2  C1  UNL     1      23.351   1.257  51.871  1.00  0.00     0.227 C 
HETATM    3  C2  UNL     1      23.595   0.689  53.216  1.00  0.00     0.071 C 
HETATM    4  C3  UNL     1      24.469  -0.475  53.305  1.00  0.00    -0.024 C 
HETATM    5  C4  UNL     1      25.758  -0.782  53.073  1.00  0.00    -0.004 C 
HETATM    6  C5  UNL     1      26.834   0.110  52.584  1.00  0.00     0.000 C 
HETATM    7  C6  UNL     1      26.858   1.237  51.874  1.00  0.00     0.011 C 
HETATM    8  C7  UNL     1      25.790   2.044  51.289  1.00  0.00    -0.005 C 
HETATM    9  C8  UNL     1      24.440   2.050  51.290  1.00  0.00     0.099 C 
HETATM   10  N1  UNL     1      23.784   3.073  50.554  1.00  0.00    -0.149 NA
HETATM   11  N2  UNL     1      23.718   3.083  49.266  1.00  0.00    -0.129 NA
HETATM   12  C9  UNL     1      23.015   4.202  48.700  1.00  0.00     0.184 A 
HETATM   13  N3  UNL     1      21.718   4.032  48.406  1.00  0.00    -0.220 NA
HETATM   14  C10 UNL     1      20.963   5.010  47.879  1.00  0.00     0.235 A 
HETATM   15  N4  UNL     1      21.498   6.210  47.624  1.00  0.00    -0.253 NA
HETATM   16  C11 UNL     1      22.797   6.389  47.915  1.00  0.00     0.133 A 
HETATM   17  C12 UNL     1      23.621   5.405  48.464  1.00  0.00     0.033 A 
HETATM   18  C13 UNL     1      24.997   5.806  48.700  1.00  0.00     0.041 C 
HETATM   19  C14 UNL     1      25.861   5.310  49.572  1.00  0.00     0.136 C 
HETATM   20  O1  UNL     1      25.700   4.294  50.481  1.00  0.00    -0.358 OA
HETATM   21  C15 UNL     1      26.495   3.120  50.495  1.00  0.00     0.215 C 
ENDROOT
TORSDOF 0
ENDMDL
