MODEL 1
REMARK VINA RESULT:      -8.2      0.000      0.000
REMARK  7 active torsions:
REMARK  status: ('A' for Active; 'I' for Inactive)
REMARK    1  A    between atoms: C2_2  and  N1_4 
REMARK    2  A    between atoms: N1_4  and  C4_5 
REMARK    3  A    between atoms: C4_5  and  C5_6 
REMARK    4  A    between atoms: C6_7  and  C7_8 
REMARK       I    between atoms: C7_8  and  N2_10 
REMARK    5  A    between atoms: N2_10  and  C8_11 
REMARK    6  A    between atoms: C12_18  and  N6_19 
REMARK    7  A    between atoms: N6_19  and  C13_20 
ROOT
HETATM    1  C8  UNL     1      21.069   1.593  51.125  1.00  0.00     0.215 C 
HETATM    2  N3  UNL     1      21.972   2.086  50.185  1.00  0.00    -0.273 NA
HETATM    3  C9  UNL     1      23.104   2.490  49.773  1.00  0.00     0.145 C 
HETATM    4  C10 UNL     1      24.339   2.583  50.567  1.00  0.00     0.089 A 
HETATM    5  N4  UNL     1      25.344   2.859  49.728  1.00  0.00    -0.240 NA
HETATM    6  C11 UNL     1      26.610   3.008  50.165  1.00  0.00     0.236 A 
HETATM    7  N5  UNL     1      26.900   2.884  51.475  1.00  0.00    -0.224 NA
HETATM    8  C12 UNL     1      25.963   2.611  52.372  1.00  0.00     0.142 A 
HETATM    9  C19 UNL     1      24.684   2.462  51.902  1.00  0.00     0.040 A 
HETATM   10  C20 UNL     1      23.797   2.174  53.056  1.00  0.00     0.014 C 
HETATM   11  C21 UNL     1      22.583   1.586  53.152  1.00  0.00    -0.018 C 
HETATM   12  C22 UNL     1      21.521   0.959  52.369  1.00  0.00     0.048 C 
HETATM   13  C23 UNL     1      21.803  -0.521  52.107  1.00  0.00     0.018 C 
ENDROOT
BRANCH   1  14
HETATM   14  N2  UNL     1      20.030   2.628  51.308  1.00  0.00    -0.327 N 
HETATM   15  C7  UNL     1      18.694   2.217  51.481  1.00  0.00     0.298 C 
HETATM   16  O1  UNL     1      18.422   0.958  51.469  1.00  0.00    -0.258 OA
HETATM   17  H11 UNL     1      20.056   3.667  51.340  1.00  0.00     0.165 HD
BRANCH  15  18
HETATM   18  C6  UNL     1      17.477   2.939  51.680  1.00  0.00    -0.004 C 
HETATM   19  C5  UNL     1      16.447   3.525  51.845  1.00  0.00    -0.066 C 
BRANCH  19  20
HETATM   20  C4  UNL     1      15.176   4.219  52.056  1.00  0.00     0.363 C 
BRANCH  20  21
HETATM   21  N1  UNL     1      14.696   3.998  53.393  1.00  0.00     0.098 N 
HETATM   22  H8  UNL     1      15.196   3.246  53.873  1.00  0.00     0.317 HD
BRANCH  21  23
HETATM   23  C2  UNL     1      13.257   3.687  53.303  1.00  0.00     0.213 C 
HETATM   24  C1  UNL     1      12.700   4.421  52.068  1.00  0.00     0.042 C 
HETATM   25  C3  UNL     1      12.520   4.138  54.527  1.00  0.00     0.042 C 
ENDBRANCH  21  23
ENDBRANCH  20  21
ENDBRANCH  19  20
ENDBRANCH  15  18
ENDBRANCH   1  14
BRANCH   8  26
HETATM   26  N6  UNL     1      26.232   2.471  53.776  1.00  0.00    -0.340 N 
HETATM   27  H15 UNL     1      26.046   2.920  54.696  1.00  0.00     0.167 HD
BRANCH  26  28
HETATM   28  C13 UNL     1      27.053   1.276  53.786  1.00  0.00     0.032 A 
HETATM   29  C14 UNL     1      28.227   0.889  54.319  1.00  0.00     0.012 A 
HETATM   30  C15 UNL     1      28.625  -0.514  54.006  1.00  0.00     0.051 A 
HETATM   31  C16 UNL     1      29.886  -0.566  53.212  1.00  0.00     0.020 C 
HETATM   32  C17 UNL     1      27.480  -0.944  53.170  1.00  0.00     0.021 A 
HETATM   33 CL1  UNL     1      27.388  -2.552  52.493  1.00  0.00    -0.088 Cl
HETATM   34  C18 UNL     1      26.624   0.057  53.061  1.00  0.00     0.049 A 
ENDBRANCH  26  28
ENDBRANCH   8  26
TORSDOF 7
ENDMDL
MODEL 2
REMARK VINA RESULT:      -8.1      3.861      4.798
REMARK  7 active torsions:
REMARK  status: ('A' for Active; 'I' for Inactive)
REMARK    1  A    between atoms: C2_2  and  N1_4 
REMARK    2  A    between atoms: N1_4  and  C4_5 
REMARK    3  A    between atoms: C4_5  and  C5_6 
REMARK    4  A    between atoms: C6_7  and  C7_8 
REMARK       I    between atoms: C7_8  and  N2_10 
REMARK    5  A    between atoms: N2_10  and  C8_11 
REMARK    6  A    between atoms: C12_18  and  N6_19 
REMARK    7  A    between atoms: N6_19  and  C13_20 
ROOT
HETATM    1  C8  UNL     1      19.394   0.618  52.271  1.00  0.00     0.215 C 
HETATM    2  N3  UNL     1      19.750  -0.179  53.357  1.00  0.00    -0.273 NA
HETATM    3  C9  UNL     1      20.560  -0.749  54.155  1.00  0.00     0.145 C 
HETATM    4  C10 UNL     1      22.028  -0.673  54.109  1.00  0.00     0.089 A 
HETATM    5  N4  UNL     1      22.501  -1.239  55.226  1.00  0.00    -0.240 NA
HETATM    6  C11 UNL     1      23.822  -1.324  55.471  1.00  0.00     0.236 A 
HETATM    7  N5  UNL     1      24.715  -0.837  54.586  1.00  0.00    -0.224 NA
HETATM    8  C12 UNL     1      24.330  -0.260  53.456  1.00  0.00     0.142 A 
HETATM    9  C19 UNL     1      22.980  -0.185  53.230  1.00  0.00     0.040 A 
HETATM   10  C20 UNL     1      22.764   0.479  51.921  1.00  0.00     0.014 C 
HETATM   11  C21 UNL     1      21.708   1.136  51.392  1.00  0.00    -0.018 C 
HETATM   12  C22 UNL     1      20.338   1.564  51.666  1.00  0.00     0.048 C 
HETATM   13  C23 UNL     1      20.296   2.884  52.438  1.00  0.00     0.018 C 
ENDROOT
BRANCH   1  14
HETATM   14  N2  UNL     1      18.699  -0.258  51.304  1.00  0.00    -0.327 N 
HETATM   15  C7  UNL     1      17.459   0.163  50.785  1.00  0.00     0.298 C 
HETATM   16  O1  UNL     1      16.970   1.291  51.173  1.00  0.00    -0.258 OA
HETATM   17  H11 UNL     1      18.929  -1.181  50.887  1.00  0.00     0.165 HD
BRANCH  15  18
HETATM   18  C6  UNL     1      16.548  -0.426  49.855  1.00  0.00    -0.004 C 
HETATM   19  C5  UNL     1      15.795  -0.938  49.080  1.00  0.00    -0.066 C 
BRANCH  19  20
HETATM   20  C4  UNL     1      14.878  -1.587  48.143  1.00  0.00     0.363 C 
BRANCH  20  21
HETATM   21  N1  UNL     1      14.711  -2.975  48.479  1.00  0.00     0.098 N 
HETATM   22  H8  UNL     1      14.265  -3.512  47.730  1.00  0.00     0.317 HD
BRANCH  21  23
HETATM   23  C2  UNL     1      13.908  -3.042  49.713  1.00  0.00     0.213 C 
HETATM   24  C1  UNL     1      14.495  -4.167  50.588  1.00  0.00     0.042 C 
HETATM   25  C3  UNL     1      12.470  -3.338  49.418  1.00  0.00     0.042 C 
ENDBRANCH  21  23
ENDBRANCH  20  21
ENDBRANCH  19  20
ENDBRANCH  15  18
ENDBRANCH   1  14
BRANCH   8  26
HETATM   26  N6  UNL     1      25.249   0.270  52.489  1.00  0.00    -0.340 N 
HETATM   27  H15 UNL     1      25.302   0.609  51.506  1.00  0.00     0.167 HD
BRANCH  26  28
HETATM   28  C13 UNL     1      26.482   0.284  53.252  1.00  0.00     0.032 A 
HETATM   29  C14 UNL     1      26.997   0.979  54.284  1.00  0.00     0.012 A 
HETATM   30  C15 UNL     1      28.369   0.564  54.695  1.00  0.00     0.051 A 
HETATM   31  C16 UNL     1      29.358   1.663  54.505  1.00  0.00     0.020 C 
HETATM   32  C17 UNL     1      28.628  -0.527  53.726  1.00  0.00     0.021 A 
HETATM   33 CL1  UNL     1      30.130  -1.418  53.726  1.00  0.00    -0.088 Cl
HETATM   34  C18 UNL     1      27.575  -0.666  52.940  1.00  0.00     0.049 A 
ENDBRANCH  26  28
ENDBRANCH   8  26
TORSDOF 7
ENDMDL
MODEL 3
REMARK VINA RESULT:      -8.0      1.011      1.455
REMARK  7 active torsions:
REMARK  status: ('A' for Active; 'I' for Inactive)
REMARK    1  A    between atoms: C2_2  and  N1_4 
REMARK    2  A    between atoms: N1_4  and  C4_5 
REMARK    3  A    between atoms: C4_5  and  C5_6 
REMARK    4  A    between atoms: C6_7  and  C7_8 
REMARK       I    between atoms: C7_8  and  N2_10 
REMARK    5  A    between atoms: N2_10  and  C8_11 
REMARK    6  A    between atoms: C12_18  and  N6_19 
REMARK    7  A    between atoms: N6_19  and  C13_20 
ROOT
HETATM    1  C8  UNL     1      20.493   1.929  50.966  1.00  0.00     0.215 C 
HETATM    2  N3  UNL     1      21.277   2.563  50.003  1.00  0.00    -0.273 NA
HETATM    3  C9  UNL     1      22.352   3.040  49.521  1.00  0.00     0.145 C 
HETATM    4  C10 UNL     1      23.672   3.046  50.171  1.00  0.00     0.089 A 
HETATM    5  N4  UNL     1      24.570   3.452  49.266  1.00  0.00    -0.240 NA
HETATM    6  C11 UNL     1      25.878   3.563  49.568  1.00  0.00     0.236 A 
HETATM    7  N5  UNL     1      26.321   3.267  50.806  1.00  0.00    -0.224 NA
HETATM    8  C12 UNL     1      25.497   2.857  51.760  1.00  0.00     0.142 A 
HETATM    9  C19 UNL     1      24.173   2.751  51.427  1.00  0.00     0.040 A 
HETATM   10  C20 UNL     1      23.428   2.291  52.626  1.00  0.00     0.014 C 
HETATM   11  C21 UNL     1      22.236   1.674  52.781  1.00  0.00    -0.018 C 
HETATM   12  C22 UNL     1      21.090   1.140  52.049  1.00  0.00     0.048 C 
HETATM   13  C23 UNL     1      21.342  -0.285  51.555  1.00  0.00     0.018 C 
ENDROOT
BRANCH   1  14
HETATM   14  N2  UNL     1      19.480   2.911  51.409  1.00  0.00    -0.327 N 
HETATM   15  C7  UNL     1      18.138   2.495  51.510  1.00  0.00     0.298 C 
HETATM   16  O1  UNL     1      17.838   1.278  51.209  1.00  0.00    -0.258 OA
HETATM   17  H11 UNL     1      19.531   3.912  51.684  1.00  0.00     0.165 HD
BRANCH  15  18
HETATM   18  C6  UNL     1      16.942   3.171  51.899  1.00  0.00    -0.004 C 
HETATM   19  C5  UNL     1      15.947   3.754  52.216  1.00  0.00    -0.066 C 
BRANCH  19  20
HETATM   20  C4  UNL     1      14.733   4.485  52.583  1.00  0.00     0.363 C 
BRANCH  20  21
HETATM   21  N1  UNL     1      14.216   4.010  53.837  1.00  0.00     0.098 N 
HETATM   22  H8  UNL     1      14.255   2.991  53.920  1.00  0.00     0.317 HD
BRANCH  21  23
HETATM   23  C2  UNL     1      12.826   4.486  53.956  1.00  0.00     0.213 C 
HETATM   24  C1  UNL     1      11.997   3.346  54.579  1.00  0.00     0.042 C 
HETATM   25  C3  UNL     1      12.253   4.847  52.620  1.00  0.00     0.042 C 
ENDBRANCH  21  23
ENDBRANCH  20  21
ENDBRANCH  19  20
ENDBRANCH  15  18
ENDBRANCH   1  14
BRANCH   8  26
HETATM   26  N6  UNL     1      25.931   2.532  53.090  1.00  0.00    -0.340 N 
HETATM   27  H15 UNL     1      25.911   2.884  54.070  1.00  0.00     0.167 HD
BRANCH  26  28
HETATM   28  C13 UNL     1      26.623   1.279  52.861  1.00  0.00     0.032 A 
HETATM   29  C14 UNL     1      26.437   0.168  52.123  1.00  0.00     0.012 A 
HETATM   30  C15 UNL     1      27.505  -0.863  52.262  1.00  0.00     0.051 A 
HETATM   31  C16 UNL     1      26.977  -2.130  52.843  1.00  0.00     0.020 C 
HETATM   32  C17 UNL     1      28.406  -0.196  53.231  1.00  0.00     0.021 A 
HETATM   33 CL1  UNL     1      29.878  -0.953  53.789  1.00  0.00    -0.088 Cl
HETATM   34  C18 UNL     1      27.903   0.984  53.548  1.00  0.00     0.049 A 
ENDBRANCH  26  28
ENDBRANCH   8  26
TORSDOF 7
ENDMDL
MODEL 4
REMARK VINA RESULT:      -7.9      4.257      9.750
REMARK  7 active torsions:
REMARK  status: ('A' for Active; 'I' for Inactive)
REMARK    1  A    between atoms: C2_2  and  N1_4 
REMARK    2  A    between atoms: N1_4  and  C4_5 
REMARK    3  A    between atoms: C4_5  and  C5_6 
REMARK    4  A    between atoms: C6_7  and  C7_8 
REMARK       I    between atoms: C7_8  and  N2_10 
REMARK    5  A    between atoms: N2_10  and  C8_11 
REMARK    6  A    between atoms: C12_18  and  N6_19 
REMARK    7  A    between atoms: N6_19  and  C13_20 
ROOT
HETATM    1  C8  UNL     1      22.691   2.545  51.497  1.00  0.00     0.215 C 
HETATM    2  N3  UNL     1      21.689   3.476  51.767  1.00  0.00    -0.273 NA
HETATM    3  C9  UNL     1      20.491   3.896  51.831  1.00  0.00     0.145 C 
HETATM    4  C10 UNL     1      19.282   3.147  51.457  1.00  0.00     0.089 A 
HETATM    5  N4  UNL     1      18.221   3.859  51.856  1.00  0.00    -0.240 NA
HETATM    6  C11 UNL     1      16.962   3.428  51.648  1.00  0.00     0.236 A 
HETATM    7  N5  UNL     1      16.734   2.256  51.023  1.00  0.00    -0.224 NA
HETATM    8  C12 UNL     1      17.729   1.491  50.597  1.00  0.00     0.142 A 
HETATM    9  C19 UNL     1      19.000   1.950  50.821  1.00  0.00     0.040 A 
HETATM   10  C20 UNL     1      19.956   0.961  50.265  1.00  0.00     0.014 C 
HETATM   11  C21 UNL     1      21.258   0.702  50.521  1.00  0.00    -0.018 C 
HETATM   12  C22 UNL     1      22.395   1.116  51.341  1.00  0.00     0.048 C 
HETATM   13  C23 UNL     1      22.378   0.451  52.718  1.00  0.00     0.018 C 
ENDROOT
BRANCH   1  14
HETATM   14  N2  UNL     1      23.531   3.117  50.423  1.00  0.00    -0.327 N 
HETATM   15  C7  UNL     1      24.887   3.381  50.698  1.00  0.00     0.298 C 
HETATM   16  O1  UNL     1      25.347   3.121  51.873  1.00  0.00    -0.258 OA
HETATM   17  H11 UNL     1      23.340   3.391  49.439  1.00  0.00     0.165 HD
BRANCH  15  18
HETATM   18  C6  UNL     1      25.949   3.916  49.906  1.00  0.00    -0.004 C 
HETATM   19  C5  UNL     1      26.848   4.369  49.261  1.00  0.00    -0.066 C 
BRANCH  19  20
HETATM   20  C4  UNL     1      27.966   4.918  48.493  1.00  0.00     0.363 C 
BRANCH  20  21
HETATM   21  N1  UNL     1      28.233   6.274  48.885  1.00  0.00     0.098 N 
HETATM   22  H8  UNL     1      28.449   6.362  49.882  1.00  0.00     0.317 HD
BRANCH  21  23
HETATM   23  C2  UNL     1      27.046   7.079  48.542  1.00  0.00     0.213 C 
HETATM   24  C1  UNL     1      27.391   7.900  47.284  1.00  0.00     0.042 C 
HETATM   25  C3  UNL     1      26.669   8.007  49.656  1.00  0.00     0.042 C 
ENDBRANCH  21  23
ENDBRANCH  20  21
ENDBRANCH  19  20
ENDBRANCH  15  18
ENDBRANCH   1  14
BRANCH   8  26
HETATM   26  N6  UNL     1      17.527   0.236  49.927  1.00  0.00    -0.340 N 
HETATM   27  H15 UNL     1      17.608  -0.219  48.995  1.00  0.00     0.167 HD
BRANCH  26  28
HETATM   28  C13 UNL     1      17.039  -0.587  51.016  1.00  0.00     0.032 A 
HETATM   29  C14 UNL     1      17.477  -0.986  52.226  1.00  0.00     0.012 A 
HETATM   30  C15 UNL     1      16.533  -1.867  52.973  1.00  0.00     0.051 A 
HETATM   31  C16 UNL     1      17.111  -3.221  53.209  1.00  0.00     0.020 C 
HETATM   32  C17 UNL     1      15.413  -1.952  52.007  1.00  0.00     0.021 A 
HETATM   33 CL1  UNL     1      13.973  -2.881  52.349  1.00  0.00    -0.088 Cl
HETATM   34  C18 UNL     1      15.711  -1.239  50.935  1.00  0.00     0.049 A 
ENDBRANCH  26  28
ENDBRANCH   8  26
TORSDOF 7
ENDMDL
MODEL 5
REMARK VINA RESULT:      -7.8      4.866      9.986
REMARK  7 active torsions:
REMARK  status: ('A' for Active; 'I' for Inactive)
REMARK    1  A    between atoms: C2_2  and  N1_4 
REMARK    2  A    between atoms: N1_4  and  C4_5 
REMARK    3  A    between atoms: C4_5  and  C5_6 
REMARK    4  A    between atoms: C6_7  and  C7_8 
REMARK       I    between atoms: C7_8  and  N2_10 
REMARK    5  A    between atoms: N2_10  and  C8_11 
REMARK    6  A    between atoms: C12_18  and  N6_19 
REMARK    7  A    between atoms: N6_19  and  C13_20 
ROOT
HETATM    1  C8  UNL     1      24.830   6.255  49.462  1.00  0.00     0.215 C 
HETATM    2  N3  UNL     1      24.148   5.421  48.576  1.00  0.00    -0.273 NA
HETATM    3  C9  UNL     1      23.305   4.529  48.248  1.00  0.00     0.145 C 
HETATM    4  C10 UNL     1      22.404   3.804  49.157  1.00  0.00     0.089 A 
HETATM    5  N4  UNL     1      21.544   3.104  48.407  1.00  0.00    -0.240 NA
HETATM    6  C11 UNL     1      20.590   2.331  48.960  1.00  0.00     0.236 A 
HETATM    7  N5  UNL     1      20.476   2.238  50.300  1.00  0.00    -0.224 NA
HETATM    8  C12 UNL     1      21.287   2.899  51.114  1.00  0.00     0.142 A 
HETATM    9  C19 UNL     1      22.248   3.680  50.527  1.00  0.00     0.040 A 
HETATM   10  C20 UNL     1      23.047   4.319  51.602  1.00  0.00     0.014 C 
HETATM   11  C21 UNL     1      23.824   5.425  51.630  1.00  0.00    -0.018 C 
HETATM   12  C22 UNL     1      24.320   6.528  50.810  1.00  0.00     0.048 C 
HETATM   13  C23 UNL     1      23.322   7.686  50.748  1.00  0.00     0.018 C 
ENDROOT
BRANCH   1  14
HETATM   14  N2  UNL     1      26.254   5.861  49.414  1.00  0.00    -0.327 N 
HETATM   15  C7  UNL     1      27.092   6.482  48.467  1.00  0.00     0.298 C 
HETATM   16  O1  UNL     1      26.590   7.366  47.675  1.00  0.00    -0.258 OA
HETATM   17  H11 UNL     1      26.824   5.181  49.955  1.00  0.00     0.165 HD
BRANCH  15  18
HETATM   18  C6  UNL     1      28.480   6.341  48.163  1.00  0.00    -0.004 C 
HETATM   19  C5  UNL     1      29.638   6.209  47.893  1.00  0.00    -0.066 C 
BRANCH  19  20
HETATM   20  C4  UNL     1      31.047   6.039  47.538  1.00  0.00     0.363 C 
BRANCH  20  21
HETATM   21  N1  UNL     1      31.576   4.838  48.124  1.00  0.00     0.098 N 
HETATM   22  H8  UNL     1      32.052   5.008  49.013  1.00  0.00     0.317 HD
BRANCH  21  23
HETATM   23  C2  UNL     1      32.503   4.236  47.148  1.00  0.00     0.213 C 
HETATM   24  C1  UNL     1      32.748   5.276  46.038  1.00  0.00     0.042 C 
HETATM   25  C3  UNL     1      31.933   2.988  46.546  1.00  0.00     0.042 C 
ENDBRANCH  21  23
ENDBRANCH  20  21
ENDBRANCH  19  20
ENDBRANCH  15  18
ENDBRANCH   1  14
BRANCH   8  26
HETATM   26  N6  UNL     1      21.197   2.826  52.545  1.00  0.00    -0.340 N 
HETATM   27  H15 UNL     1      20.922   3.384  53.380  1.00  0.00     0.167 HD
BRANCH  26  28
HETATM   28  C13 UNL     1      21.689   1.484  52.789  1.00  0.00     0.032 A 
HETATM   29  C14 UNL     1      21.172   0.245  52.883  1.00  0.00     0.012 A 
HETATM   30  C15 UNL     1      22.169  -0.830  53.156  1.00  0.00     0.051 A 
HETATM   31  C16 UNL     1      21.918  -1.496  54.466  1.00  0.00     0.020 C 
HETATM   32  C17 UNL     1      23.419  -0.037  53.219  1.00  0.00     0.021 A 
HETATM   33 CL1  UNL     1      24.968  -0.784  53.522  1.00  0.00    -0.088 Cl
HETATM   34  C18 UNL     1      23.133   1.237  53.014  1.00  0.00     0.049 A 
ENDBRANCH  26  28
ENDBRANCH   8  26
TORSDOF 7
ENDMDL
MODEL 6
REMARK VINA RESULT:      -7.8      4.911      9.481
REMARK  7 active torsions:
REMARK  status: ('A' for Active; 'I' for Inactive)
REMARK    1  A    between atoms: C2_2  and  N1_4 
REMARK    2  A    between atoms: N1_4  and  C4_5 
REMARK    3  A    between atoms: C4_5  and  C5_6 
REMARK    4  A    between atoms: C6_7  and  C7_8 
REMARK       I    between atoms: C7_8  and  N2_10 
REMARK    5  A    between atoms: N2_10  and  C8_11 
REMARK    6  A    between atoms: C12_18  and  N6_19 
REMARK    7  A    between atoms: N6_19  and  C13_20 
ROOT
HETATM    1  C8  UNL     1      23.787   6.631  49.598  1.00  0.00     0.215 C 
HETATM    2  N3  UNL     1      23.672   5.534  48.745  1.00  0.00    -0.273 NA
HETATM    3  C9  UNL     1      23.317   4.359  48.418  1.00  0.00     0.145 C 
HETATM    4  C10 UNL     1      22.589   3.401  49.264  1.00  0.00     0.089 A 
HETATM    5  N4  UNL     1      22.235   2.364  48.494  1.00  0.00    -0.240 NA
HETATM    6  C11 UNL     1      21.552   1.315  48.991  1.00  0.00     0.236 A 
HETATM    7  N5  UNL     1      21.204   1.280  50.293  1.00  0.00    -0.224 NA
HETATM    8  C12 UNL     1      21.516   2.266  51.123  1.00  0.00     0.142 A 
HETATM    9  C19 UNL     1      22.209   3.322  50.593  1.00  0.00     0.040 A 
HETATM   10  C20 UNL     1      22.464   4.301  51.678  1.00  0.00     0.014 C 
HETATM   11  C21 UNL     1      22.741   5.624  51.670  1.00  0.00    -0.018 C 
HETATM   12  C22 UNL     1      22.942   6.773  50.789  1.00  0.00     0.048 C 
HETATM   13  C23 UNL     1      21.617   7.428  50.394  1.00  0.00     0.018 C 
ENDROOT
BRANCH   1  14
HETATM   14  N2  UNL     1      25.230   6.837  49.842  1.00  0.00    -0.327 N 
HETATM   15  C7  UNL     1      25.862   7.945  49.246  1.00  0.00     0.298 C 
HETATM   16  O1  UNL     1      25.165   8.737  48.505  1.00  0.00    -0.258 OA
HETATM   17  H11 UNL     1      25.941   6.315  50.392  1.00  0.00     0.165 HD
BRANCH  15  18
HETATM   18  C6  UNL     1      27.207   8.426  49.277  1.00  0.00    -0.004 C 
HETATM   19  C5  UNL     1      28.330   8.838  49.285  1.00  0.00    -0.066 C 
BRANCH  19  20
HETATM   20  C4  UNL     1      29.695   9.364  49.280  1.00  0.00     0.363 C 
BRANCH  20  21
HETATM   21  N1  UNL     1      30.626   8.359  49.716  1.00  0.00     0.098 N 
HETATM   22  H8  UNL     1      31.360   8.737  50.320  1.00  0.00     0.317 HD
BRANCH  21  23
HETATM   23  C2  UNL     1      31.212   7.742  48.512  1.00  0.00     0.213 C 
HETATM   24  C1  UNL     1      30.833   6.248  48.525  1.00  0.00     0.042 C 
HETATM   25  C3  UNL     1      32.704   7.879  48.495  1.00  0.00     0.042 C 
ENDBRANCH  21  23
ENDBRANCH  20  21
ENDBRANCH  19  20
ENDBRANCH  15  18
ENDBRANCH   1  14
BRANCH   8  26
HETATM   26  N6  UNL     1      21.164   2.265  52.515  1.00  0.00    -0.340 N 
HETATM   27  H15 UNL     1      20.637   2.809  53.229  1.00  0.00     0.167 HD
BRANCH  26  28
HETATM   28  C13 UNL     1      21.829   1.060  52.972  1.00  0.00     0.032 A 
HETATM   29  C14 UNL     1      21.469  -0.156  53.426  1.00  0.00     0.012 A 
HETATM   30  C15 UNL     1      22.606  -1.058  53.767  1.00  0.00     0.051 A 
HETATM   31  C16 UNL     1      22.617  -1.407  55.217  1.00  0.00     0.020 C 
HETATM   32  C17 UNL     1      23.757  -0.183  53.445  1.00  0.00     0.021 A 
HETATM   33 CL1  UNL     1      25.406  -0.721  53.653  1.00  0.00    -0.088 Cl
HETATM   34  C18 UNL     1      23.308   0.980  53.008  1.00  0.00     0.049 A 
ENDBRANCH  26  28
ENDBRANCH   8  26
TORSDOF 7
ENDMDL
MODEL 7
REMARK VINA RESULT:      -7.6      6.350      9.554
REMARK  7 active torsions:
REMARK  status: ('A' for Active; 'I' for Inactive)
REMARK    1  A    between atoms: C2_2  and  N1_4 
REMARK    2  A    between atoms: N1_4  and  C4_5 
REMARK    3  A    between atoms: C4_5  and  C5_6 
REMARK    4  A    between atoms: C6_7  and  C7_8 
REMARK       I    between atoms: C7_8  and  N2_10 
REMARK    5  A    between atoms: N2_10  and  C8_11 
REMARK    6  A    between atoms: C12_18  and  N6_19 
REMARK    7  A    between atoms: N6_19  and  C13_20 
ROOT
HETATM    1  C8  UNL     1      26.049   7.446  49.425  1.00  0.00     0.215 C 
HETATM    2  N3  UNL     1      26.779   8.488  49.993  1.00  0.00    -0.273 NA
HETATM    3  C9  UNL     1      27.769   9.277  50.105  1.00  0.00     0.145 C 
HETATM    4  C10 UNL     1      28.968   9.297  49.255  1.00  0.00     0.089 A 
HETATM    5  N4  UNL     1      29.673  10.391  49.569  1.00  0.00    -0.240 NA
HETATM    6  C11 UNL     1      30.836  10.684  48.956  1.00  0.00     0.236 A 
HETATM    7  N5  UNL     1      31.328   9.872  47.998  1.00  0.00    -0.224 NA
HETATM    8  C12 UNL     1      30.692   8.769  47.628  1.00  0.00     0.142 A 
HETATM    9  C19 UNL     1      29.511   8.494  48.266  1.00  0.00     0.040 A 
HETATM   10  C20 UNL     1      28.971   7.226  47.717  1.00  0.00     0.014 C 
HETATM   11  C21 UNL     1      27.726   6.700  47.684  1.00  0.00    -0.018 C 
HETATM   12  C22 UNL     1      26.340   6.946  48.076  1.00  0.00     0.048 C 
HETATM   13  C23 UNL     1      25.601   7.804  47.049  1.00  0.00     0.018 C 
ENDROOT
BRANCH   1  14
HETATM   14  N2  UNL     1      25.928   6.393  50.455  1.00  0.00    -0.327 N 
HETATM   15  C7  UNL     1      24.797   5.554  50.431  1.00  0.00     0.298 C 
HETATM   16  O1  UNL     1      23.905   5.735  49.518  1.00  0.00    -0.258 OA
HETATM   17  H11 UNL     1      26.528   6.106  51.254  1.00  0.00     0.165 HD
BRANCH  15  18
HETATM   18  C6  UNL     1      24.382   4.464  51.257  1.00  0.00    -0.004 C 
HETATM   19  C5  UNL     1      24.032   3.540  51.931  1.00  0.00    -0.066 C 
BRANCH  19  20
HETATM   20  C4  UNL     1      23.613   2.393  52.736  1.00  0.00     0.363 C 
BRANCH  20  21
HETATM   21  N1  UNL     1      24.129   1.171  52.183  1.00  0.00     0.098 N 
HETATM   22  H8  UNL     1      23.459   0.399  52.234  1.00  0.00     0.317 HD
BRANCH  21  23
HETATM   23  C2  UNL     1      25.362   0.834  52.918  1.00  0.00     0.213 C 
HETATM   24  C1  UNL     1      26.487   0.653  51.881  1.00  0.00     0.042 C 
HETATM   25  C3  UNL     1      25.203  -0.428  53.709  1.00  0.00     0.042 C 
ENDBRANCH  21  23
ENDBRANCH  20  21
ENDBRANCH  19  20
ENDBRANCH  15  18
ENDBRANCH   1  14
BRANCH   8  26
HETATM   26  N6  UNL     1      31.183   7.880  46.613  1.00  0.00    -0.340 N 
HETATM   27  H15 UNL     1      31.029   7.599  45.623  1.00  0.00     0.167 HD
BRANCH  26  28
HETATM   28  C13 UNL     1      32.238   7.190  47.331  1.00  0.00     0.032 A 
HETATM   29  C14 UNL     1      33.042   7.438  48.382  1.00  0.00     0.012 A 
HETATM   30  C15 UNL     1      33.988   6.336  48.719  1.00  0.00     0.051 A 
HETATM   31  C16 UNL     1      35.409   6.759  48.557  1.00  0.00     0.020 C 
HETATM   32  C17 UNL     1      33.633   5.341  47.680  1.00  0.00     0.021 A 
HETATM   33 CL1  UNL     1      34.439   3.795  47.574  1.00  0.00    -0.088 Cl
HETATM   34  C18 UNL     1      32.665   5.831  46.926  1.00  0.00     0.049 A 
ENDBRANCH  26  28
ENDBRANCH   8  26
TORSDOF 7
ENDMDL
MODEL 8
REMARK VINA RESULT:      -7.4      3.593      4.629
REMARK  7 active torsions:
REMARK  status: ('A' for Active; 'I' for Inactive)
REMARK    1  A    between atoms: C2_2  and  N1_4 
REMARK    2  A    between atoms: N1_4  and  C4_5 
REMARK    3  A    between atoms: C4_5  and  C5_6 
REMARK    4  A    between atoms: C6_7  and  C7_8 
REMARK       I    between atoms: C7_8  and  N2_10 
REMARK    5  A    between atoms: N2_10  and  C8_11 
REMARK    6  A    between atoms: C12_18  and  N6_19 
REMARK    7  A    between atoms: N6_19  and  C13_20 
ROOT
HETATM    1  C8  UNL     1      19.292   1.831  50.036  1.00  0.00     0.215 C 
HETATM    2  N3  UNL     1      19.552   2.691  51.103  1.00  0.00    -0.273 NA
HETATM    3  C9  UNL     1      20.287   3.381  51.876  1.00  0.00     0.145 C 
HETATM    4  C10 UNL     1      21.751   3.505  51.807  1.00  0.00     0.089 A 
HETATM    5  N4  UNL     1      22.119   4.468  52.661  1.00  0.00    -0.240 NA
HETATM    6  C11 UNL     1      23.411   4.812  52.824  1.00  0.00     0.236 A 
HETATM    7  N5  UNL     1      24.379   4.187  52.125  1.00  0.00    -0.224 NA
HETATM    8  C12 UNL     1      24.099   3.223  51.259  1.00  0.00     0.142 A 
HETATM    9  C19 UNL     1      22.778   2.892  51.110  1.00  0.00     0.040 A 
HETATM   10  C20 UNL     1      22.683   1.797  50.113  1.00  0.00     0.014 C 
HETATM   11  C21 UNL     1      21.675   1.362  49.325  1.00  0.00    -0.018 C 
HETATM   12  C22 UNL     1      20.277   1.603  48.972  1.00  0.00     0.048 C 
HETATM   13  C23 UNL     1      20.137   2.696  47.911  1.00  0.00     0.018 C 
ENDROOT
BRANCH   1  14
HETATM   14  N2  UNL     1      18.712   0.598  50.609  1.00  0.00    -0.327 N 
HETATM   15  C7  UNL     1      17.320   0.406  50.521  1.00  0.00     0.298 C 
HETATM   16  O1  UNL     1      16.600   1.311  49.951  1.00  0.00    -0.258 OA
HETATM   17  H11 UNL     1      19.122  -0.221  51.099  1.00  0.00     0.165 HD
BRANCH  15  18
HETATM   18  C6  UNL     1      16.458  -0.647  50.958  1.00  0.00    -0.004 C 
HETATM   19  C5  UNL     1      15.721  -1.519  51.313  1.00  0.00    -0.066 C 
BRANCH  19  20
HETATM   20  C4  UNL     1      14.803  -2.581  51.726  1.00  0.00     0.363 C 
BRANCH  20  21
HETATM   21  N1  UNL     1      14.974  -2.883  53.121  1.00  0.00     0.098 N 
HETATM   22  H8  UNL     1      15.714  -2.328  53.557  1.00  0.00     0.317 HD
BRANCH  21  23
HETATM   23  C2  UNL     1      15.275  -4.323  53.231  1.00  0.00     0.213 C 
HETATM   24  C1  UNL     1      16.801  -4.468  53.380  1.00  0.00     0.042 C 
HETATM   25  C3  UNL     1      14.816  -5.074  52.019  1.00  0.00     0.042 C 
ENDBRANCH  21  23
ENDBRANCH  20  21
ENDBRANCH  19  20
ENDBRANCH  15  18
ENDBRANCH   1  14
BRANCH   8  26
HETATM   26  N6  UNL     1      25.102   2.533  50.496  1.00  0.00    -0.340 N 
HETATM   27  H15 UNL     1      25.457   2.413  49.525  1.00  0.00     0.167 HD
BRANCH  26  28
HETATM   28  C13 UNL     1      25.775   1.779  51.535  1.00  0.00     0.032 A 
HETATM   29  C14 UNL     1      25.534   0.676  52.269  1.00  0.00     0.012 A 
HETATM   30  C15 UNL     1      26.611   0.321  53.238  1.00  0.00     0.051 A 
HETATM   31  C16 UNL     1      26.128   0.386  54.647  1.00  0.00     0.020 C 
HETATM   32  C17 UNL     1      27.582   1.410  52.981  1.00  0.00     0.021 A 
HETATM   33 CL1  UNL     1      29.092   1.520  53.853  1.00  0.00    -0.088 Cl
HETATM   34  C18 UNL     1      27.103   2.203  52.039  1.00  0.00     0.049 A 
ENDBRANCH  26  28
ENDBRANCH   8  26
TORSDOF 7
ENDMDL
MODEL 9
REMARK VINA RESULT:      -7.1      8.839     14.318
REMARK  7 active torsions:
REMARK  status: ('A' for Active; 'I' for Inactive)
REMARK    1  A    between atoms: C2_2  and  N1_4 
REMARK    2  A    between atoms: N1_4  and  C4_5 
REMARK    3  A    between atoms: C4_5  and  C5_6 
REMARK    4  A    between atoms: C6_7  and  C7_8 
REMARK       I    between atoms: C7_8  and  N2_10 
REMARK    5  A    between atoms: N2_10  and  C8_11 
REMARK    6  A    between atoms: C12_18  and  N6_19 
REMARK    7  A    between atoms: N6_19  and  C13_20 
ROOT
HETATM    1  C8  UNL     1      32.255   6.747  46.860  1.00  0.00     0.215 C 
HETATM    2  N3  UNL     1      31.985   8.110  46.969  1.00  0.00    -0.273 NA
HETATM    3  C9  UNL     1      31.322   9.129  47.342  1.00  0.00     0.145 C 
HETATM    4  C10 UNL     1      30.079   9.122  48.127  1.00  0.00     0.089 A 
HETATM    5  N4  UNL     1      29.811  10.386  48.477  1.00  0.00    -0.240 NA
HETATM    6  C11 UNL     1      28.723  10.702  49.206  1.00  0.00     0.236 A 
HETATM    7  N5  UNL     1      27.865   9.742  49.605  1.00  0.00    -0.224 NA
HETATM    8  C12 UNL     1      28.057   8.467  49.301  1.00  0.00     0.142 A 
HETATM    9  C19 UNL     1      29.171   8.171  48.560  1.00  0.00     0.040 A 
HETATM   10  C20 UNL     1      29.195   6.706  48.323  1.00  0.00     0.014 C 
HETATM   11  C21 UNL     1      30.191   5.846  48.012  1.00  0.00    -0.018 C 
HETATM   12  C22 UNL     1      31.625   5.762  47.747  1.00  0.00     0.048 C 
HETATM   13  C23 UNL     1      32.438   5.652  49.037  1.00  0.00     0.018 C 
ENDROOT
BRANCH   1  14
HETATM   14  N2  UNL     1      32.187   6.409  45.423  1.00  0.00    -0.327 N 
HETATM   15  C7  UNL     1      33.164   5.547  44.887  1.00  0.00     0.298 C 
HETATM   16  O1  UNL     1      34.084   5.088  45.664  1.00  0.00    -0.258 OA
HETATM   17  H11 UNL     1      31.539   6.680  44.657  1.00  0.00     0.165 HD
BRANCH  15  18
HETATM   18  C6  UNL     1      33.383   5.029  43.573  1.00  0.00    -0.004 C 
HETATM   19  C5  UNL     1      33.579   4.581  42.482  1.00  0.00    -0.066 C 
BRANCH  19  20
HETATM   20  C4  UNL     1      33.826   4.009  41.158  1.00  0.00     0.363 C 
BRANCH  20  21
HETATM   21  N1  UNL     1      32.587   3.793  40.462  1.00  0.00     0.098 N 
HETATM   22  H8  UNL     1      31.798   3.647  41.097  1.00  0.00     0.317 HD
BRANCH  21  23
HETATM   23  C2  UNL     1      32.768   2.622  39.584  1.00  0.00     0.213 C 
HETATM   24  C1  UNL     1      31.519   1.732  39.735  1.00  0.00     0.042 C 
HETATM   25  C3  UNL     1      33.988   1.838  39.957  1.00  0.00     0.042 C 
ENDBRANCH  21  23
ENDBRANCH  20  21
ENDBRANCH  19  20
ENDBRANCH  15  18
ENDBRANCH   1  14
BRANCH   8  26
HETATM   26  N6  UNL     1      27.166   7.417  49.707  1.00  0.00    -0.340 N 
HETATM   27  H15 UNL     1      27.148   6.500  50.199  1.00  0.00     0.167 HD
BRANCH  26  28
HETATM   28  C13 UNL     1      25.901   7.909  49.197  1.00  0.00     0.032 A 
HETATM   29  C14 UNL     1      24.856   8.616  49.666  1.00  0.00     0.012 A 
HETATM   30  C15 UNL     1      23.769   8.858  48.674  1.00  0.00     0.051 A 
HETATM   31  C16 UNL     1      22.489   8.215  49.089  1.00  0.00     0.020 C 
HETATM   32  C17 UNL     1      24.323   8.168  47.486  1.00  0.00     0.021 A 
HETATM   33 CL1  UNL     1      23.460   8.116  45.968  1.00  0.00    -0.088 Cl
HETATM   34  C18 UNL     1      25.499   7.652  47.795  1.00  0.00     0.049 A 
ENDBRANCH  26  28
ENDBRANCH   8  26
TORSDOF 7
ENDMDL
