MODEL 1
REMARK VINA RESULT:      -9.0      0.000      0.000
REMARK  3 active torsions:
REMARK  status: ('A' for Active; 'I' for Inactive)
REMARK    1  A    between atoms: S1_2  and  C2_4 
REMARK    2  A    between atoms: C5_7  and  C6_8 
REMARK    3  A    between atoms: C11_14  and  C12_15 
ROOT
HETATM    1  C6  UNL     1      24.617   2.700  51.113  1.00  0.00     0.009 A 
HETATM    2  C7  UNL     1      23.227   2.754  51.201  1.00  0.00     0.155 A 
HETATM    3  O2  UNL     1      22.809   1.757  51.939  1.00  0.00    -0.321 OA
HETATM    4  C8  UNL     1      23.833   1.024  52.358  1.00  0.00     0.086 A 
HETATM    5  C9  UNL     1      23.950  -0.116  53.147  1.00  0.00     0.039 A 
HETATM    6  C10 UNL     1      25.217  -0.618  53.383  1.00  0.00     0.017 A 
HETATM    7  C11 UNL     1      26.351  -0.024  52.862  1.00  0.00    -0.001 A 
HETATM    8  C16 UNL     1      26.258   1.107  52.079  1.00  0.00     0.029 A 
HETATM    9  C17 UNL     1      24.989   1.594  51.853  1.00  0.00     0.012 A 
ENDROOT
BRANCH   1  10
HETATM   10  C5  UNL     1      25.381   3.684  50.353  1.00  0.00    -0.023 A 
HETATM   11  C4  UNL     1      24.921   4.989  50.372  1.00  0.00     0.014 A 
HETATM   12  C3  UNL     1      25.625   5.959  49.657  1.00  0.00     0.022 A 
HETATM   13  C2  UNL     1      26.757   5.603  48.951  1.00  0.00     0.031 A 
HETATM   14  C19 UNL     1      27.222   4.297  48.929  1.00  0.00     0.022 A 
HETATM   15  C18 UNL     1      26.514   3.349  49.641  1.00  0.00     0.014 A 
BRANCH  13  16
HETATM   16  S1  UNL     1      27.509   6.971  48.111  1.00  0.00     0.045 S 
HETATM   17  C1  UNL     1      27.589   8.432  49.154  1.00  0.00     0.133 C 
HETATM   18  O1  UNL     1      28.904   6.656  47.606  1.00  0.00    -0.253 OA
ENDBRANCH  13  16
ENDBRANCH   1  10
BRANCH   7  19
HETATM   19  C12 UNL     1      27.683  -0.567  53.122  1.00  0.00     0.085 A 
HETATM   20  C13 UNL     1      28.808   0.205  53.430  1.00  0.00     0.040 A 
HETATM   21  C14 UNL     1      29.866  -0.662  53.606  1.00  0.00     0.027 A 
HETATM   22  C15 UNL     1      29.344  -1.920  53.399  1.00  0.00     0.142 A 
HETATM   23  O3  UNL     1      28.072  -1.819  53.121  1.00  0.00    -0.322 OA
ENDBRANCH   7  19
TORSDOF 3
ENDMDL
MODEL 2
REMARK VINA RESULT:      -8.7      1.468      1.986
REMARK  3 active torsions:
REMARK  status: ('A' for Active; 'I' for Inactive)
REMARK    1  A    between atoms: S1_2  and  C2_4 
REMARK    2  A    between atoms: C5_7  and  C6_8 
REMARK    3  A    between atoms: C11_14  and  C12_15 
ROOT
HETATM    1  C6  UNL     1      24.803   3.523  50.150  1.00  0.00     0.009 A 
HETATM    2  C7  UNL     1      23.463   3.503  49.765  1.00  0.00     0.155 A 
HETATM    3  O2  UNL     1      22.847   2.551  50.419  1.00  0.00    -0.321 OA
HETATM    4  C8  UNL     1      23.690   1.918  51.227  1.00  0.00     0.086 A 
HETATM    5  C9  UNL     1      23.564   0.860  52.121  1.00  0.00     0.039 A 
HETATM    6  C10 UNL     1      24.690   0.455  52.814  1.00  0.00     0.017 A 
HETATM    7  C11 UNL     1      25.917   1.067  52.642  1.00  0.00    -0.001 A 
HETATM    8  C16 UNL     1      26.064   2.118  51.762  1.00  0.00     0.029 A 
HETATM    9  C17 UNL     1      24.932   2.509  51.079  1.00  0.00     0.012 A 
ENDROOT
BRANCH   1  10
HETATM   10  C5  UNL     1      25.752   4.480  49.591  1.00  0.00    -0.023 A 
HETATM   11  C4  UNL     1      26.952   3.976  49.122  1.00  0.00     0.014 A 
HETATM   12  C3  UNL     1      27.885   4.861  48.579  1.00  0.00     0.022 A 
HETATM   13  C2  UNL     1      27.596   6.211  48.521  1.00  0.00     0.031 A 
HETATM   14  C19 UNL     1      26.395   6.720  48.989  1.00  0.00     0.022 A 
HETATM   15  C18 UNL     1      25.484   5.832  49.523  1.00  0.00     0.014 A 
BRANCH  13  16
HETATM   16  S1  UNL     1      28.903   7.168  47.800  1.00  0.00     0.045 S 
HETATM   17  C1  UNL     1      30.442   6.244  47.721  1.00  0.00     0.133 C 
HETATM   18  O1  UNL     1      28.565   7.671  46.410  1.00  0.00    -0.253 OA
ENDBRANCH  13  16
ENDBRANCH   1  10
BRANCH   7  19
HETATM   19  C12 UNL     1      27.098   0.627  53.383  1.00  0.00     0.085 A 
HETATM   20  C13 UNL     1      27.922  -0.437  53.000  1.00  0.00     0.040 A 
HETATM   21  C14 UNL     1      28.922  -0.543  53.946  1.00  0.00     0.027 A 
HETATM   22  C15 UNL     1      28.665   0.455  54.859  1.00  0.00     0.142 A 
HETATM   23  O3  UNL     1      27.596   1.111  54.494  1.00  0.00    -0.322 OA
ENDBRANCH   7  19
TORSDOF 3
ENDMDL
MODEL 3
REMARK VINA RESULT:      -8.7      2.889      5.596
REMARK  3 active torsions:
REMARK  status: ('A' for Active; 'I' for Inactive)
REMARK    1  A    between atoms: S1_2  and  C2_4 
REMARK    2  A    between atoms: C5_7  and  C6_8 
REMARK    3  A    between atoms: C11_14  and  C12_15 
ROOT
HETATM    1  C6  UNL     1      24.831   0.631  53.352  1.00  0.00     0.009 A 
HETATM    2  C7  UNL     1      25.811   0.128  54.207  1.00  0.00     0.155 A 
HETATM    3  O2  UNL     1      25.270  -0.772  54.989  1.00  0.00    -0.321 OA
HETATM    4  C8  UNL     1      23.977  -0.911  54.719  1.00  0.00     0.086 A 
HETATM    5  C9  UNL     1      22.960  -1.705  55.236  1.00  0.00     0.039 A 
HETATM    6  C10 UNL     1      21.694  -1.579  54.693  1.00  0.00     0.017 A 
HETATM    7  C11 UNL     1      21.422  -0.696  53.665  1.00  0.00    -0.001 A 
HETATM    8  C16 UNL     1      22.415   0.101  53.137  1.00  0.00     0.029 A 
HETATM    9  C17 UNL     1      23.671  -0.037  53.690  1.00  0.00     0.012 A 
ENDROOT
BRANCH   1  10
HETATM   10  C5  UNL     1      25.128   1.657  52.358  1.00  0.00    -0.023 A 
HETATM   11  C4  UNL     1      26.277   1.490  51.606  1.00  0.00     0.014 A 
HETATM   12  C3  UNL     1      26.595   2.450  50.643  1.00  0.00     0.022 A 
HETATM   13  C2  UNL     1      25.765   3.539  50.461  1.00  0.00     0.031 A 
HETATM   14  C19 UNL     1      24.613   3.711  51.213  1.00  0.00     0.022 A 
HETATM   15  C18 UNL     1      24.313   2.752  52.160  1.00  0.00     0.014 A 
BRANCH  13  16
HETATM   16  S1  UNL     1      26.337   4.642  49.197  1.00  0.00     0.045 S 
HETATM   17  C1  UNL     1      25.950   6.354  49.580  1.00  0.00     0.133 C 
HETATM   18  O1  UNL     1      27.828   4.525  48.945  1.00  0.00    -0.253 OA
ENDBRANCH  13  16
ENDBRANCH   1  10
BRANCH   7  19
HETATM   19  C12 UNL     1      20.078  -0.576  53.101  1.00  0.00     0.085 A 
HETATM   20  C13 UNL     1      19.754   0.202  51.984  1.00  0.00     0.040 A 
HETATM   21  C14 UNL     1      18.400   0.058  51.763  1.00  0.00     0.027 A 
HETATM   22  C15 UNL     1      17.959  -0.796  52.749  1.00  0.00     0.142 A 
HETATM   23  O3  UNL     1      18.967  -1.140  53.505  1.00  0.00    -0.322 OA
ENDBRANCH   7  19
TORSDOF 3
ENDMDL
MODEL 4
REMARK VINA RESULT:      -8.6      3.445      4.309
REMARK  3 active torsions:
REMARK  status: ('A' for Active; 'I' for Inactive)
REMARK    1  A    between atoms: S1_2  and  C2_4 
REMARK    2  A    between atoms: C5_7  and  C6_8 
REMARK    3  A    between atoms: C11_14  and  C12_15 
ROOT
HETATM    1  C6  UNL     1      21.784   0.304  52.684  1.00  0.00     0.009 A 
HETATM    2  C7  UNL     1      20.615  -0.196  53.256  1.00  0.00     0.155 A 
HETATM    3  O2  UNL     1      20.925  -0.874  54.332  1.00  0.00    -0.321 OA
HETATM    4  C8  UNL     1      22.239  -0.866  54.527  1.00  0.00     0.086 A 
HETATM    5  C9  UNL     1      23.078  -1.415  55.491  1.00  0.00     0.039 A 
HETATM    6  C10 UNL     1      24.438  -1.195  55.373  1.00  0.00     0.017 A 
HETATM    7  C11 UNL     1      24.974  -0.454  54.336  1.00  0.00    -0.001 A 
HETATM    8  C16 UNL     1      24.161   0.099  53.370  1.00  0.00     0.029 A 
HETATM    9  C17 UNL     1      22.807  -0.130  53.503  1.00  0.00     0.012 A 
ENDROOT
BRANCH   1  10
HETATM   10  C5  UNL     1      21.764   1.106  51.465  1.00  0.00    -0.023 A 
HETATM   11  C4  UNL     1      21.997   2.463  51.601  1.00  0.00     0.014 A 
HETATM   12  C3  UNL     1      21.987   3.263  50.457  1.00  0.00     0.022 A 
HETATM   13  C2  UNL     1      21.745   2.692  49.223  1.00  0.00     0.031 A 
HETATM   14  C19 UNL     1      21.511   1.333  49.082  1.00  0.00     0.022 A 
HETATM   15  C18 UNL     1      21.525   0.555  50.222  1.00  0.00     0.014 A 
BRANCH  13  16
HETATM   16  S1  UNL     1      21.773   3.868  47.897  1.00  0.00     0.045 S 
HETATM   17  C1  UNL     1      23.075   5.087  48.113  1.00  0.00     0.133 C 
HETATM   18  O1  UNL     1      21.936   3.218  46.537  1.00  0.00    -0.253 OA
ENDBRANCH  13  16
ENDBRANCH   1  10
BRANCH   7  19
HETATM   19  C12 UNL     1      26.414  -0.231  54.226  1.00  0.00     0.085 A 
HETATM   20  C13 UNL     1      27.229  -0.786  53.233  1.00  0.00     0.040 A 
HETATM   21  C14 UNL     1      28.516  -0.345  53.464  1.00  0.00     0.027 A 
HETATM   22  C15 UNL     1      28.432   0.455  54.581  1.00  0.00     0.142 A 
HETATM   23  O3  UNL     1      27.192   0.494  54.992  1.00  0.00    -0.322 OA
ENDBRANCH   7  19
TORSDOF 3
ENDMDL
MODEL 5
REMARK VINA RESULT:      -8.4      1.628      2.390
REMARK  3 active torsions:
REMARK  status: ('A' for Active; 'I' for Inactive)
REMARK    1  A    between atoms: S1_2  and  C2_4 
REMARK    2  A    between atoms: C5_7  and  C6_8 
REMARK    3  A    between atoms: C11_14  and  C12_15 
ROOT
HETATM    1  C6  UNL     1      25.513   4.406  49.444  1.00  0.00     0.009 A 
HETATM    2  C7  UNL     1      24.195   4.542  49.008  1.00  0.00     0.155 A 
HETATM    3  O2  UNL     1      23.456   3.644  49.608  1.00  0.00    -0.321 OA
HETATM    4  C8  UNL     1      24.192   2.902  50.426  1.00  0.00     0.086 A 
HETATM    5  C9  UNL     1      23.917   1.839  51.280  1.00  0.00     0.039 A 
HETATM    6  C10 UNL     1      24.965   1.295  52.001  1.00  0.00     0.017 A 
HETATM    7  C11 UNL     1      26.256   1.776  51.895  1.00  0.00    -0.001 A 
HETATM    8  C16 UNL     1      26.550   2.828  51.056  1.00  0.00     0.029 A 
HETATM    9  C17 UNL     1      25.495   3.359  50.344  1.00  0.00     0.012 A 
ENDROOT
BRANCH   1  10
HETATM   10  C5  UNL     1      26.581   5.270  48.952  1.00  0.00    -0.023 A 
HETATM   11  C4  UNL     1      26.296   6.619  48.836  1.00  0.00     0.014 A 
HETATM   12  C3  UNL     1      27.292   7.478  48.369  1.00  0.00     0.022 A 
HETATM   13  C2  UNL     1      28.533   6.971  48.035  1.00  0.00     0.031 A 
HETATM   14  C19 UNL     1      28.824   5.620  48.150  1.00  0.00     0.022 A 
HETATM   15  C18 UNL     1      27.827   4.784  48.613  1.00  0.00     0.014 A 
BRANCH  13  16
HETATM   16  S1  UNL     1      29.659   8.215  47.466  1.00  0.00     0.045 S 
HETATM   17  C1  UNL     1      28.908   9.848  47.468  1.00  0.00     0.133 C 
HETATM   18  O1  UNL     1      30.939   8.267  48.278  1.00  0.00    -0.253 OA
ENDBRANCH  13  16
ENDBRANCH   1  10
BRANCH   7  19
HETATM   19  C12 UNL     1      27.351   1.189  52.666  1.00  0.00     0.085 A 
HETATM   20  C13 UNL     1      28.308   1.928  53.372  1.00  0.00     0.040 A 
HETATM   21  C14 UNL     1      29.167   1.026  53.965  1.00  0.00     0.027 A 
HETATM   22  C15 UNL     1      28.701  -0.217  53.598  1.00  0.00     0.142 A 
HETATM   23  O3  UNL     1      27.644  -0.076  52.843  1.00  0.00    -0.322 OA
ENDBRANCH   7  19
TORSDOF 3
ENDMDL
MODEL 6
REMARK VINA RESULT:      -8.2      3.971      7.039
REMARK  3 active torsions:
REMARK  status: ('A' for Active; 'I' for Inactive)
REMARK    1  A    between atoms: S1_2  and  C2_4 
REMARK    2  A    between atoms: C5_7  and  C6_8 
REMARK    3  A    between atoms: C11_14  and  C12_15 
ROOT
HETATM    1  C6  UNL     1      22.500   0.280  52.982  1.00  0.00     0.009 A 
HETATM    2  C7  UNL     1      21.750  -0.436  53.915  1.00  0.00     0.155 A 
HETATM    3  O2  UNL     1      20.526  -0.563  53.467  1.00  0.00    -0.321 OA
HETATM    4  C8  UNL     1      20.396   0.026  52.285  1.00  0.00     0.086 A 
HETATM    5  C9  UNL     1      19.342   0.186  51.393  1.00  0.00     0.039 A 
HETATM    6  C10 UNL     1      19.579   0.878  50.219  1.00  0.00     0.017 A 
HETATM    7  C11 UNL     1      20.821   1.406  49.917  1.00  0.00    -0.001 A 
HETATM    8  C16 UNL     1      21.880   1.260  50.787  1.00  0.00     0.029 A 
HETATM    9  C17 UNL     1      21.626   0.567  51.952  1.00  0.00     0.012 A 
ENDROOT
BRANCH   1  10
HETATM   10  C5  UNL     1      23.910   0.584  53.198  1.00  0.00    -0.023 A 
HETATM   11  C4  UNL     1      24.751  -0.482  53.463  1.00  0.00     0.014 A 
HETATM   12  C3  UNL     1      26.108  -0.230  53.674  1.00  0.00     0.022 A 
HETATM   13  C2  UNL     1      26.582   1.066  53.615  1.00  0.00     0.031 A 
HETATM   14  C19 UNL     1      25.743   2.138  53.350  1.00  0.00     0.022 A 
HETATM   15  C18 UNL     1      24.404   1.872  53.143  1.00  0.00     0.014 A 
BRANCH  13  16
HETATM   16  S1  UNL     1      28.326   1.180  53.910  1.00  0.00     0.045 S 
HETATM   17  C1  UNL     1      29.170  -0.359  53.525  1.00  0.00     0.133 C 
HETATM   18  O1  UNL     1      28.982   2.304  53.130  1.00  0.00    -0.253 OA
ENDBRANCH  13  16
ENDBRANCH   1  10
BRANCH   7  19
HETATM   19  C12 UNL     1      21.055   2.135  48.672  1.00  0.00     0.085 A 
HETATM   20  C13 UNL     1      22.256   2.112  47.954  1.00  0.00     0.040 A 
HETATM   21  C14 UNL     1      22.087   2.917  46.846  1.00  0.00     0.027 A 
HETATM   22  C15 UNL     1      20.798   3.394  46.935  1.00  0.00     0.142 A 
HETATM   23  O3  UNL     1      20.234   2.914  48.011  1.00  0.00    -0.322 OA
ENDBRANCH   7  19
TORSDOF 3
ENDMDL
MODEL 7
REMARK VINA RESULT:      -8.1      1.687      2.095
REMARK  3 active torsions:
REMARK  status: ('A' for Active; 'I' for Inactive)
REMARK    1  A    between atoms: S1_2  and  C2_4 
REMARK    2  A    between atoms: C5_7  and  C6_8 
REMARK    3  A    between atoms: C11_14  and  C12_15 
ROOT
HETATM    1  C6  UNL     1      23.221   2.220  52.184  1.00  0.00     0.009 A 
HETATM    2  C7  UNL     1      21.891   1.917  52.470  1.00  0.00     0.155 A 
HETATM    3  O2  UNL     1      21.851   0.831  53.201  1.00  0.00    -0.321 OA
HETATM    4  C8  UNL     1      23.077   0.375  53.428  1.00  0.00     0.086 A 
HETATM    5  C9  UNL     1      23.592  -0.713  54.124  1.00  0.00     0.039 A 
HETATM    6  C10 UNL     1      24.965  -0.881  54.150  1.00  0.00     0.017 A 
HETATM    7  C11 UNL     1      25.823  -0.006  53.509  1.00  0.00    -0.001 A 
HETATM    8  C16 UNL     1      25.334   1.079  52.814  1.00  0.00     0.029 A 
HETATM    9  C17 UNL     1      23.964   1.231  52.798  1.00  0.00     0.012 A 
ENDROOT
BRANCH   1  10
HETATM   10  C5  UNL     1      23.592   3.382  51.382  1.00  0.00    -0.023 A 
HETATM   11  C4  UNL     1      23.929   3.153  50.060  1.00  0.00     0.014 A 
HETATM   12  C3  UNL     1      24.288   4.239  49.261  1.00  0.00     0.022 A 
HETATM   13  C2  UNL     1      24.301   5.511  49.799  1.00  0.00     0.031 A 
HETATM   14  C19 UNL     1      23.964   5.746  51.123  1.00  0.00     0.022 A 
HETATM   15  C18 UNL     1      23.611   4.661  51.900  1.00  0.00     0.014 A 
BRANCH  13  16
HETATM   16  S1  UNL     1      24.782   6.753  48.629  1.00  0.00     0.045 S 
HETATM   17  C1  UNL     1      24.480   8.411  49.253  1.00  0.00     0.133 C 
HETATM   18  O1  UNL     1      26.239   6.645  48.222  1.00  0.00    -0.253 OA
ENDBRANCH  13  16
ENDBRANCH   1  10
BRANCH   7  19
HETATM   19  C12 UNL     1      27.271  -0.198  53.547  1.00  0.00     0.085 A 
HETATM   20  C13 UNL     1      28.208   0.841  53.538  1.00  0.00     0.040 A 
HETATM   21  C14 UNL     1      29.461   0.264  53.582  1.00  0.00     0.027 A 
HETATM   22  C15 UNL     1      29.236  -1.094  53.616  1.00  0.00     0.142 A 
HETATM   23  O3  UNL     1      27.949  -1.318  53.594  1.00  0.00    -0.322 OA
ENDBRANCH   7  19
TORSDOF 3
ENDMDL
MODEL 8
REMARK VINA RESULT:      -8.0      2.629      7.058
REMARK  3 active torsions:
REMARK  status: ('A' for Active; 'I' for Inactive)
REMARK    1  A    between atoms: S1_2  and  C2_4 
REMARK    2  A    between atoms: C5_7  and  C6_8 
REMARK    3  A    between atoms: C11_14  and  C12_15 
ROOT
HETATM    1  C6  UNL     1      24.360   2.706  50.807  1.00  0.00     0.009 A 
HETATM    2  C7  UNL     1      23.133   2.123  50.493  1.00  0.00     0.155 A 
HETATM    3  O2  UNL     1      22.544   2.846  49.574  1.00  0.00    -0.321 OA
HETATM    4  C8  UNL     1      23.297   3.888  49.243  1.00  0.00     0.086 A 
HETATM    5  C9  UNL     1      23.152   4.942  48.348  1.00  0.00     0.039 A 
HETATM    6  C10 UNL     1      24.172   5.873  48.267  1.00  0.00     0.017 A 
HETATM    7  C11 UNL     1      25.312   5.783  49.043  1.00  0.00    -0.001 A 
HETATM    8  C16 UNL     1      25.476   4.746  49.938  1.00  0.00     0.029 A 
HETATM    9  C17 UNL     1      24.450   3.827  50.006  1.00  0.00     0.012 A 
ENDROOT
BRANCH   1  10
HETATM   10  C5  UNL     1      25.255   2.128  51.804  1.00  0.00    -0.023 A 
HETATM   11  C4  UNL     1      26.334   1.399  51.336  1.00  0.00     0.014 A 
HETATM   12  C3  UNL     1      27.213   0.832  52.260  1.00  0.00     0.022 A 
HETATM   13  C2  UNL     1      26.991   1.006  53.612  1.00  0.00     0.031 A 
HETATM   14  C19 UNL     1      25.912   1.735  54.087  1.00  0.00     0.022 A 
HETATM   15  C18 UNL     1      25.052   2.289  53.160  1.00  0.00     0.014 A 
BRANCH  13  16
HETATM   16  S1  UNL     1      28.213   0.211  54.622  1.00  0.00     0.045 S 
HETATM   17  C1  UNL     1      29.210  -0.947  53.677  1.00  0.00     0.133 C 
HETATM   18  O1  UNL     1      29.136   1.196  55.313  1.00  0.00    -0.253 OA
ENDBRANCH  13  16
ENDBRANCH   1  10
BRANCH   7  19
HETATM   19  C12 UNL     1      26.380   6.775  48.945  1.00  0.00     0.085 A 
HETATM   20  C13 UNL     1      27.516   6.640  48.139  1.00  0.00     0.040 A 
HETATM   21  C14 UNL     1      28.282   7.774  48.316  1.00  0.00     0.027 A 
HETATM   22  C15 UNL     1      27.585   8.547  49.217  1.00  0.00     0.142 A 
HETATM   23  O3  UNL     1      26.486   7.930  49.557  1.00  0.00    -0.322 OA
ENDBRANCH   7  19
TORSDOF 3
ENDMDL
MODEL 9
REMARK VINA RESULT:      -7.9      3.073      4.943
REMARK  3 active torsions:
REMARK  status: ('A' for Active; 'I' for Inactive)
REMARK    1  A    between atoms: S1_2  and  C2_4 
REMARK    2  A    between atoms: C5_7  and  C6_8 
REMARK    3  A    between atoms: C11_14  and  C12_15 
ROOT
HETATM    1  C6  UNL     1      25.247   2.898  50.510  1.00  0.00     0.009 A 
HETATM    2  C7  UNL     1      26.620   3.141  50.529  1.00  0.00     0.155 A 
HETATM    3  O2  UNL     1      27.165   2.419  51.475  1.00  0.00    -0.321 OA
HETATM    4  C8  UNL     1      26.244   1.697  52.103  1.00  0.00     0.086 A 
HETATM    5  C9  UNL     1      26.278   0.786  53.153  1.00  0.00     0.039 A 
HETATM    6  C10 UNL     1      25.086   0.211  53.555  1.00  0.00     0.017 A 
HETATM    7  C11 UNL     1      23.883   0.515  52.947  1.00  0.00    -0.001 A 
HETATM    8  C16 UNL     1      23.827   1.414  51.904  1.00  0.00     0.029 A 
HETATM    9  C17 UNL     1      25.023   1.979  51.516  1.00  0.00     0.012 A 
ENDROOT
BRANCH   1  10
HETATM   10  C5  UNL     1      24.360   3.561  49.560  1.00  0.00    -0.023 A 
HETATM   11  C4  UNL     1      24.578   4.908  49.328  1.00  0.00     0.014 A 
HETATM   12  C3  UNL     1      23.751   5.576  48.425  1.00  0.00     0.022 A 
HETATM   13  C2  UNL     1      22.738   4.889  47.785  1.00  0.00     0.031 A 
HETATM   14  C19 UNL     1      22.515   3.539  48.014  1.00  0.00     0.022 A 
HETATM   15  C18 UNL     1      23.342   2.893  48.910  1.00  0.00     0.014 A 
BRANCH  13  16
HETATM   16  S1  UNL     1      21.799   5.908  46.680  1.00  0.00     0.045 S 
HETATM   17  C1  UNL     1      21.574   5.127  45.078  1.00  0.00     0.133 C 
HETATM   18  O1  UNL     1      20.438   6.280  47.236  1.00  0.00    -0.253 OA
ENDBRANCH  13  16
ENDBRANCH   1  10
BRANCH   7  19
HETATM   19  C12 UNL     1      22.633  -0.103  53.384  1.00  0.00     0.085 A 
HETATM   20  C13 UNL     1      22.544  -1.122  54.340  1.00  0.00     0.040 A 
HETATM   21  C14 UNL     1      21.208  -1.437  54.481  1.00  0.00     0.027 A 
HETATM   22  C15 UNL     1      20.543  -0.603  53.610  1.00  0.00     0.142 A 
HETATM   23  O3  UNL     1      21.409   0.156  52.993  1.00  0.00    -0.322 OA
ENDBRANCH   7  19
TORSDOF 3
ENDMDL
